CSD_code = WICPAB | q = 1 | S = 0 | Stoichiometry = C25H40ClIrN3(1+) | MND = 6
 OpenBabel04212202113D

 70 71  0  0  1  0  0  0  0  0999 V2000
    3.8136    5.3330   16.5034 Ir  0  0  0  0  0  0  0  0  0  0  0  0
    3.4269    7.4030   15.6396 Cl  0  0  0  0  0 15  0  0  0  0  0  0
    3.0787    5.8935   19.3673 N   0  0  0  0  0  0  0  0  0  0  0  0
    2.2443    5.3719   21.6309 N   0  0  0  0  0  0  0  0  0  0  0  0
    1.4014    4.9999   18.2479 N   0  0  0  0  0  0  0  0  0  0  0  0
    4.9293    3.8015   17.5395 C   0  0  1  0  0  0  0  0  0  0  0  0
    4.7963    3.8528   18.6208 H   0  0  0  0  0  0  0  0  0  0  0  0
    3.9122    3.1741   16.8094 C   0  0  0  0  0  3  0  0  0  0  0  0
    3.0572    2.8188   17.3814 H   0  0  0  0  0  0  0  0  0  0  0  0
    4.1526    2.3959   15.5332 C   0  0  0  0  0  0  0  0  0  0  0  0
    5.1381    1.9327   15.5827 H   0  0  0  0  0  0  0  0  0  0  0  0
    3.4232    1.5872   15.4714 H   0  0  0  0  0  0  0  0  0  0  0  0
    4.0252    3.2621   14.2668 C   0  0  0  0  0  0  0  0  0  0  0  0
    2.9860    3.2523   13.9324 H   0  0  0  0  0  0  0  0  0  0  0  0
    4.6233    2.8307   13.4587 H   0  0  0  0  0  0  0  0  0  0  0  0
    4.4401    4.6963   14.4650 C   0  0  0  0  0  3  0  0  0  0  0  0
    3.9445    5.3924   13.7930 H   0  0  0  0  0  0  0  0  0  0  0  0
    5.5709    5.1172   15.1120 C   0  0  0  0  0  3  0  0  0  0  0  0
    5.9014    6.1388   14.9476 H   0  0  0  0  0  0  0  0  0  0  0  0
    6.6219    4.1866   15.6640 C   0  0  0  0  0  0  0  0  0  0  0  0
    6.6460    3.2788   15.0617 H   0  0  0  0  0  0  0  0  0  0  0  0
    7.5987    4.6622   15.5678 H   0  0  0  0  0  0  0  0  0  0  0  0
    6.3861    3.8462   17.1450 C   0  0  0  0  0  0  0  0  0  0  0  0
    6.8785    4.5985   17.7651 H   0  0  0  0  0  0  0  0  0  0  0  0
    6.8486    2.8833   17.3846 H   0  0  0  0  0  0  0  0  0  0  0  0
    2.6400    5.5511   18.0932 C   0  0  2  0  0  3  0  0  0  0  0  0
    4.1995    6.8041   19.5038 C   0  0  0  0  0  0  0  0  0  0  0  0
    4.7736    6.6771   18.5811 H   0  0  0  0  0  0  0  0  0  0  0  0
    4.8318    6.5258   20.3453 H   0  0  0  0  0  0  0  0  0  0  0  0
    3.8066    8.3095   19.5981 C   0  0  0  0  0  0  0  0  0  0  0  0
    2.5193    8.5940   18.8282 C   0  0  0  0  0  0  0  0  0  0  0  0
    2.3424    9.6654   18.8014 H   0  0  0  0  0  0  0  0  0  0  0  0
    1.6585    8.1287   19.3073 H   0  0  0  0  0  0  0  0  0  0  0  0
    2.5967    8.2420   17.8034 H   0  0  0  0  0  0  0  0  0  0  0  0
    3.6245    8.7703   21.0462 C   0  0  0  0  0  0  0  0  0  0  0  0
    4.5133    8.5715   21.6433 H   0  0  0  0  0  0  0  0  0  0  0  0
    2.7516    8.3096   21.5064 H   0  0  0  0  0  0  0  0  0  0  0  0
    3.4603    9.8447   21.0603 H   0  0  0  0  0  0  0  0  0  0  0  0
    4.9577    9.0938   18.9625 C   0  0  0  0  0  0  0  0  0  0  0  0
    5.0241    8.8684   17.9018 H   0  0  0  0  0  0  0  0  0  0  0  0
    5.9051    8.8488   19.4372 H   0  0  0  0  0  0  0  0  0  0  0  0
    4.7901   10.1615   19.0696 H   0  0  0  0  0  0  0  0  0  0  0  0
    2.1855    5.4575   20.2830 C   0  0  2  0  0  3  0  0  0  0  0  0
    1.1488    4.8897   22.2863 C   0  0  0  0  0  0  0  0  0  0  0  0
    1.2080    4.8868   23.3616 H   0  0  0  0  0  0  0  0  0  0  0  0
    0.0484    4.4045   21.6332 C   0  0  0  0  0  0  0  0  0  0  0  0
   -0.7775    4.0269   22.2117 H   0  0  0  0  0  0  0  0  0  0  0  0
    0.0047    4.3548   20.2382 C   0  0  0  0  0  0  0  0  0  0  0  0
   -0.8222    3.9029   19.7219 H   0  0  0  0  0  0  0  0  0  0  0  0
    1.0878    4.9034   19.5686 C   0  0  0  0  0  0  0  0  0  0  0  0
    0.5843    4.5435   17.1452 C   0  0  0  0  0  0  0  0  0  0  0  0
    0.1509    3.5757   17.4096 H   0  0  0  0  0  0  0  0  0  0  0  0
    1.2698    4.4081   16.3041 H   0  0  0  0  0  0  0  0  0  0  0  0
   -0.5378    5.5089   16.6860 C   0  0  0  0  0  0  0  0  0  0  0  0
   -0.0261    6.9457   16.6401 C   0  0  0  0  0  0  0  0  0  0  0  0
   -0.7542    7.5809   16.1443 H   0  0  0  0  0  0  0  0  0  0  0  0
    0.9100    7.0100   16.0931 H   0  0  0  0  0  0  0  0  0  0  0  0
    0.1298    7.3383   17.6416 H   0  0  0  0  0  0  0  0  0  0  0  0
   -1.7613    5.4341   17.6010 C   0  0  0  0  0  0  0  0  0  0  0  0
   -1.5383    5.8173   18.5941 H   0  0  0  0  0  0  0  0  0  0  0  0
   -2.1310    4.4139   17.6816 H   0  0  0  0  0  0  0  0  0  0  0  0
   -2.5600    6.0436   17.1866 H   0  0  0  0  0  0  0  0  0  0  0  0
   -0.9370    5.0630   15.2765 C   0  0  0  0  0  0  0  0  0  0  0  0
   -1.7781    5.6515   14.9220 H   0  0  0  0  0  0  0  0  0  0  0  0
   -1.2275    4.0149   15.2661 H   0  0  0  0  0  0  0  0  0  0  0  0
   -0.1114    5.2041   14.5839 H   0  0  0  0  0  0  0  0  0  0  0  0
    3.4642    5.5913   22.3789 C   0  0  0  0  0  0  0  0  0  0  0  0
    3.3007    5.3148   23.4178 H   0  0  0  0  0  0  0  0  0  0  0  0
    3.7725    6.6343   22.3441 H   0  0  0  0  0  0  0  0  0  0  0  0
    4.2604    4.9623   21.9783 H   0  0  0  0  0  0  0  0  0  0  0  0
  1  6  1  0  0  0  0
  3 27  1  0  0  0  0
  3 43  1  0  0  0  0
  4 44  1  0  0  0  0
  4 67  1  0  0  0  0
  5 50  1  0  0  0  0
  6  7  1  1  0  0  0
  8  9  1  0  0  0  0
  8  6  1  0  0  0  0
 10 11  1  0  0  0  0
 10  8  1  0  0  0  0
 12 10  1  0  0  0  0
 13 16  1  0  0  0  0
 13 10  1  0  0  0  0
 14 13  1  0  0  0  0
 15 13  1  0  0  0  0
 16 18  1  0  0  0  0
 17 16  1  0  0  0  0
 18 20  1  0  0  0  0
 19 18  1  0  0  0  0
 20 23  1  0  0  0  0
 21 20  1  0  0  0  0
 22 20  1  0  0  0  0
 23 25  1  0  0  0  0
 23  6  1  0  0  0  0
 23 24  1  0  0  0  0
 26  1  1  1  0  0  0
 26  5  1  0  0  0  0
 26  3  1  0  0  0  0
 27 30  1  0  0  0  0
 27 29  1  0  0  0  0
 28 27  1  0  0  0  0
 30 35  1  0  0  0  0
 31 33  1  0  0  0  0
 31 30  1  0  0  0  0
 32 31  1  0  0  0  0
 34 31  1  0  0  0  0
 35 38  1  0  0  0  0
 35 37  1  0  0  0  0
 35 36  1  0  0  0  0
 39 42  1  0  0  0  0
 39 41  1  0  0  0  0
 39 30  1  0  0  0  0
 40 39  1  0  0  0  0
 43 50  1  6  0  0  0
 43  4  1  0  0  0  0
 44 45  1  0  0  0  0
 46 47  1  0  0  0  0
 46 44  2  0  0  0  0
 48 46  1  0  0  0  0
 49 48  1  0  0  0  0
 50 48  2  0  0  0  0
 51 52  1  0  0  0  0
 51  5  1  0  0  0  0
 53 51  1  0  0  0  0
 54 51  1  0  0  0  0
 54 59  1  0  0  0  0
 55 54  1  0  0  0  0
 55 58  1  0  0  0  0
 56 55  1  0  0  0  0
 57 55  1  0  0  0  0
 59 61  1  0  0  0  0
 59 60  1  0  0  0  0
 62 59  1  0  0  0  0
 63 54  1  0  0  0  0
 64 63  1  0  0  0  0
 65 63  1  0  0  0  0
 66 63  1  0  0  0  0
 67 68  1  0  0  0  0
 69 67  1  0  0  0  0
 70 67  1  0  0  0  0
M  END
$$$$
