CSD_code = WICQUU | q = 0 | S = 0 | Stoichiometry = C15H14Cl2N4Pt | MND = 4
 OpenBabel04212202113D

 36 39  0  0  1  0  0  0  0  0999 V2000
    1.5466   -1.1803    0.0581 Pt  0  0  0  0  0  0  0  0  0  0  0  0
    0.5639   -3.1587    0.4085 Cl  0  0  0  0  0  0  0  0  0  0  0  0
    1.2290   -1.4440   -2.1295 Cl  0  0  0  0  0  0  0  0  0  0  0  0
    1.9063   -0.7717    1.9339 N   0  0  0  0  0  0  0  0  0  0  0  0
    2.1565    0.4745    2.2298 N   0  0  0  0  0  2  0  0  0  0  0  0
    2.2073    0.7217   -0.1060 N   0  0  0  0  0  0  0  0  0  0  0  0
    2.5928    2.5497    1.0813 N   0  0  0  0  0  0  0  0  0  0  0  0
    2.2852    1.2331    1.1352 C   0  0  2  0  0  3  0  0  0  0  0  0
    2.4602    1.7356   -0.9666 C   0  0  0  0  0  0  0  0  0  0  0  0
    2.4561    1.5847   -2.0272 H   0  0  0  0  0  0  0  0  0  0  0  0
    2.6933    2.8725   -0.2421 C   0  0  0  0  0  0  0  0  0  0  0  0
    2.9277    3.8662   -0.5634 H   0  0  0  0  0  0  0  0  0  0  0  0
    2.6899    3.4299    2.2176 C   0  0  0  0  0  0  0  0  0  0  0  0
    3.1837    2.8804    3.0227 H   0  0  0  0  0  0  0  0  0  0  0  0
    3.3038    4.2873    1.9331 H   0  0  0  0  0  0  0  0  0  0  0  0
    1.3073    3.8870    2.6738 C   0  0  0  0  0  0  0  0  0  0  0  0
    0.7993    4.4253    1.8771 H   0  0  0  0  0  0  0  0  0  0  0  0
    1.4008    4.5422    3.5348 H   0  0  0  0  0  0  0  0  0  0  0  0
    0.7059    3.0258    2.9528 H   0  0  0  0  0  0  0  0  0  0  0  0
    1.8395   -1.6392    3.0082 C   0  0  0  0  0  0  0  0  0  0  0  0
    2.2364   -2.9553    2.8575 C   0  0  0  0  0  0  0  0  0  0  0  0
    2.6767   -3.2837    1.9276 H   0  0  0  0  0  0  0  0  0  0  0  0
    2.1213   -3.8613    3.9254 C   0  0  0  0  0  0  0  0  0  0  0  0
    2.4932   -5.2160    3.7879 C   0  0  0  0  0  0  0  0  0  0  0  0
    2.8704   -5.5527    2.8342 H   0  0  0  0  0  0  0  0  0  0  0  0
    2.3569   -6.0841    4.8353 C   0  0  0  0  0  0  0  0  0  0  0  0
    2.6361   -7.1212    4.7238 H   0  0  0  0  0  0  0  0  0  0  0  0
    1.8516   -5.6369    6.0657 C   0  0  0  0  0  0  0  0  0  0  0  0
    1.7519   -6.3360    6.8829 H   0  0  0  0  0  0  0  0  0  0  0  0
    1.4862   -4.3277    6.2311 C   0  0  0  0  0  0  0  0  0  0  0  0
    1.0948   -3.9822    7.1772 H   0  0  0  0  0  0  0  0  0  0  0  0
    1.6103   -3.4093    5.1724 C   0  0  0  0  0  0  0  0  0  0  0  0
    1.2495   -2.0479    5.3081 C   0  0  0  0  0  0  0  0  0  0  0  0
    0.8698   -1.7055    6.2598 H   0  0  0  0  0  0  0  0  0  0  0  0
    1.3652   -1.1833    4.2644 C   0  0  0  0  0  0  0  0  0  0  0  0
    1.0773   -0.1471    4.3521 H   0  0  0  0  0  0  0  0  0  0  0  0
  1  2  1  0  0  0  0
  1  4  1  0  0  0  0
  3  1  1  0  0  0  0
  4  5  1  0  0  0  0
  4 20  1  0  0  0  0
  6  1  1  0  0  0  0
  6  8  1  0  0  0  0
  7  8  1  0  0  0  0
  7 13  1  0  0  0  0
  8  5  1  1  0  0  0
  9 11  2  0  0  0  0
  9  6  1  0  0  0  0
 10  9  1  0  0  0  0
 11  7  1  0  0  0  0
 12 11  1  0  0  0  0
 13 16  1  0  0  0  0
 13 14  1  0  0  0  0
 15 13  1  0  0  0  0
 16 19  1  0  0  0  0
 16 18  1  0  0  0  0
 17 16  1  0  0  0  0
 20 35  1  0  0  0  0
 21 20  2  0  0  0  0
 21 23  1  0  0  0  0
 22 21  1  0  0  0  0
 23 32  1  0  0  0  0
 24 23  2  0  0  0  0
 24 26  1  0  0  0  0
 25 24  1  0  0  0  0
 26 28  2  0  0  0  0
 27 26  1  0  0  0  0
 28 30  1  0  0  0  0
 28 29  1  0  0  0  0
 30 31  1  0  0  0  0
 32 33  1  0  0  0  0
 32 30  2  0  0  0  0
 33 34  1  0  0  0  0
 35 36  1  0  0  0  0
 35 33  2  0  0  0  0
M  END
$$$$
