CSD_code = WICVUC | q = 1 | S = 0 | Stoichiometry = C12H29IN3Pd(1+) | MND = 4
 OpenBabel04212202113D

 46 47  0  0  1  0  0  0  0  0999 V2000
    2.9299    5.3731    3.7817 Pd  0  0  1  0  0  0  0  0  0  0  0  0
    1.6819    3.9594    2.0226 I   0  0  0  0  0  0  0  0  0  0  0  0
    1.2373    6.4865    4.4196 N   0  0  0  0  0  4  0  0  0  0  0  0
    3.9623    6.4867    5.2074 N   0  0  2  0  0  4  0  0  0  0  0  0
    4.0309    5.9530    6.0789 H   0  0  0  0  0  0  0  0  0  0  0  0
    4.8777    4.6315    3.2762 N   0  0  0  0  0  4  0  0  0  0  0  0
    1.7066    7.2581    5.5928 C   0  0  0  0  0  0  0  0  0  0  0  0
    1.6303    6.6173    6.4762 H   0  0  0  0  0  0  0  0  0  0  0  0
    1.0663    8.1299    5.7608 H   0  0  0  0  0  0  0  0  0  0  0  0
    3.1649    7.6905    5.4420 C   0  0  0  0  0  0  0  0  0  0  0  0
    3.2848    8.3632    4.5855 H   0  0  0  0  0  0  0  0  0  0  0  0
    3.4879    8.2343    6.3399 H   0  0  0  0  0  0  0  0  0  0  0  0
    5.3021    6.6937    4.6591 C   0  0  0  0  0  0  0  0  0  0  0  0
    5.9948    7.1042    5.4074 H   0  0  0  0  0  0  0  0  0  0  0  0
    5.2269    7.4163    3.8414 H   0  0  0  0  0  0  0  0  0  0  0  0
    5.8360    5.3485    4.1571 C   0  0  0  0  0  0  0  0  0  0  0  0
    6.0432    4.7225    5.0288 H   0  0  0  0  0  0  0  0  0  0  0  0
    6.7847    5.5045    3.6310 H   0  0  0  0  0  0  0  0  0  0  0  0
    0.9457    7.3645    3.2606 C   0  0  0  0  0  0  0  0  0  0  0  0
    0.6261    6.7192    2.4361 H   0  0  0  0  0  0  0  0  0  0  0  0
    1.8788    7.8645    2.9580 H   0  0  0  0  0  0  0  0  0  0  0  0
   -0.1321    8.4265    3.4684 C   0  0  0  0  0  0  0  0  0  0  0  0
   -1.0713    7.9832    3.7858 H   0  0  0  0  0  0  0  0  0  0  0  0
   -0.3057    8.9206    2.5163 H   0  0  0  0  0  0  0  0  0  0  0  0
    0.1613    9.1909    4.1837 H   0  0  0  0  0  0  0  0  0  0  0  0
    0.0540    5.6874    4.7970 C   0  0  0  0  0  0  0  0  0  0  0  0
   -0.4276    5.3440    3.8789 H   0  0  0  0  0  0  0  0  0  0  0  0
   -0.6566    6.3136    5.3477 H   0  0  0  0  0  0  0  0  0  0  0  0
    0.4191    4.4684    5.6386 C   0  0  0  0  0  0  0  0  0  0  0  0
    1.2228    3.8966    5.1550 H   0  0  0  0  0  0  0  0  0  0  0  0
   -0.4473    3.8171    5.7102 H   0  0  0  0  0  0  0  0  0  0  0  0
    0.7194    4.7290    6.6521 H   0  0  0  0  0  0  0  0  0  0  0  0
    4.9781    3.1755    3.5158 C   0  0  0  0  0  0  0  0  0  0  0  0
    6.0294    2.8656    3.4714 H   0  0  0  0  0  0  0  0  0  0  0  0
    4.4421    2.6644    2.7128 H   0  0  0  0  0  0  0  0  0  0  0  0
    4.3567    2.7496    4.8429 C   0  0  0  0  0  0  0  0  0  0  0  0
    4.9425    3.0606    5.7067 H   0  0  0  0  0  0  0  0  0  0  0  0
    4.2874    1.6656    4.8668 H   0  0  0  0  0  0  0  0  0  0  0  0
    3.3338    3.1510    4.9304 H   0  0  0  0  0  0  0  0  0  0  0  0
    5.1614    4.9101    1.8516 C   0  0  0  0  0  0  0  0  0  0  0  0
    4.5783    4.2080    1.2514 H   0  0  0  0  0  0  0  0  0  0  0  0
    6.2230    4.7242    1.6463 H   0  0  0  0  0  0  0  0  0  0  0  0
    4.7882    6.3254    1.4180 C   0  0  0  0  0  0  0  0  0  0  0  0
    3.7773    6.5872    1.7792 H   0  0  0  0  0  0  0  0  0  0  0  0
    4.7633    6.3607    0.3317 H   0  0  0  0  0  0  0  0  0  0  0  0
    5.5114    7.0657    1.7532 H   0  0  0  0  0  0  0  0  0  0  0  0
  1  2  1  1  0  0  0
  1  3  1  0  0  0  0
  1  4  1  0  0  0  0
  3 26  1  0  0  0  0
  3  7  1  0  0  0  0
  4 10  1  0  0  0  0
  4  5  1  1  0  0  0
  6 33  1  0  0  0  0
  6  1  1  0  0  0  0
  6 16  1  0  0  0  0
  7  9  1  0  0  0  0
  7  8  1  0  0  0  0
 10  7  1  0  0  0  0
 10 12  1  0  0  0  0
 11 10  1  0  0  0  0
 13  4  1  0  0  0  0
 13 14  1  0  0  0  0
 15 13  1  0  0  0  0
 16 13  1  0  0  0  0
 16 17  1  0  0  0  0
 18 16  1  0  0  0  0
 19 22  1  0  0  0  0
 19  3  1  0  0  0  0
 20 19  1  0  0  0  0
 21 19  1  0  0  0  0
 22 23  1  0  0  0  0
 22 25  1  0  0  0  0
 24 22  1  0  0  0  0
 26 28  1  0  0  0  0
 26 29  1  0  0  0  0
 27 26  1  0  0  0  0
 29 31  1  0  0  0  0
 29 32  1  0  0  0  0
 30 29  1  0  0  0  0
 33 36  1  0  0  0  0
 34 33  1  0  0  0  0
 35 33  1  0  0  0  0
 36 38  1  0  0  0  0
 36 39  1  0  0  0  0
 36 37  1  0  0  0  0
 40  6  1  0  0  0  0
 41 40  1  0  0  0  0
 42 40  1  0  0  0  0
 43 46  1  0  0  0  0
 43 44  1  0  0  0  0
 43 40  1  0  0  0  0
 45 43  1  0  0  0  0
M  END
$$$$
