CSD_code = WIDGIB | q = 0 | S = 0 | Stoichiometry = C24H32Br2N4Pd | MND = 4
 OpenBabel04212202113D

 63 66  0  0  1  0  0  0  0  0999 V2000
    3.8921    2.6285   10.7781 Pd  0  0  0  0  0  0  0  0  0  0  0  0
    5.4183    3.6373    9.1623 Br  0  0  0  0  0  0  0  0  0  0  0  0
    2.3442    1.5169   12.3063 Br  0  0  0  0  0  0  0  0  0  0  0  0
    4.1157    0.0277    9.2712 N   0  0  0  0  0  0  0  0  0  0  0  0
    5.6897    0.2868   10.7596 N   0  0  0  0  0  0  0  0  0  0  0  0
    2.0872    4.9803   11.2372 N   0  0  0  0  0  0  0  0  0  0  0  0
    1.9989    6.2296   11.8308 N   0  0  0  0  0  0  0  0  0  0  0  0
    4.5896    0.8453   10.2255 C   0  0  0  0  0  0  0  0  0  0  0  0
    4.9306   -1.0801    9.1680 C   0  0  0  0  0  0  0  0  0  0  0  0
    4.9053   -2.1980    8.3475 C   0  0  0  0  0  0  0  0  0  0  0  0
    4.1406   -2.3407    7.6015 H   0  0  0  0  0  0  0  0  0  0  0  0
    5.9050   -3.1371    8.5100 C   0  0  0  0  0  0  0  0  0  0  0  0
    5.9101   -4.0163    7.8838 H   0  0  0  0  0  0  0  0  0  0  0  0
    6.9073   -2.9733    9.4612 C   0  0  0  0  0  0  0  0  0  0  0  0
    7.6727   -3.7282    9.5570 H   0  0  0  0  0  0  0  0  0  0  0  0
    6.9464   -1.8640   10.2832 C   0  0  0  0  0  0  0  0  0  0  0  0
    7.7343   -1.7534   11.0103 H   0  0  0  0  0  0  0  0  0  0  0  0
    5.9483   -0.9128   10.1315 C   0  0  0  0  0  0  0  0  0  0  0  0
    2.9103    0.3478    8.5255 C   0  0  0  0  0  0  0  0  0  0  0  0
    2.5513    1.3064    8.9565 H   0  0  0  0  0  0  0  0  0  0  0  0
    1.8298   -0.7041    8.7592 C   0  0  0  0  0  0  0  0  0  0  0  0
    0.9113   -0.3993    8.2647 H   0  0  0  0  0  0  0  0  0  0  0  0
    1.6322   -0.7999    9.8250 H   0  0  0  0  0  0  0  0  0  0  0  0
    2.1276   -1.6739    8.3708 H   0  0  0  0  0  0  0  0  0  0  0  0
    3.2314    0.5725    7.0506 C   0  0  0  0  0  0  0  0  0  0  0  0
    3.9983    1.3389    6.9517 H   0  0  0  0  0  0  0  0  0  0  0  0
    2.3395    0.9050    6.5263 H   0  0  0  0  0  0  0  0  0  0  0  0
    3.5903   -0.3398    6.5821 H   0  0  0  0  0  0  0  0  0  0  0  0
    6.4200    0.9279   11.8434 C   0  0  0  0  0  0  0  0  0  0  0  0
    5.8539    1.8637   12.0680 H   0  0  0  0  0  0  0  0  0  0  0  0
    7.8264    1.3138   11.3935 C   0  0  0  0  0  0  0  0  0  0  0  0
    8.3306    1.8569   12.1888 H   0  0  0  0  0  0  0  0  0  0  0  0
    7.7718    1.9556   10.5157 H   0  0  0  0  0  0  0  0  0  0  0  0
    8.4159    0.4353   11.1450 H   0  0  0  0  0  0  0  0  0  0  0  0
    6.4025    0.0563   13.0964 C   0  0  0  0  0  0  0  0  0  0  0  0
    6.9472   -0.8712   12.9422 H   0  0  0  0  0  0  0  0  0  0  0  0
    5.3760   -0.1837   13.3684 H   0  0  0  0  0  0  0  0  0  0  0  0
    6.8601    0.5942   13.9228 H   0  0  0  0  0  0  0  0  0  0  0  0
    3.2708    4.4146   11.4178 C   0  0  0  0  0  0  0  0  0  0  0  0
    4.0117    5.3261   12.2286 C   0  0  0  0  0  0  0  0  0  0  0  0
    5.3061    5.2726   12.7468 C   0  0  0  0  0  0  0  0  0  0  0  0
    5.9417    4.4210   12.5307 H   0  0  0  0  0  0  0  0  0  0  0  0
    5.7364    6.3270   13.5161 C   0  0  0  0  0  0  0  0  0  0  0  0
    6.7316    6.3221   13.9338 H   0  0  0  0  0  0  0  0  0  0  0  0
    4.9002    7.4206   13.7694 C   0  0  0  0  0  0  0  0  0  0  0  0
    5.2723    8.2299   14.3803 H   0  0  0  0  0  0  0  0  0  0  0  0
    3.6204    7.4983   13.2651 C   0  0  0  0  0  0  0  0  0  0  0  0
    2.9929    8.3520   13.4730 H   0  0  0  0  0  0  0  0  0  0  0  0
    3.1759    6.4364   12.4831 C   0  0  1  0  0  3  0  0  0  0  0  0
    1.0275    4.3942   10.4475 C   0  0  0  0  0  0  0  0  0  0  0  0
    0.8206    3.3948   10.8552 H   0  0  0  0  0  0  0  0  0  0  0  0
    0.1232    4.9957   10.5362 H   0  0  0  0  0  0  0  0  0  0  0  0
    1.4467    4.2692    8.9832 C   0  0  0  0  0  0  0  0  0  0  0  0
    1.6564    5.2459    8.5512 H   0  0  0  0  0  0  0  0  0  0  0  0
    0.6561    3.7908    8.4115 H   0  0  0  0  0  0  0  0  0  0  0  0
    2.3571    3.6570    8.9093 H   0  0  0  0  0  0  0  0  0  0  0  0
    0.7859    6.9798   12.0002 C   0  0  0  0  0  0  0  0  0  0  0  0
    1.0813    8.0102   12.2128 H   0  0  0  0  0  0  0  0  0  0  0  0
    0.2243    6.9881   11.0613 H   0  0  0  0  0  0  0  0  0  0  0  0
   -0.0716    6.4359   13.1431 C   0  0  0  0  0  0  0  0  0  0  0  0
   -0.3562    5.4020   12.9605 H   0  0  0  0  0  0  0  0  0  0  0  0
   -0.9734    7.0325   13.2475 H   0  0  0  0  0  0  0  0  0  0  0  0
    0.4841    6.4753   14.0771 H   0  0  0  0  0  0  0  0  0  0  0  0
  1 39  1  0  0  0  0
  1  3  1  0  0  0  0
  2  1  1  0  0  0  0
  4  8  1  0  0  0  0
  5 29  1  0  0  0  0
  6 39  1  0  0  0  0
  6  7  1  0  0  0  0
  7 57  1  0  0  0  0
  7 49  1  0  0  0  0
  8  5  1  0  0  0  0
  8  1  2  0  0  0  0
  9  4  1  0  0  0  0
  9 18  1  0  0  0  0
 10 12  1  0  0  0  0
 10  9  2  0  0  0  0
 11 10  1  0  0  0  0
 12 14  2  0  0  0  0
 13 12  1  0  0  0  0
 14 15  1  0  0  0  0
 14 16  1  0  0  0  0
 16 17  1  0  0  0  0
 18 16  2  0  0  0  0
 18  5  1  0  0  0  0
 19 21  1  0  0  0  0
 19 20  1  0  0  0  0
 19  4  1  0  0  0  0
 21 23  1  0  0  0  0
 22 21  1  0  0  0  0
 24 21  1  0  0  0  0
 25 19  1  0  0  0  0
 26 25  1  0  0  0  0
 27 25  1  0  0  0  0
 28 25  1  0  0  0  0
 29 30  1  0  0  0  0
 29 35  1  0  0  0  0
 31 29  1  0  0  0  0
 31 32  1  0  0  0  0
 33 31  1  0  0  0  0
 34 31  1  0  0  0  0
 35 37  1  0  0  0  0
 35 38  1  0  0  0  0
 36 35  1  0  0  0  0
 39 40  2  0  0  0  0
 40 41  1  0  0  0  0
 41 43  2  0  0  0  0
 42 41  1  0  0  0  0
 43 45  1  0  0  0  0
 43 44  1  0  0  0  0
 45 46  1  0  0  0  0
 47 48  1  0  0  0  0
 47 45  2  0  0  0  0
 49 40  1  6  0  0  0
 49 47  1  0  0  0  0
 50 52  1  0  0  0  0
 50 51  1  0  0  0  0
 50  6  1  0  0  0  0
 53 50  1  0  0  0  0
 54 53  1  0  0  0  0
 55 53  1  0  0  0  0
 56 53  1  0  0  0  0
 57 58  1  0  0  0  0
 57 60  1  0  0  0  0
 59 57  1  0  0  0  0
 60 62  1  0  0  0  0
 60 63  1  0  0  0  0
 61 60  1  0  0  0  0
M  END
$$$$
