CSD_code = WIDGUN | q = 0 | S = 0 | Stoichiometry = C16H22Br2N4Pd | MND = 4
 OpenBabel04212202113D

 45 47  0  0  0  0  0  0  0  0999 V2000
    2.3567    6.8736    1.4945 Pd  0  0  0  0  0  0  0  0  0  0  0  0
    3.8754    5.4447    0.2311 Br  0  0  0  0  0  0  0  0  0  0  0  0
    0.7939    8.1265    2.8805 Br  0  0  0  0  0  0  0  0  0  0  0  0
    3.0518    5.3798    3.9024 N   0  0  0  0  0  0  0  0  0  0  0  0
    1.4027    4.4424    2.8138 N   0  0  0  0  0  0  0  0  0  0  0  0
    2.4821    8.3846    0.0834 N   0  0  0  0  0  0  0  0  0  0  0  0
    2.6390    9.4203   -1.8326 N   0  0  0  0  0  0  0  0  0  0  0  0
    2.6902    9.5756   -2.8260 H   0  0  0  0  0  0  0  0  0  0  0  0
    2.2630    5.4706    2.8216 C   0  0  0  0  0  0  0  0  0  0  0  0
    2.6978    4.2586    4.6250 C   0  0  0  0  0  0  0  0  0  0  0  0
    3.1781    3.7048    5.8023 C   0  0  0  0  0  0  0  0  0  0  0  0
    3.9885    4.1523    6.3538 H   0  0  0  0  0  0  0  0  0  0  0  0
    2.5806    2.5456    6.2577 C   0  0  0  0  0  0  0  0  0  0  0  0
    2.9348    2.0934    7.1712 H   0  0  0  0  0  0  0  0  0  0  0  0
    1.5324    1.9485    5.5646 C   0  0  0  0  0  0  0  0  0  0  0  0
    1.0914    1.0430    5.9519 H   0  0  0  0  0  0  0  0  0  0  0  0
    1.0436    2.4894    4.3911 C   0  0  0  0  0  0  0  0  0  0  0  0
    0.2309    2.0119    3.8690 H   0  0  0  0  0  0  0  0  0  0  0  0
    1.6340    3.6534    3.9222 C   0  0  0  0  0  0  0  0  0  0  0  0
    4.0903    6.3621    4.1804 C   0  0  0  0  0  0  0  0  0  0  0  0
    4.0363    7.0957    3.3405 H   0  0  0  0  0  0  0  0  0  0  0  0
    3.7931    7.1039    5.4801 C   0  0  0  0  0  0  0  0  0  0  0  0
    2.8069    7.5610    5.4273 H   0  0  0  0  0  0  0  0  0  0  0  0
    4.5300    7.8880    5.6300 H   0  0  0  0  0  0  0  0  0  0  0  0
    3.8211    6.4321    6.3332 H   0  0  0  0  0  0  0  0  0  0  0  0
    5.4686    5.7080    4.1527 C   0  0  0  0  0  0  0  0  0  0  0  0
    5.5784    4.9838    4.9551 H   0  0  0  0  0  0  0  0  0  0  0  0
    6.2366    6.4686    4.2632 H   0  0  0  0  0  0  0  0  0  0  0  0
    5.6190    5.2006    3.2016 H   0  0  0  0  0  0  0  0  0  0  0  0
    0.4160    4.2749    1.7563 C   0  0  0  0  0  0  0  0  0  0  0  0
    0.5744    5.1372    1.0660 H   0  0  0  0  0  0  0  0  0  0  0  0
    0.6761    2.9876    0.9796 C   0  0  0  0  0  0  0  0  0  0  0  0
    1.6932    2.9885    0.5925 H   0  0  0  0  0  0  0  0  0  0  0  0
   -0.0125    2.9204    0.1418 H   0  0  0  0  0  0  0  0  0  0  0  0
    0.5433    2.1128    1.6100 H   0  0  0  0  0  0  0  0  0  0  0  0
   -0.9982    4.3707    2.3212 C   0  0  0  0  0  0  0  0  0  0  0  0
   -1.2053    3.5549    3.0079 H   0  0  0  0  0  0  0  0  0  0  0  0
   -1.7194    4.3336    1.5094 H   0  0  0  0  0  0  0  0  0  0  0  0
   -1.1222    5.3131    2.8512 H   0  0  0  0  0  0  0  0  0  0  0  0
    2.5098    8.2290   -1.2188 C   0  0  0  0  0  3  0  0  0  0  0  0
    2.4551    7.2886   -1.7377 H   0  0  0  0  0  0  0  0  0  0  0  0
    2.5968    9.7207    0.3265 C   0  0  0  0  0  0  0  0  0  0  0  0
    2.5871   10.1174    1.3256 H   0  0  0  0  0  0  0  0  0  0  0  0
    2.6963   10.3783   -0.8630 C   0  0  0  0  0  0  0  0  0  0  0  0
    2.7994   11.4195   -1.0846 H   0  0  0  0  0  0  0  0  0  0  0  0
  1  9  2  0  0  0  0
  1  3  1  0  0  0  0
  2  1  1  0  0  0  0
  4 20  1  0  0  0  0
  4 10  1  0  0  0  0
  5  9  1  0  0  0  0
  5 19  1  0  0  0  0
  6 42  1  0  0  0  0
  6  1  1  0  0  0  0
  7 40  1  0  0  0  0
  7 44  1  0  0  0  0
  8  7  1  0  0  0  0
  9  4  1  0  0  0  0
 10 11  1  0  0  0  0
 11 13  2  0  0  0  0
 11 12  1  0  0  0  0
 13 14  1  0  0  0  0
 15 16  1  0  0  0  0
 15 13  1  0  0  0  0
 17 15  2  0  0  0  0
 18 17  1  0  0  0  0
 19 17  1  0  0  0  0
 19 10  2  0  0  0  0
 20 22  1  0  0  0  0
 21 20  1  0  0  0  0
 22 24  1  0  0  0  0
 22 25  1  0  0  0  0
 23 22  1  0  0  0  0
 26 20  1  0  0  0  0
 26 28  1  0  0  0  0
 26 27  1  0  0  0  0
 29 26  1  0  0  0  0
 30 36  1  0  0  0  0
 30  5  1  0  0  0  0
 31 30  1  0  0  0  0
 32 35  1  0  0  0  0
 32 30  1  0  0  0  0
 33 32  1  0  0  0  0
 34 32  1  0  0  0  0
 36 39  1  0  0  0  0
 36 37  1  0  0  0  0
 38 36  1  0  0  0  0
 40  6  1  0  0  0  0
 41 40  1  0  0  0  0
 42 43  1  0  0  0  0
 44 42  2  0  0  0  0
 45 44  1  0  0  0  0
M  END
$$$$
