CSD_code = WIDPIK | q = 1 | S = 0 | Stoichiometry = C28H25ClN4NiP(1+) | MND = 4
 OpenBabel04212202113D

 60 66  0  0  1  0  0  0  0  0999 V2000
    4.6283    3.1469    4.9648 Ni  0  0  2  0  0  0  0  0  0  0  0  0
    4.6600    4.8652    6.0641 Cl  0  0  0  0  0  0  0  0  0  0  0  0
    2.5550    3.4556    3.0380 N   0  0  0  0  0  0  0  0  0  0  0  0
    3.7924    5.2269    3.0345 N   0  0  0  0  0  0  0  0  0  0  0  0
    4.3115    1.4729    3.9689 N   0  0  0  0  0  0  0  0  0  0  0  0
    5.7283    2.2563    6.3413 N   0  0  0  0  0  0  0  0  0  0  0  0
    5.4923    0.3794    4.0135 P   0  0  0  0  0  4  0  0  0  0  0  0
    3.6526    4.0156    3.6071 C   0  0  0  0  0  0  0  0  0  0  0  0
    2.0158    4.3244    2.1261 C   0  0  0  0  0  0  0  0  0  0  0  0
    1.1594    4.0884    1.5310 H   0  0  0  0  0  0  0  0  0  0  0  0
    2.7940    5.4316    2.1284 C   0  0  0  0  0  0  0  0  0  0  0  0
    2.7132    6.3345    1.5591 H   0  0  0  0  0  0  0  0  0  0  0  0
    2.1049    2.1296    3.2111 C   0  0  0  0  0  0  0  0  0  0  0  0
    3.0190    1.1290    3.5876 C   0  0  0  0  0  0  0  0  0  0  0  0
    2.5823   -0.1951    3.5609 C   0  0  0  0  0  0  0  0  0  0  0  0
    3.2965   -0.9740    3.8036 H   0  0  0  0  0  0  0  0  0  0  0  0
    1.2766   -0.5186    3.2559 C   0  0  0  0  0  0  0  0  0  0  0  0
    0.9689   -1.5524    3.2532 H   0  0  0  0  0  0  0  0  0  0  0  0
    0.3629    0.4841    2.9751 C   0  0  0  0  0  0  0  0  0  0  0  0
   -0.6670    0.2426    2.7698 H   0  0  0  0  0  0  0  0  0  0  0  0
    0.7825    1.8005    2.9433 C   0  0  0  0  0  0  0  0  0  0  0  0
    0.0732    2.5806    2.7173 H   0  0  0  0  0  0  0  0  0  0  0  0
    6.9647    1.3905    4.4577 C   0  0  0  0  0  0  0  0  0  0  0  0
    7.8943    0.8799    4.2039 H   0  0  0  0  0  0  0  0  0  0  0  0
    6.8924    2.3419    3.9132 H   0  0  0  0  0  0  0  0  0  0  0  0
    6.8178    1.5931    5.9362 C   0  0  2  0  0  3  0  0  0  0  0  0
    7.7103    1.0333    6.8398 C   0  0  0  0  0  0  0  0  0  0  0  0
    8.5897    0.5224    6.4801 H   0  0  0  0  0  0  0  0  0  0  0  0
    7.4584    1.1434    8.1966 C   0  0  0  0  0  0  0  0  0  0  0  0
    8.1413    0.7189    8.9155 H   0  0  0  0  0  0  0  0  0  0  0  0
    6.3109    1.8030    8.6061 C   0  0  0  0  0  0  0  0  0  0  0  0
    6.0650    1.9021    9.6503 H   0  0  0  0  0  0  0  0  0  0  0  0
    5.4814    2.3552    7.6470 C   0  0  0  0  0  0  0  0  0  0  0  0
    4.5936    2.9039    7.9338 H   0  0  0  0  0  0  0  0  0  0  0  0
    5.4639   -0.8665    5.3384 C   0  0  0  0  0  0  0  0  0  0  0  0
    4.4881   -0.7903    6.3255 C   0  0  0  0  0  0  0  0  0  0  0  0
    3.7012   -0.0511    6.2471 H   0  0  0  0  0  0  0  0  0  0  0  0
    4.5297   -1.6630    7.3979 C   0  0  0  0  0  0  0  0  0  0  0  0
    3.7717   -1.6092    8.1641 H   0  0  0  0  0  0  0  0  0  0  0  0
    5.5430   -2.6044    7.4848 C   0  0  0  0  0  0  0  0  0  0  0  0
    5.5726   -3.2860    8.3206 H   0  0  0  0  0  0  0  0  0  0  0  0
    6.5199   -2.6755    6.5030 C   0  0  0  0  0  0  0  0  0  0  0  0
    7.3079   -3.4092    6.5758 H   0  0  0  0  0  0  0  0  0  0  0  0
    6.4881   -1.8039    5.4302 C   0  0  0  0  0  0  0  0  0  0  0  0
    7.2492   -1.8475    4.6628 H   0  0  0  0  0  0  0  0  0  0  0  0
    5.7680   -0.3961    2.4028 C   0  0  0  0  0  0  0  0  0  0  0  0
    5.6337   -1.7609    2.1841 C   0  0  0  0  0  0  0  0  0  0  0  0
    5.3904   -2.4237    3.0027 H   0  0  0  0  0  0  0  0  0  0  0  0
    5.8157   -2.2637    0.9077 C   0  0  0  0  0  0  0  0  0  0  0  0
    5.7150   -3.3235    0.7309 H   0  0  0  0  0  0  0  0  0  0  0  0
    6.1229   -1.4107   -0.1403 C   0  0  0  0  0  0  0  0  0  0  0  0
    6.2646   -1.8095   -1.1328 H   0  0  0  0  0  0  0  0  0  0  0  0
    6.2437   -0.0463    0.0783 C   0  0  0  0  0  0  0  0  0  0  0  0
    6.4774    0.6152   -0.7416 H   0  0  0  0  0  0  0  0  0  0  0  0
    6.0624    0.4646    1.3493 C   0  0  0  0  0  0  0  0  0  0  0  0
    6.1404    1.5280    1.5360 H   0  0  0  0  0  0  0  0  0  0  0  0
    4.8298    6.1950    3.2791 C   0  0  0  0  0  0  0  0  0  0  0  0
    4.4906    6.9393    4.0008 H   0  0  0  0  0  0  0  0  0  0  0  0
    5.0893    6.6898    2.3442 H   0  0  0  0  0  0  0  0  0  0  0  0
    5.7070    5.6973    3.6914 H   0  0  0  0  0  0  0  0  0  0  0  0
  1  2  1  1  0  0  0
  1  6  1  0  0  0  0
  3 13  1  0  0  0  0
  3  8  1  0  0  0  0
  4 57  1  0  0  0  0
  4  8  1  0  0  0  0
  5  7  1  0  0  0  0
  5  1  1  0  0  0  0
  6 33  1  0  0  0  0
  7 23  1  0  0  0  0
  7 35  1  0  0  0  0
  8  1  2  0  0  0  0
  9 11  2  0  0  0  0
  9  3  1  0  0  0  0
 10  9  1  0  0  0  0
 11  4  1  0  0  0  0
 12 11  1  0  0  0  0
 13 14  1  0  0  0  0
 14  5  1  0  0  0  0
 15 14  2  0  0  0  0
 15 16  1  0  0  0  0
 17 15  1  0  0  0  0
 18 17  1  0  0  0  0
 19 17  2  0  0  0  0
 20 19  1  0  0  0  0
 21 19  1  0  0  0  0
 21 13  2  0  0  0  0
 22 21  1  0  0  0  0
 23 26  1  0  0  0  0
 24 23  1  0  0  0  0
 25 23  1  0  0  0  0
 26  6  1  0  0  0  0
 26 27  1  1  0  0  0
 27 29  2  0  0  0  0
 28 27  1  0  0  0  0
 29 31  1  0  0  0  0
 29 30  1  0  0  0  0
 31 32  1  0  0  0  0
 33 34  1  0  0  0  0
 33 31  2  0  0  0  0
 35 44  2  0  0  0  0
 35 36  1  0  0  0  0
 36 38  2  0  0  0  0
 37 36  1  0  0  0  0
 38 40  1  0  0  0  0
 38 39  1  0  0  0  0
 40 41  1  0  0  0  0
 42 43  1  0  0  0  0
 42 40  2  0  0  0  0
 44 42  1  0  0  0  0
 45 44  1  0  0  0  0
 46  7  1  0  0  0  0
 47 46  1  0  0  0  0
 47 48  1  0  0  0  0
 49 47  2  0  0  0  0
 50 49  1  0  0  0  0
 51 53  2  0  0  0  0
 51 49  1  0  0  0  0
 52 51  1  0  0  0  0
 53 55  1  0  0  0  0
 54 53  1  0  0  0  0
 55 56  1  0  0  0  0
 55 46  2  0  0  0  0
 57 60  1  0  0  0  0
 57 58  1  0  0  0  0
 59 57  1  0  0  0  0
M  END
$$$$
