CSD_code = WIDWAI | q = 1 | S = 0 | Stoichiometry = C16H27ClN3O3RuS3(1+) | MND = 6
 OpenBabel04212202113D

 54 56  0  0  1  0  0  0  0  0999 V2000
    6.2920   13.1583    3.5594 Ru  0  0  0  0  0  0  0  0  0  0  0  0
    5.6523   11.1358    4.5190 Cl  0  0  0  0  0  0  0  0  0  0  0  0
    8.3088   13.1389    4.5420 S   0  0  0  0  0  0  0  0  0  0  0  0
    7.0082   11.8573    1.7834 S   0  0  0  0  0  0  0  0  0  0  0  0
    3.2524   12.4681    3.6578 S   0  0  0  0  0  3  0  0  0  0  0  0
    9.3624   12.9906    3.5550 O   0  0  0  0  0  1  0  0  0  0  0  0
    7.4452   12.6521    0.6504 O   0  0  0  0  0  1  0  0  0  0  0  0
    4.2533   13.0423    2.6795 O   0  0  0  0  0  0  0  0  0  0  0  0
    6.6847   14.8998    2.5931 N   0  0  0  0  0  0  0  0  0  0  0  0
    4.6869   15.8409    3.4277 N   0  0  0  0  0  0  0  0  0  0  0  0
    5.3749   14.2430    5.0296 N   0  0  0  0  0  0  0  0  0  0  0  0
    5.7158   15.8127    2.4986 C   0  0  1  0  0  3  0  0  0  0  0  0
    5.7252   16.7969    1.5069 C   0  0  0  0  0  0  0  0  0  0  0  0
    6.7926   16.8602    0.6334 C   0  0  0  0  0  0  0  0  0  0  0  0
    7.8472   15.9750    0.8093 C   0  0  0  0  0  0  0  0  0  0  0  0
    7.7468   15.0110    1.7928 C   0  0  0  0  0  0  0  0  0  0  0  0
    4.5871   15.2695    4.6733 C   0  0  2  0  0  3  0  0  0  0  0  0
    3.6320   15.7938    5.5585 C   0  0  0  0  0  0  0  0  0  0  0  0
    3.5093   15.2646    6.8240 C   0  0  0  0  0  0  0  0  0  0  0  0
    4.3510   14.2197    7.1927 C   0  0  0  0  0  0  0  0  0  0  0  0
    5.2552   13.7462    6.2674 C   0  0  0  0  0  0  0  0  0  0  0  0
    8.6498   11.9079    5.8373 C   0  0  0  0  0  0  0  0  0  0  0  0
    8.7111   14.6416    5.4940 C   0  0  0  0  0  0  0  0  0  0  0  0
    8.2591   10.5762    2.0814 C   0  0  0  0  0  0  0  0  0  0  0  0
    5.7160   10.7591    1.1288 C   0  0  0  0  0  0  0  0  0  0  0  0
    2.7009   10.8870    2.9432 C   0  0  0  0  0  0  0  0  0  0  0  0
    1.7457   13.3983    3.1789 C   0  0  0  0  0  0  0  0  0  0  0  0
    4.9061   17.4956    1.4342 H   0  0  0  0  0  0  0  0  0  0  0  0
    6.8127   17.6004   -0.1505 H   0  0  0  0  0  0  0  0  0  0  0  0
    8.7225   16.0127    0.1843 H   0  0  0  0  0  0  0  0  0  0  0  0
    8.5493   14.3058    1.9575 H   0  0  0  0  0  0  0  0  0  0  0  0
    3.9991   16.5598    3.2436 H   0  0  0  0  0  0  0  0  0  0  0  0
    3.0095   16.6163    5.2416 H   0  0  0  0  0  0  0  0  0  0  0  0
    2.7810   15.6592    7.5138 H   0  0  0  0  0  0  0  0  0  0  0  0
    4.2991   13.7798    8.1737 H   0  0  0  0  0  0  0  0  0  0  0  0
    5.9024   12.9119    6.5044 H   0  0  0  0  0  0  0  0  0  0  0  0
    8.2076   12.2307    6.7715 H   0  0  0  0  0  0  0  0  0  0  0  0
    8.2168   10.9613    5.5297 H   0  0  0  0  0  0  0  0  0  0  0  0
    9.7269   11.8218    5.9210 H   0  0  0  0  0  0  0  0  0  0  0  0
    7.9846   14.7630    6.2897 H   0  0  0  0  0  0  0  0  0  0  0  0
    8.6688   15.4818    4.8079 H   0  0  0  0  0  0  0  0  0  0  0  0
    9.7153   14.5403    5.8899 H   0  0  0  0  0  0  0  0  0  0  0  0
    9.1724   11.0715    2.3927 H   0  0  0  0  0  0  0  0  0  0  0  0
    8.4208   10.0363    1.1561 H   0  0  0  0  0  0  0  0  0  0  0  0
    7.8858    9.9232    2.8623 H   0  0  0  0  0  0  0  0  0  0  0  0
    6.1048   10.2970    0.2288 H   0  0  0  0  0  0  0  0  0  0  0  0
    4.8613   11.3821    0.8880 H   0  0  0  0  0  0  0  0  0  0  0  0
    5.4695   10.0199    1.8812 H   0  0  0  0  0  0  0  0  0  0  0  0
    2.5709   10.9927    1.8722 H   0  0  0  0  0  0  0  0  0  0  0  0
    3.4551   10.1421    3.1712 H   0  0  0  0  0  0  0  0  0  0  0  0
    1.7679   10.6110    3.4208 H   0  0  0  0  0  0  0  0  0  0  0  0
    1.6414   13.3811    2.1004 H   0  0  0  0  0  0  0  0  0  0  0  0
    1.8604   14.4206    3.5220 H   0  0  0  0  0  0  0  0  0  0  0  0
    0.8841   12.9495    3.6575 H   0  0  0  0  0  0  0  0  0  0  0  0
  1  2  1  0  0  0  0
  1  3  1  0  0  0  0
  1 11  1  0  0  0  0
  3 23  1  0  0  0  0
  3 22  1  0  0  0  0
  4 24  1  0  0  0  0
  4  1  1  0  0  0  0
  6  3  1  0  0  0  0
  7  4  1  0  0  0  0
  8  1  1  0  0  0  0
  8  5  1  0  0  0  0
  9  1  1  0  0  0  0
 10 17  1  0  0  0  0
 11 21  1  0  0  0  0
 12 13  1  1  0  0  0
 12  9  1  0  0  0  0
 12 10  1  0  0  0  0
 14 15  1  0  0  0  0
 14 13  2  0  0  0  0
 15 16  2  0  0  0  0
 16 31  1  0  0  0  0
 16  9  1  0  0  0  0
 17 11  1  0  0  0  0
 17 18  1  6  0  0  0
 18 19  2  0  0  0  0
 19 20  1  0  0  0  0
 19 34  1  0  0  0  0
 20 35  1  0  0  0  0
 21 36  1  0  0  0  0
 21 20  2  0  0  0  0
 22 39  1  0  0  0  0
 22 37  1  0  0  0  0
 23 42  1  0  0  0  0
 23 40  1  0  0  0  0
 24 43  1  0  0  0  0
 24 45  1  0  0  0  0
 25  4  1  0  0  0  0
 25 48  1  0  0  0  0
 26 50  1  0  0  0  0
 26 51  1  0  0  0  0
 26  5  1  0  0  0  0
 27 53  1  0  0  0  0
 27 54  1  0  0  0  0
 27  5  1  0  0  0  0
 28 13  1  0  0  0  0
 29 14  1  0  0  0  0
 30 15  1  0  0  0  0
 32 10  1  0  0  0  0
 33 18  1  0  0  0  0
 38 22  1  0  0  0  0
 41 23  1  0  0  0  0
 44 24  1  0  0  0  0
 46 25  1  0  0  0  0
 47 25  1  0  0  0  0
 49 26  1  0  0  0  0
 52 27  1  0  0  0  0
M  END
$$$$
