CSD_code = WIGGIC | q = 0 | S = 0 | Stoichiometry = C24H16BrN2O3Re | MND = 6
 OpenBabel04212202113D

 47 52  0  0  1  0  0  0  0  0999 V2000
    2.5079    0.3328    2.2961 Re  0  0  0  0  0  0  0  0  0  0  0  0
    1.8902    2.4081    3.7162 Br  0  0  0  0  0  0  0  0  0  0  0  0
    4.4993    0.5193    3.2700 N   0  0  0  0  0  0  0  0  0  0  0  0
    3.6180    1.8256    1.0809 N   0  0  0  0  0  0  0  0  0  0  0  0
    1.5336   -0.6758    3.6520 C   0  0  0  0  0  2  0  0  0  0  0  0
    0.9255   -1.1624    4.4925 O   0  0  0  0  0  1  0  0  0  0  0  0
    3.0866   -1.2064    1.2732 C   0  0  0  0  0  2  0  0  0  0  0  0
    3.4350   -2.1217    0.6722 O   0  0  0  0  0  1  0  0  0  0  0  0
    0.8180    0.5431    1.3465 C   0  0  0  0  0  2  0  0  0  0  0  0
   -0.1820    0.7600    0.8318 O   0  0  0  0  0  1  0  0  0  0  0  0
    5.0846   -0.2990    4.1820 C   0  0  1  0  0  3  0  0  0  0  0  0
    4.4709   -1.5071    4.5719 C   0  0  0  0  0  0  0  0  0  0  0  0
    5.0335   -2.2992    5.5344 C   0  0  0  0  0  0  0  0  0  0  0  0
    6.2385   -1.9337    6.1522 C   0  0  0  0  0  0  0  0  0  0  0  0
    6.8818   -0.7909    5.7678 C   0  0  0  0  0  0  0  0  0  0  0  0
    6.3346    0.0388    4.7701 C   0  0  0  0  0  0  0  0  0  0  0  0
    7.0165    1.1648    4.2723 C   0  0  0  0  0  0  0  0  0  0  0  0
    6.4485    1.9432    3.3008 C   0  0  0  0  0  0  0  0  0  0  0  0
    5.1284    1.6247    2.8882 C   0  0  0  0  0  0  0  0  0  0  0  0
    7.2285    3.0249    2.6143 C   0  0  0  0  0  0  0  0  0  0  0  0
    6.8022    4.4355    3.0269 C   0  0  0  0  0  0  0  0  0  0  0  0
    5.2784    4.5723    3.0022 C   0  0  0  0  0  0  0  0  0  0  0  0
    4.6454    3.8697    1.8395 C   0  0  0  0  0  0  0  0  0  0  0  0
    4.0904    4.5480    0.7875 C   0  0  0  0  0  0  0  0  0  0  0  0
    3.3831    3.8528   -0.2143 C   0  0  0  0  0  0  0  0  0  0  0  0
    2.8576    4.4809   -1.3590 C   0  0  0  0  0  3  0  0  0  0  0  0
    2.1277    3.7681   -2.2700 C   0  0  0  0  0  0  0  0  0  0  0  0
    1.8995    2.3972   -2.0770 C   0  0  0  0  0  0  0  0  0  0  0  0
    2.3859    1.7577   -0.9702 C   0  0  0  0  0  0  0  0  0  0  0  0
    3.1308    2.4692   -0.0075 C   0  0  0  0  0  0  0  0  0  0  0  0
    4.4496    2.4665    1.8948 C   0  0  0  0  0  0  0  0  0  0  0  0
    3.5486   -1.8034    4.0930 H   0  0  0  0  0  0  0  0  0  0  0  0
    4.5445   -3.2164    5.8243 H   0  0  0  0  0  0  0  0  0  0  0  0
    6.6579   -2.5656    6.9201 H   0  0  0  0  0  0  0  0  0  0  0  0
    7.8232   -0.5053    6.2138 H   0  0  0  0  0  0  0  0  0  0  0  0
    8.0093    1.3840    4.6393 H   0  0  0  0  0  0  0  0  0  0  0  0
    7.0908    2.9193    1.5336 H   0  0  0  0  0  0  0  0  0  0  0  0
    8.2899    2.8889    2.8307 H   0  0  0  0  0  0  0  0  0  0  0  0
    7.2556    5.1515    2.3387 H   0  0  0  0  0  0  0  0  0  0  0  0
    7.1653    4.6575    4.0316 H   0  0  0  0  0  0  0  0  0  0  0  0
    5.0035    5.6274    2.9756 H   0  0  0  0  0  0  0  0  0  0  0  0
    4.8600    4.1449    3.9175 H   0  0  0  0  0  0  0  0  0  0  0  0
    4.1696    5.6239    0.7277 H   0  0  0  0  0  0  0  0  0  0  0  0
    3.0457    5.5351   -1.5006 H   0  0  0  0  0  0  0  0  0  0  0  0
    1.7256    4.2549   -3.1455 H   0  0  0  0  0  0  0  0  0  0  0  0
    1.3360    1.8439   -2.8125 H   0  0  0  0  0  0  0  0  0  0  0  0
    2.2307    0.6971   -0.8240 H   0  0  0  0  0  0  0  0  0  0  0  0
  1  3  1  0  0  0  0
  1  5  1  0  0  0  0
  1  2  1  0  0  0  0
  3 11  1  0  0  0  0
  4 31  1  0  0  0  0
  4  1  1  0  0  0  0
  5  6  1  0  0  0  0
  7  1  1  0  0  0  0
  8  7  1  0  0  0  0
  9  1  1  0  0  0  0
 10  9  1  0  0  0  0
 11 12  1  6  0  0  0
 11 16  1  0  0  0  0
 12 13  2  0  0  0  0
 13 33  1  0  0  0  0
 13 14  1  0  0  0  0
 14 34  1  0  0  0  0
 15 14  2  0  0  0  0
 15 35  1  0  0  0  0
 16 15  1  0  0  0  0
 17 36  1  0  0  0  0
 17 16  2  0  0  0  0
 18 17  1  0  0  0  0
 19  3  1  0  0  0  0
 19 18  2  0  0  0  0
 20 38  1  0  0  0  0
 20 21  1  0  0  0  0
 20 18  1  0  0  0  0
 21 40  1  0  0  0  0
 22 21  1  0  0  0  0
 22 42  1  0  0  0  0
 23 31  2  0  0  0  0
 23 22  1  0  0  0  0
 24 23  1  0  0  0  0
 25 30  1  0  0  0  0
 25 24  2  0  0  0  0
 26 25  1  0  0  0  0
 27 28  2  0  0  0  0
 27 26  1  0  0  0  0
 28 29  1  0  0  0  0
 29 47  1  0  0  0  0
 29 30  2  0  0  0  0
 30  4  1  0  0  0  0
 31 19  1  0  0  0  0
 32 12  1  0  0  0  0
 37 20  1  0  0  0  0
 39 21  1  0  0  0  0
 41 22  1  0  0  0  0
 43 24  1  0  0  0  0
 44 26  1  0  0  0  0
 45 27  1  0  0  0  0
 46 28  1  0  0  0  0
M  END
$$$$
