CSD_code = WIHKUU | q = 0 | S = 0 | Stoichiometry = C16H12Br2N4Zn | MND = 4
 OpenBabel04212202113D

 35 38  0  0  1  0  0  0  0  0999 V2000
    4.8649    7.1145    9.2149 Zn  0  0  0  0  0  0  0  0  0  0  0  0
    5.1262    4.7866    8.8687 Br  0  0  0  0  0  0  0  0  0  0  0  0
    6.2800    8.9773    9.5820 Br  0  0  0  0  0  0  0  0  0  0  0  0
    3.8073    7.7333    7.3768 N   0  0  0  0  0  0  0  0  0  0  0  0
    4.4392    8.5178    6.5342 C   0  0  0  0  0  0  0  0  0  0  0  0
    5.3075    9.0499    6.8990 H   0  0  0  0  0  0  0  0  0  0  0  0
    4.0094    8.6673    5.2015 C   0  0  0  0  0  0  0  0  0  0  0  0
    4.5403    9.3203    4.5236 H   0  0  0  0  0  0  0  0  0  0  0  0
    2.9788    8.0269    4.7256 N   0  0  0  0  0  0  0  0  0  0  0  0
    2.3059    7.2196    5.5657 C   0  0  0  0  0  0  0  0  0  0  0  0
    1.1845    6.5052    5.0984 C   0  0  0  0  0  3  0  0  0  0  0  0
    0.9064    6.6254    4.0637 H   0  0  0  0  0  0  0  0  0  0  0  0
    0.4920    5.6920    5.9509 C   0  0  0  0  0  0  0  0  0  0  0  0
   -0.3632    5.1368    5.5970 H   0  0  0  0  0  0  0  0  0  0  0  0
    0.8781    5.5692    7.2969 C   0  0  0  0  0  0  0  0  0  0  0  0
    0.3116    4.9256    7.9522 H   0  0  0  0  0  0  0  0  0  0  0  0
    1.9611    6.2490    7.7819 C   0  0  0  0  0  0  0  0  0  0  0  0
    2.2577    6.1572    8.8161 H   0  0  0  0  0  0  0  0  0  0  0  0
    2.7099    7.0751    6.9264 C   0  0  0  0  0  0  0  0  0  0  0  0
    3.5944    7.1411   11.0225 N   0  0  0  0  0  0  0  0  0  0  0  0
    3.7065    6.1454   11.8716 C   0  0  0  0  0  0  0  0  0  0  0  0
    4.1773    5.2370   11.5202 H   0  0  0  0  0  0  0  0  0  0  0  0
    3.2347    6.2475   13.1945 C   0  0  0  0  0  0  0  0  0  0  0  0
    3.3321    5.4158   13.8776 H   0  0  0  0  0  0  0  0  0  0  0  0
    2.6818    7.3341   13.6552 N   0  0  0  0  0  0  0  0  0  0  0  0
    2.5463    8.3705   12.8080 C   0  0  0  0  0  0  0  0  0  0  0  0
    1.9549    9.5677   13.2589 C   0  0  0  0  0  0  0  0  0  0  0  0
    1.6359    9.6152   14.2878 H   0  0  0  0  0  0  0  0  0  0  0  0
    1.8051   10.6189   12.3987 C   0  0  0  0  0  0  0  0  0  0  0  0
    1.3597   11.5408   12.7402 H   0  0  0  0  0  0  0  0  0  0  0  0
    2.2226   10.5154   11.0605 C   0  0  0  0  0  0  0  0  0  0  0  0
    2.0871   11.3568   10.3984 H   0  0  0  0  0  0  0  0  0  0  0  0
    2.8000    9.3679   10.5914 C   0  0  0  0  0  0  0  0  0  0  0  0
    3.1192    9.2862    9.5631 H   0  0  0  0  0  0  0  0  0  0  0  0
    2.9921    8.2768   11.4560 C   0  0  1  0  0  3  0  0  0  0  0  0
  1  3  1  0  0  0  0
  1 20  1  0  0  0  0
  2  1  1  0  0  0  0
  4  1  1  0  0  0  0
  5  6  1  0  0  0  0
  5  4  1  0  0  0  0
  7  5  2  0  0  0  0
  8  7  1  0  0  0  0
  9  7  1  0  0  0  0
  9 10  2  0  0  0  0
 10 19  1  0  0  0  0
 11 10  1  0  0  0  0
 11 13  1  0  0  0  0
 12 11  1  0  0  0  0
 13 15  2  0  0  0  0
 14 13  1  0  0  0  0
 15 17  1  0  0  0  0
 15 16  1  0  0  0  0
 17 18  1  0  0  0  0
 19  4  1  0  0  0  0
 19 17  2  0  0  0  0
 20 35  1  0  0  0  0
 20 21  1  0  0  0  0
 21 23  2  0  0  0  0
 22 21  1  0  0  0  0
 23 25  1  0  0  0  0
 23 24  1  0  0  0  0
 26 27  1  0  0  0  0
 26 25  2  0  0  0  0
 27 28  1  0  0  0  0
 29 30  1  0  0  0  0
 29 27  2  0  0  0  0
 31 29  1  0  0  0  0
 32 31  1  0  0  0  0
 33 31  2  0  0  0  0
 34 33  1  0  0  0  0
 35 33  1  1  0  0  0
 35 26  1  0  0  0  0
M  END
$$$$
