CSD_code = WIHLAB | q = 0 | S = 0 | Stoichiometry = C14H16HgI2N8S2 | MND = 4
 OpenBabel04212202113D

 43 42  0  0  0  0  0  0  0  0999 V2000
   17.9807    8.9516    4.2521 Hg  0  0  0  0  0  0  0  0  0  0  0  0
   15.1530    4.6653    4.7365 N   0  0  0  0  0  0  0  0  0  0  0  0
   14.8000    4.4831    3.7955 H   0  0  0  0  0  0  0  0  0  0  0  0
   14.8572    3.8545    5.7611 N   0  0  0  0  0  0  0  0  0  0  0  0
   16.3700    6.0028    6.1404 N   0  0  0  0  0  0  0  0  0  0  0  0
   16.0850    5.3783    6.8797 H   0  0  0  0  0  0  0  0  0  0  0  0
   16.9233    6.8194    6.3561 H   0  0  0  0  0  0  0  0  0  0  0  0
   13.0326    0.8750    6.2667 N   0  0  0  0  0  0  0  0  0  0  0  0
   12.6764    0.0057    7.1896 C   0  0  0  0  0  0  0  0  0  0  0  0
   12.0686   -0.8190    6.8410 H   0  0  0  0  0  0  0  0  0  0  0  0
   13.0409    0.1146    8.5257 C   0  0  0  0  0  0  0  0  0  0  0  0
   12.7222   -0.6242    9.2439 H   0  0  0  0  0  0  0  0  0  0  0  0
   13.8220    1.1961    8.9066 C   0  0  0  0  0  0  0  0  0  0  0  0
   14.1276    1.3189    9.9354 H   0  0  0  0  0  0  0  0  0  0  0  0
   14.2028    2.1154    7.9470 C   0  0  0  0  0  0  0  0  0  0  0  0
   14.8079    2.9733    8.1900 H   0  0  0  0  0  0  0  0  0  0  0  0
   13.7827    1.9167    6.6286 C   0  0  0  0  0  0  0  0  0  0  0  0
   14.1300    2.8277    5.5569 C   0  0  0  0  0  0  0  0  0  0  0  0
   13.7317    2.5768    4.5712 H   0  0  0  0  0  0  0  0  0  0  0  0
   15.9236    5.7659    4.9156 C   0  0  0  0  0  0  0  0  0  0  0  0
   16.2348    6.6928    3.5613 S   0  0  0  0  0  0  0  0  0  0  0  0
   18.8486    9.6672    1.8593 I   0  0  0  0  0  0  0  0  0  0  0  0
   20.8104    4.6689    3.7590 N   0  0  0  0  0  0  0  0  0  0  0  0
   21.1629    4.4857    4.7001 H   0  0  0  0  0  0  0  0  0  0  0  0
   21.1053    3.8578    2.7344 N   0  0  0  0  0  0  0  0  0  0  0  0
   19.5955    6.0099    2.3563 N   0  0  0  0  0  0  0  0  0  0  0  0
   19.8787    5.3854    1.6164 H   0  0  0  0  0  0  0  0  0  0  0  0
   19.0430    6.8273    2.1418 H   0  0  0  0  0  0  0  0  0  0  0  0
   22.9275    0.8759    2.2334 N   0  0  0  0  0  0  0  0  0  0  0  0
   23.2837    0.0048    1.3122 C   0  0  0  0  0  0  0  0  0  0  0  0
   23.8909   -0.8196    1.6625 H   0  0  0  0  0  0  0  0  0  0  0  0
   22.9206    0.1121   -0.0245 C   0  0  0  0  0  0  0  0  0  0  0  0
   23.2396   -0.6279   -0.7413 H   0  0  0  0  0  0  0  0  0  0  0  0
   22.1407    1.1937   -0.4076 C   0  0  0  0  0  0  0  0  0  0  0  0
   21.8362    1.3152   -1.4369 H   0  0  0  0  0  0  0  0  0  0  0  0
   21.7598    2.1148    0.5502 C   0  0  0  0  0  0  0  0  0  0  0  0
   21.1555    2.9727    0.3054 H   0  0  0  0  0  0  0  0  0  0  0  0
   22.1786    1.9178    1.8693 C   0  0  0  0  0  0  0  0  0  0  0  0
   21.8312    2.8302    2.9396 C   0  0  0  0  0  0  0  0  0  0  0  0
   22.2285    2.5796    3.9258 H   0  0  0  0  0  0  0  0  0  0  0  0
   20.0414    5.7707    3.5809 C   0  0  0  0  0  0  0  0  0  0  0  0
   19.7318    6.6964    4.9364 S   0  0  0  0  0  0  0  0  0  0  0  0
   17.1112    9.6588    6.6467 I   0  0  0  0  0  0  0  0  0  0  0  0
  1 43  1  0  0  0  0
  2 20  1  0  0  0  0
  2  4  1  0  0  0  0
  3  2  1  0  0  0  0
  5  7  1  0  0  0  0
  5  6  1  0  0  0  0
  8 17  2  0  0  0  0
  8  9  1  0  0  0  0
  9 11  2  0  0  0  0
 10  9  1  0  0  0  0
 11 13  1  0  0  0  0
 11 12  1  0  0  0  0
 13 14  1  0  0  0  0
 15 16  1  0  0  0  0
 15 13  2  0  0  0  0
 17 15  1  0  0  0  0
 18  4  2  0  0  0  0
 18 17  1  0  0  0  0
 19 18  1  0  0  0  0
 20  5  1  0  0  0  0
 21 20  2  0  0  0  0
 22  1  1  0  0  0  0
 23 24  1  0  0  0  0
 25 39  2  0  0  0  0
 25 23  1  0  0  0  0
 26 41  1  0  0  0  0
 27 26  1  0  0  0  0
 28 26  1  0  0  0  0
 30 31  1  0  0  0  0
 30 29  2  0  0  0  0
 32 30  1  0  0  0  0
 33 32  1  0  0  0  0
 34 32  2  0  0  0  0
 34 36  1  0  0  0  0
 35 34  1  0  0  0  0
 36 38  2  0  0  0  0
 37 36  1  0  0  0  0
 38 29  1  0  0  0  0
 38 39  1  0  0  0  0
 39 40  1  0  0  0  0
 41 23  1  0  0  0  0
 41 42  2  0  0  0  0
M  END
$$$$
