CSD_code = WIHMOR | q = 0 | S = 0 | Stoichiometry = C17H19ClN4Pt | MND = 4
 OpenBabel04212202113D

 42 46  0  0  1  0  0  0  0  0999 V2000
    2.0897    1.9908    6.5257 Pt  0  0  1  0  0  0  0  0  0  0  0  0
    3.9192    1.9541    5.8650 C   0  0  0  0  0  0  0  0  0  0  0  0
    4.7201    0.8518    6.1405 C   0  0  0  0  0  0  0  0  0  0  0  0
    6.0259    0.8259    5.6793 C   0  0  0  0  0  0  0  0  0  0  0  0
    6.6908   -0.0013    5.8655 H   0  0  0  0  0  0  0  0  0  0  0  0
    6.5088    1.9099    4.9453 C   0  0  0  0  0  0  0  0  0  0  0  0
    5.7066    3.0135    4.6674 C   0  0  0  0  0  0  0  0  0  0  0  0
    6.1260    3.8253    4.0965 H   0  0  0  0  0  0  0  0  0  0  0  0
    4.4001    3.0321    5.1335 C   0  0  0  0  0  0  0  0  0  0  0  0
    3.3945    5.2436    4.3494 C   0  0  0  0  0  0  0  0  0  0  0  0
    2.1482    5.7531    4.5432 C   0  0  0  0  0  0  0  0  0  0  0  0
    1.7282    6.6811    4.2121 H   0  0  0  0  0  0  0  0  0  0  0  0
    2.1847    3.7811    5.5628 C   0  0  1  0  0  3  0  0  0  0  0  0
    2.7121    0.1840    7.2252 C   0  0  0  0  0  0  0  0  0  0  0  0
    3.2561   -1.8104    8.0353 C   0  0  0  0  0  0  0  0  0  0  0  0
    3.1068   -2.7333    8.5580 H   0  0  0  0  0  0  0  0  0  0  0  0
    4.3591   -1.3443    7.3900 C   0  0  0  0  0  0  0  0  0  0  0  0
    7.9294    1.8741    4.4593 C   0  0  0  0  0  0  0  0  0  0  0  0
    8.1490    2.7312    3.8282 H   0  0  0  0  0  0  0  0  0  0  0  0
    8.1162    0.9663    3.8874 H   0  0  0  0  0  0  0  0  0  0  0  0
    8.6192    1.8837    5.3031 H   0  0  0  0  0  0  0  0  0  0  0  0
    0.0661    5.0446    5.6861 C   0  0  0  0  0  0  0  0  0  0  0  0
   -0.5733    5.1614    4.8097 H   0  0  0  0  0  0  0  0  0  0  0  0
   -0.0184    5.9360    6.3096 H   0  0  0  0  0  0  0  0  0  0  0  0
   -0.2593    4.1734    6.2568 H   0  0  0  0  0  0  0  0  0  0  0  0
    4.5289    5.8529    3.6083 C   0  0  0  0  0  0  0  0  0  0  0  0
    5.3856    6.0032    4.2644 H   0  0  0  0  0  0  0  0  0  0  0  0
    4.2198    6.8183    3.2157 H   0  0  0  0  0  0  0  0  0  0  0  0
    4.8325    5.2202    2.7749 H   0  0  0  0  0  0  0  0  0  0  0  0
    0.9537   -1.0095    8.4836 C   0  0  0  0  0  0  0  0  0  0  0  0
    0.3749   -0.1136    8.2538 H   0  0  0  0  0  0  0  0  0  0  0  0
    1.0170   -1.1308    9.5660 H   0  0  0  0  0  0  0  0  0  0  0  0
    0.4542   -1.8805    8.0565 H   0  0  0  0  0  0  0  0  0  0  0  0
    5.6795   -2.0073    7.2342 C   0  0  0  0  0  0  0  0  0  0  0  0
    5.9155   -2.1591    6.1816 H   0  0  0  0  0  0  0  0  0  0  0  0
    5.6515   -2.9760    7.7265 H   0  0  0  0  0  0  0  0  0  0  0  0
    6.4699   -1.4101    7.6876 H   0  0  0  0  0  0  0  0  0  0  0  0
   -0.0983    2.0376    7.3218 Cl  0  0  0  0  0  0  0  0  0  0  0  0
    3.4068    4.0258    4.9831 N   0  0  0  0  0  0  0  0  0  0  0  0
    1.4310    4.8501    5.2816 N   0  0  0  0  0  0  0  0  0  0  0  0
    4.0129   -0.1119    6.8938 N   0  0  0  0  0  0  0  0  0  0  0  0
    2.2692   -0.8679    7.9233 N   0  0  0  0  0  0  0  0  0  0  0  0
  1 14  2  0  0  0  0
  1 38  1  1  0  0  0
  2  3  1  0  0  0  0
  2  1  1  0  0  0  0
  3 41  1  0  0  0  0
  4  5  1  0  0  0  0
  4  3  2  0  0  0  0
  6  4  1  0  0  0  0
  7  6  2  0  0  0  0
  7  9  1  0  0  0  0
  8  7  1  0  0  0  0
  9  2  2  0  0  0  0
 10 11  2  0  0  0  0
 10 39  1  0  0  0  0
 11 40  1  0  0  0  0
 12 11  1  0  0  0  0
 13 39  1  6  0  0  0
 13  1  1  0  0  0  0
 14 42  1  0  0  0  0
 15 16  1  0  0  0  0
 17 15  2  0  0  0  0
 18  6  1  0  0  0  0
 18 21  1  0  0  0  0
 19 18  1  0  0  0  0
 20 18  1  0  0  0  0
 22 25  1  0  0  0  0
 22 24  1  0  0  0  0
 23 22  1  0  0  0  0
 26 27  1  0  0  0  0
 26 10  1  0  0  0  0
 28 26  1  0  0  0  0
 29 26  1  0  0  0  0
 30 32  1  0  0  0  0
 31 30  1  0  0  0  0
 33 30  1  0  0  0  0
 34 17  1  0  0  0  0
 34 37  1  0  0  0  0
 34 36  1  0  0  0  0
 35 34  1  0  0  0  0
 39  9  1  0  0  0  0
 40 13  1  0  0  0  0
 40 22  1  0  0  0  0
 41 14  1  0  0  0  0
 41 17  1  0  0  0  0
 42 15  1  0  0  0  0
 42 30  1  0  0  0  0
M  END
$$$$
