CSD_code = WIHMEF | q = 0 | S = 0 | Stoichiometry = C17H20Cl2Ti | MND = 12
 OpenBabel04212202113D

 40 43  0  0  1  0  0  0  0  0999 V2000
    2.2685    2.1753    0.0289 Ti  0  0  0  0  0  0  0  0  0  0  0  0
    2.0289    0.6103    1.5693 Cl  0  0  0  0  0  0  0  0  0  0  0  0
    4.0164    3.0253    1.0583 Cl  0  0  0  0  0  0  0  0  0  0  0  0
    2.0780    2.1185   -2.2303 C   0  0  2  0  0  0  0  0  0  0  0  0
    1.7447    0.8300   -1.7271 C   0  0  0  0  0  3  0  0  0  0  0  0
    2.9327    0.2395   -1.2445 C   0  0  0  0  0  0  0  0  0  0  0  0
    3.9846    1.1594   -1.4072 C   0  0  0  0  0  0  0  0  0  0  0  0
    3.4637    2.3267   -2.0181 C   0  0  1  0  0  3  0  0  0  0  0  0
    4.2081    3.4448   -2.6976 C   0  0  0  0  0  0  0  0  0  0  0  0
    3.3173    4.6977   -2.7130 C   0  0  0  0  0  0  0  0  0  0  0  0
    1.8662    4.4495   -3.1450 C   0  0  0  0  0  0  0  0  0  0  0  0
    1.1304    3.2770   -2.4662 C   0  0  2  0  0  0  0  0  0  0  0  0
    0.7717    3.5221   -1.0044 C   0  0  1  0  0  0  0  0  0  0  0  0
   -0.0097    2.6101   -0.2371 C   0  0  0  0  0  3  0  0  0  0  0  0
    0.1564    2.9111    1.1268 C   0  0  0  0  0  0  0  0  0  0  0  0
    1.0735    3.9651    1.2305 C   0  0  0  0  0  0  0  0  0  0  0  0
    1.4638    4.3405   -0.0769 C   0  0  0  0  0  3  0  0  0  0  0  0
   -0.0951    2.9054   -3.3069 C   0  0  0  0  0  0  0  0  0  0  0  0
    4.5010    2.9776   -4.1348 C   0  0  0  0  0  0  0  0  0  0  0  0
    5.5295    3.7724   -1.9988 C   0  0  0  0  0  0  0  0  0  0  0  0
    0.7993    0.3139   -1.8343 H   0  0  0  0  0  0  0  0  0  0  0  0
    3.0314   -0.7761   -0.8837 H   0  0  0  0  0  0  0  0  0  0  0  0
    5.0249    0.9693   -1.1808 H   0  0  0  0  0  0  0  0  0  0  0  0
    3.7480    5.4280   -3.4029 H   0  0  0  0  0  0  0  0  0  0  0  0
    3.3586    5.1377   -1.7171 H   0  0  0  0  0  0  0  0  0  0  0  0
    1.2892    5.3630   -2.9797 H   0  0  0  0  0  0  0  0  0  0  0  0
    1.8618    4.2564   -4.2203 H   0  0  0  0  0  0  0  0  0  0  0  0
   -0.7345    1.9038   -0.6184 H   0  0  0  0  0  0  0  0  0  0  0  0
   -0.3710    2.4421    1.9456 H   0  0  0  0  0  0  0  0  0  0  0  0
    1.3741    4.4651    2.1422 H   0  0  0  0  0  0  0  0  0  0  0  0
    2.0479    5.2232   -0.2888 H   0  0  0  0  0  0  0  0  0  0  0  0
   -0.7662    3.7584   -3.3821 H   0  0  0  0  0  0  0  0  0  0  0  0
   -0.6433    2.0756   -2.8704 H   0  0  0  0  0  0  0  0  0  0  0  0
    0.2131    2.6152   -4.3093 H   0  0  0  0  0  0  0  0  0  0  0  0
    5.0249    3.7577   -4.6827 H   0  0  0  0  0  0  0  0  0  0  0  0
    3.5805    2.7358   -4.6598 H   0  0  0  0  0  0  0  0  0  0  0  0
    5.1244    2.0867   -4.1191 H   0  0  0  0  0  0  0  0  0  0  0  0
    5.9855    4.6480   -2.4560 H   0  0  0  0  0  0  0  0  0  0  0  0
    6.2258    2.9424   -2.0870 H   0  0  0  0  0  0  0  0  0  0  0  0
    5.3625    3.9728   -0.9423 H   0  0  0  0  0  0  0  0  0  0  0  0
  1  3  1  0  0  0  0
  1  2  1  0  0  0  0
  4  8  1  0  0  0  0
  4  5  1  6  0  0  0
  4  1  1  0  0  0  0
  5  6  1  0  0  0  0
  6 22  1  0  0  0  0
  7  6  2  0  0  0  0
  7 23  1  0  0  0  0
  8  7  1  6  0  0  0
  9  8  1  0  0  0  0
  9 20  1  0  0  0  0
 10  9  1  0  0  0  0
 10 25  1  0  0  0  0
 11 26  1  0  0  0  0
 11 10  1  0  0  0  0
 11 12  1  0  0  0  0
 12 18  1  6  0  0  0
 12  4  1  0  0  0  0
 12 13  1  0  0  0  0
 13 14  1  1  0  0  0
 13 17  1  0  0  0  0
 13  1  1  0  0  0  0
 14 15  1  0  0  0  0
 15 16  2  0  0  0  0
 15 29  1  0  0  0  0
 16 30  1  0  0  0  0
 17 16  1  0  0  0  0
 18 33  1  0  0  0  0
 19 37  1  0  0  0  0
 19  9  1  0  0  0  0
 20 40  1  0  0  0  0
 21  5  1  0  0  0  0
 24 10  1  0  0  0  0
 27 11  1  0  0  0  0
 28 14  1  0  0  0  0
 31 17  1  0  0  0  0
 32 18  1  0  0  0  0
 34 18  1  0  0  0  0
 35 19  1  0  0  0  0
 36 19  1  0  0  0  0
 38 20  1  0  0  0  0
 39 20  1  0  0  0  0
M  END
$$$$
