CSD_code = WIHTUF | q = 0 | S = 0 | Stoichiometry = C24H28CdCl2N4 | MND = 4
 OpenBabel04212202113D

 59 64  0  0  1  0  0  0  0  0999 V2000
    9.8374    2.3709    0.9454 Cd  0  0  0  0  0  0  0  0  0  0  0  0
    9.3655    0.3911    2.0555 Cl  0  0  0  0  0  0  0  0  0  0  0  0
   10.3967    2.3670   -1.3555 Cl  0  0  0  0  0  0  0  0  0  0  0  0
   12.4214    5.4388    2.9308 N   0  0  0  0  0  0  0  0  0  0  0  0
   11.3461    3.7901    1.9119 N   0  0  0  0  0  0  0  0  0  0  0  0
    9.8495    5.5944   -0.3140 C   0  0  0  0  0  0  0  0  0  0  0  0
    9.9434    6.1375   -1.2509 H   0  0  0  0  0  0  0  0  0  0  0  0
   10.7127    4.9257   -0.2420 H   0  0  0  0  0  0  0  0  0  0  0  0
    7.8701    4.6221   -1.5031 N   0  0  0  0  0  0  0  0  0  0  0  0
    8.1995    3.9752    0.5999 N   0  0  0  0  0  0  0  0  0  0  0  0
   13.3099    4.3881    2.8450 C   0  0  0  0  0  0  0  0  0  0  0  0
   10.0283    5.8465    2.2132 C   0  0  0  0  0  0  0  0  0  0  0  0
    9.9815    6.5788    3.0216 H   0  0  0  0  0  0  0  0  0  0  0  0
    9.1767    5.1687    2.3087 H   0  0  0  0  0  0  0  0  0  0  0  0
    8.6350    4.7343   -0.3863 C   0  0  1  0  0  3  0  0  0  0  0  0
    8.5798    7.4078    0.9296 C   0  0  0  0  0  0  0  0  0  0  0  0
    7.7306    6.7236    0.9773 H   0  0  0  0  0  0  0  0  0  0  0  0
    8.5816    7.9962    1.8508 H   0  0  0  0  0  0  0  0  0  0  0  0
    9.8829    6.5945    0.8601 C   0  0  0  0  0  0  0  0  0  0  0  0
   11.2613    5.0275    2.3463 C   0  0  1  0  0  3  0  0  0  0  0  0
   13.2212    2.1229    1.9495 C   0  0  0  0  0  0  0  0  0  0  0  0
   12.6777    1.3275    1.4538 H   0  0  0  0  0  0  0  0  0  0  0  0
    7.0942    3.3093    0.1119 C   0  0  0  0  0  0  0  0  0  0  0  0
   12.6133    3.3490    2.1982 C   0  0  0  0  0  0  0  0  0  0  0  0
   14.5282    1.9760    2.3628 C   0  0  0  0  0  0  0  0  0  0  0  0
   15.0382    1.0407    2.1909 H   0  0  0  0  0  0  0  0  0  0  0  0
   14.6257    4.2325    3.2559 C   0  0  0  0  0  0  0  0  0  0  0  0
   15.1678    5.0261    3.7468 H   0  0  0  0  0  0  0  0  0  0  0  0
    6.8774    3.7088   -1.2224 C   0  0  0  0  0  0  0  0  0  0  0  0
    8.4109    8.3673   -0.2452 C   0  0  0  0  0  0  0  0  0  0  0  0
    8.3189    7.8098   -1.1777 H   0  0  0  0  0  0  0  0  0  0  0  0
    7.4881    8.9355   -0.1122 H   0  0  0  0  0  0  0  0  0  0  0  0
   12.7265    6.6852    3.5762 C   0  0  0  0  0  0  0  0  0  0  0  0
   13.2837    6.4852    4.4923 H   0  0  0  0  0  0  0  0  0  0  0  0
   11.8117    7.2140    3.8335 H   0  0  0  0  0  0  0  0  0  0  0  0
   13.3353    7.3195    2.9273 H   0  0  0  0  0  0  0  0  0  0  0  0
    8.1769    5.1318   -2.8113 C   0  0  0  0  0  0  0  0  0  0  0  0
    8.2465    6.2213   -2.8053 H   0  0  0  0  0  0  0  0  0  0  0  0
    7.3839    4.8395   -3.4953 H   0  0  0  0  0  0  0  0  0  0  0  0
    9.1193    4.7033   -3.1603 H   0  0  0  0  0  0  0  0  0  0  0  0
    5.0139    2.2653   -1.3459 C   0  0  0  0  0  0  0  0  0  0  0  0
    4.1918    1.8342   -1.8972 H   0  0  0  0  0  0  0  0  0  0  0  0
    5.8289    3.1898   -1.9675 C   0  0  0  0  0  0  0  0  0  0  0  0
    5.6544    3.4814   -2.9921 H   0  0  0  0  0  0  0  0  0  0  0  0
   11.0703    7.5554    0.6800 C   0  0  0  0  0  0  0  0  0  0  0  0
   11.1799    8.1428    1.5945 H   0  0  0  0  0  0  0  0  0  0  0  0
   11.9856    6.9782    0.5325 H   0  0  0  0  0  0  0  0  0  0  0  0
   10.8964    8.5347   -0.4801 C   0  0  0  0  0  0  0  0  0  0  0  0
   11.7448    9.2223   -0.4921 H   0  0  0  0  0  0  0  0  0  0  0  0
   10.8997    8.0037   -1.4329 H   0  0  0  0  0  0  0  0  0  0  0  0
    6.2663    2.3743    0.7254 C   0  0  0  0  0  0  0  0  0  0  0  0
    6.4462    2.0611    1.7441 H   0  0  0  0  0  0  0  0  0  0  0  0
   15.2165    3.0109    3.0025 C   0  0  0  0  0  0  0  0  0  0  0  0
   16.2397    2.8487    3.3057 H   0  0  0  0  0  0  0  0  0  0  0  0
    5.2293    1.8624   -0.0261 C   0  0  0  0  0  0  0  0  0  0  0  0
    4.5701    1.1272    0.4096 H   0  0  0  0  0  0  0  0  0  0  0  0
    9.5978    9.3200   -0.3341 C   0  0  0  0  0  0  0  0  0  0  0  0
    9.6410    9.9280    0.5726 H   0  0  0  0  0  0  0  0  0  0  0  0
    9.4737    9.9956   -1.1823 H   0  0  0  0  0  0  0  0  0  0  0  0
  1  5  1  0  0  0  0
  1  2  1  0  0  0  0
  3  1  1  0  0  0  0
  4 33  1  0  0  0  0
  5 24  1  0  0  0  0
  6  8  1  0  0  0  0
  6 19  1  0  0  0  0
  7  6  1  0  0  0  0
  9 29  1  0  0  0  0
 10  1  1  0  0  0  0
 11  4  1  0  0  0  0
 11 27  1  0  0  0  0
 12 14  1  0  0  0  0
 12 20  1  0  0  0  0
 12 13  1  0  0  0  0
 15  9  1  6  0  0  0
 15  6  1  0  0  0  0
 15 10  1  0  0  0  0
 16 17  1  0  0  0  0
 16 18  1  0  0  0  0
 19 16  1  0  0  0  0
 19 12  1  0  0  0  0
 20  5  1  1  0  0  0
 20  4  1  0  0  0  0
 21 24  1  0  0  0  0
 21 25  2  0  0  0  0
 22 21  1  0  0  0  0
 23 10  1  0  0  0  0
 23 51  1  0  0  0  0
 24 11  2  0  0  0  0
 25 53  1  0  0  0  0
 26 25  1  0  0  0  0
 27 28  1  0  0  0  0
 29 23  2  0  0  0  0
 30 32  1  0  0  0  0
 30 16  1  0  0  0  0
 31 30  1  0  0  0  0
 33 35  1  0  0  0  0
 33 34  1  0  0  0  0
 36 33  1  0  0  0  0
 37 38  1  0  0  0  0
 37  9  1  0  0  0  0
 39 37  1  0  0  0  0
 40 37  1  0  0  0  0
 41 55  1  0  0  0  0
 42 41  1  0  0  0  0
 43 41  2  0  0  0  0
 43 29  1  0  0  0  0
 44 43  1  0  0  0  0
 45 19  1  0  0  0  0
 45 46  1  0  0  0  0
 47 45  1  0  0  0  0
 48 57  1  0  0  0  0
 48 45  1  0  0  0  0
 49 48  1  0  0  0  0
 50 48  1  0  0  0  0
 51 52  1  0  0  0  0
 53 27  2  0  0  0  0
 53 54  1  0  0  0  0
 55 56  1  0  0  0  0
 55 51  2  0  0  0  0
 57 30  1  0  0  0  0
 57 58  1  0  0  0  0
 59 57  1  0  0  0  0
M  END
$$$$
