CSD_code = WIHTOZ | q = 0 | S = 0 | Stoichiometry = C22H24CdCl2N4 | MND = 4
 OpenBabel04212202113D

 53 58  0  0  1  0  0  0  0  0999 V2000
   10.9688    7.5672    0.8085 Cd  0  0  0  0  0  0  0  0  0  0  0  0
   10.9769    9.6039   -0.3086 Cl  0  0  0  0  0  0  0  0  0  0  0  0
   10.3589    7.4140    3.0855 Cl  0  0  0  0  0  0  0  0  0  0  0  0
    8.3130    4.1727    0.1557 N   0  0  0  0  0  0  0  0  0  0  0  0
    7.8642    3.3566    0.5373 H   0  0  0  0  0  0  0  0  0  0  0  0
    9.7477    5.8405   -0.0477 N   0  0  0  0  0  0  0  0  0  0  0  0
   13.1241    5.1724    1.3780 C   0  0  1  0  0  3  0  0  0  0  0  0
   12.4370    4.0723    0.6486 C   0  0  0  0  0  0  0  0  0  0  0  0
   13.1967    3.3677    0.3053 H   0  0  0  0  0  0  0  0  0  0  0  0
   11.9627    4.5171   -0.2292 H   0  0  0  0  0  0  0  0  0  0  0  0
   10.1882    4.2438    1.8071 C   0  0  0  0  0  0  0  0  0  0  0  0
    9.4894    3.7006    2.4473 H   0  0  0  0  0  0  0  0  0  0  0  0
   10.5665    5.1015    2.3731 H   0  0  0  0  0  0  0  0  0  0  0  0
   14.1056    4.9648    2.2978 N   0  0  0  0  0  0  0  0  0  0  0  0
   14.4390    4.0728    2.6241 H   0  0  0  0  0  0  0  0  0  0  0  0
   11.3597    3.2981    1.4444 C   0  0  0  0  0  0  0  0  0  0  0  0
   11.9059    2.7182    2.7578 C   0  0  0  0  0  0  0  0  0  0  0  0
   12.3051    3.5210    3.3787 H   0  0  0  0  0  0  0  0  0  0  0  0
   11.0713    2.2793    3.3096 H   0  0  0  0  0  0  0  0  0  0  0  0
    7.8647    4.9211   -0.9076 C   0  0  0  0  0  0  0  0  0  0  0  0
   12.9255    6.4484    1.1601 N   0  0  0  0  0  0  0  0  0  0  0  0
   14.5466    6.1959    2.7226 C   0  0  0  0  0  0  0  0  0  0  0  0
    8.7874    5.9813   -1.0242 C   0  0  0  0  0  0  0  0  0  0  0  0
   12.9452    1.6204    2.5391 C   0  0  0  0  0  0  0  0  0  0  0  0
   13.8232    2.0075    2.0170 H   0  0  0  0  0  0  0  0  0  0  0  0
   13.2771    1.2404    3.5076 H   0  0  0  0  0  0  0  0  0  0  0  0
   13.7857    7.1305    1.9920 C   0  0  0  0  0  0  0  0  0  0  0  0
    9.4366    4.7690    0.6400 C   0  0  1  0  0  3  0  0  0  0  0  0
   13.9691    8.4974    2.1762 C   0  0  0  0  0  0  0  0  0  0  0  0
   13.3839    9.2164    1.6157 H   0  0  0  0  0  0  0  0  0  0  0  0
   15.5008    6.5920    3.6460 C   0  0  0  0  0  0  0  0  0  0  0  0
   16.0789    5.8731    4.2065 H   0  0  0  0  0  0  0  0  0  0  0  0
   14.9185    8.8842    3.0989 C   0  0  0  0  0  0  0  0  0  0  0  0
   15.0877    9.9352    3.2765 H   0  0  0  0  0  0  0  0  0  0  0  0
    8.6373    6.9534   -2.0076 C   0  0  0  0  0  0  0  0  0  0  0  0
    9.3382    7.7726   -2.0842 H   0  0  0  0  0  0  0  0  0  0  0  0
    6.7816    4.8003   -1.7634 C   0  0  0  0  0  0  0  0  0  0  0  0
    6.0750    3.9898   -1.6704 H   0  0  0  0  0  0  0  0  0  0  0  0
   12.3424    0.4850    1.7180 C   0  0  0  0  0  0  0  0  0  0  0  0
   11.5108    0.0428    2.2706 H   0  0  0  0  0  0  0  0  0  0  0  0
   13.0868   -0.2961    1.5539 H   0  0  0  0  0  0  0  0  0  0  0  0
    7.5556    6.8266   -2.8541 C   0  0  0  0  0  0  0  0  0  0  0  0
    7.3996    7.5625   -3.6279 H   0  0  0  0  0  0  0  0  0  0  0  0
    6.6476    5.7709   -2.7366 C   0  0  0  0  0  0  0  0  0  0  0  0
    5.8163    5.7165   -3.4230 H   0  0  0  0  0  0  0  0  0  0  0  0
   10.8282    2.1409    0.5795 C   0  0  0  0  0  0  0  0  0  0  0  0
    9.9490    1.7204    1.0745 H   0  0  0  0  0  0  0  0  0  0  0  0
   10.5160    2.5225   -0.3952 H   0  0  0  0  0  0  0  0  0  0  0  0
   15.6700    7.9512    3.8186 C   0  0  0  0  0  0  0  0  0  0  0  0
   16.3996    8.3048    4.5313 H   0  0  0  0  0  0  0  0  0  0  0  0
   11.8392    1.0126    0.3786 C   0  0  0  0  0  0  0  0  0  0  0  0
   11.3618    0.2051   -0.1800 H   0  0  0  0  0  0  0  0  0  0  0  0
   12.6834    1.3609   -0.2189 H   0  0  0  0  0  0  0  0  0  0  0  0
  1 21  1  0  0  0  0
  1  3  1  0  0  0  0
  2  1  1  0  0  0  0
  4  5  1  0  0  0  0
  4 28  1  0  0  0  0
  6  1  1  0  0  0  0
  7  8  1  6  0  0  0
  7 14  1  0  0  0  0
  8 16  1  0  0  0  0
  9  8  1  0  0  0  0
 10  8  1  0  0  0  0
 11 13  1  0  0  0  0
 11 12  1  0  0  0  0
 14 15  1  0  0  0  0
 14 22  1  0  0  0  0
 16 11  1  0  0  0  0
 16 17  1  0  0  0  0
 17 19  1  0  0  0  0
 17 18  1  0  0  0  0
 20  4  1  0  0  0  0
 21  7  1  0  0  0  0
 21 27  1  0  0  0  0
 22 31  1  0  0  0  0
 23 20  1  0  0  0  0
 23  6  1  0  0  0  0
 24 17  1  0  0  0  0
 24 26  1  0  0  0  0
 25 24  1  0  0  0  0
 27 29  1  0  0  0  0
 27 22  2  0  0  0  0
 28  6  1  1  0  0  0
 28 11  1  0  0  0  0
 29 33  2  0  0  0  0
 30 29  1  0  0  0  0
 31 49  2  0  0  0  0
 31 32  1  0  0  0  0
 33 34  1  0  0  0  0
 33 49  1  0  0  0  0
 35 23  2  0  0  0  0
 36 35  1  0  0  0  0
 37 38  1  0  0  0  0
 37 20  2  0  0  0  0
 39 40  1  0  0  0  0
 39 24  1  0  0  0  0
 41 39  1  0  0  0  0
 42 44  2  0  0  0  0
 42 35  1  0  0  0  0
 43 42  1  0  0  0  0
 44 37  1  0  0  0  0
 45 44  1  0  0  0  0
 46 47  1  0  0  0  0
 46 16  1  0  0  0  0
 48 46  1  0  0  0  0
 49 50  1  0  0  0  0
 51 46  1  0  0  0  0
 51 39  1  0  0  0  0
 52 51  1  0  0  0  0
 53 51  1  0  0  0  0
M  END
$$$$
