CSD_code = WIHVOA | q = 0 | S = 0 | Stoichiometry = C19H31Cl3N2O2Ti | MND = 6
 OpenBabel04212202113D

 58 58  0  0  1  0  0  0  0  0999 V2000
    0.9464   12.5348    3.5992 Ti  0  0  0  0  0  0  0  0  0  0  0  0
    2.4334   14.2771    3.7217 Cl  0  0  0  0  0  0  0  0  0  0  0  0
    1.0391   12.3632    1.3901 Cl  0  0  0  0  0  0  0  0  0  0  0  0
   -0.2746   10.6083    3.8821 Cl  0  0  0  0  0  0  0  0  0  0  0  0
   -2.2370   15.0054    3.3670 N   0  0  0  0  0  0  0  0  0  0  0  0
   -3.1004   15.3551    3.7535 H   0  0  0  0  0  0  0  0  0  0  0  0
   -0.4489   13.5827    3.8226 N   0  0  0  0  0  2  0  0  0  0  0  0
    1.3639   12.3540    5.7168 O   0  0  0  0  0  0  0  0  0  0  0  0
    2.6942   11.1322    3.6270 O   0  0  0  0  0  0  0  0  0  0  0  0
   -2.0718   15.1472    1.9209 C   0  0  0  0  0  0  0  0  0  0  0  0
   -2.2796   13.7874    1.2459 C   0  0  0  0  0  0  0  0  0  0  0  0
   -3.2881   13.4211    1.4302 H   0  0  0  0  0  0  0  0  0  0  0  0
   -1.5672   13.0605    1.6411 H   0  0  0  0  0  0  0  0  0  0  0  0
   -2.1255   13.8726    0.1741 H   0  0  0  0  0  0  0  0  0  0  0  0
   -0.6758   15.6969    1.6183 C   0  0  0  0  0  0  0  0  0  0  0  0
   -0.5274   16.6503    2.1214 H   0  0  0  0  0  0  0  0  0  0  0  0
   -0.5576   15.8406    0.5479 H   0  0  0  0  0  0  0  0  0  0  0  0
    0.0902   14.9996    1.9619 H   0  0  0  0  0  0  0  0  0  0  0  0
   -3.1356   16.1389    1.4461 C   0  0  0  0  0  0  0  0  0  0  0  0
   -3.0074   17.1020    1.9360 H   0  0  0  0  0  0  0  0  0  0  0  0
   -4.1356   15.7650    1.6596 H   0  0  0  0  0  0  0  0  0  0  0  0
   -3.0500   16.2865    0.3734 H   0  0  0  0  0  0  0  0  0  0  0  0
   -1.4873   14.2133    4.1719 C   0  0  1  0  0  3  0  0  0  0  0  0
   -1.9633   14.1357    5.5879 C   0  0  0  0  0  0  0  0  0  0  0  0
   -2.2977   15.2802    6.3039 C   0  0  0  0  0  0  0  0  0  0  0  0
   -2.2162   16.2518    5.8374 H   0  0  0  0  0  0  0  0  0  0  0  0
   -2.7100   15.1766    7.6214 C   0  0  0  0  0  0  0  0  0  0  0  0
   -2.9599   16.0679    8.1780 H   0  0  0  0  0  0  0  0  0  0  0  0
   -2.8093   13.9329    8.2226 C   0  0  0  0  0  0  0  0  0  0  0  0
   -3.1440   13.8539    9.2465 H   0  0  0  0  0  0  0  0  0  0  0  0
   -2.4781   12.7907    7.5103 C   0  0  0  0  0  0  0  0  0  0  0  0
   -2.5668   11.8212    7.9789 H   0  0  0  0  0  0  0  0  0  0  0  0
   -2.0418   12.8884    6.2007 C   0  0  0  0  0  0  0  0  0  0  0  0
   -1.7732   12.0068    5.6322 H   0  0  0  0  0  0  0  0  0  0  0  0
    1.6487   11.1933    6.4877 C   0  0  0  0  0  0  0  0  0  0  0  0
    2.7363   11.1023    6.6343 H   0  0  0  0  0  0  0  0  0  0  0  0
    1.2632   10.3270    5.9445 H   0  0  0  0  0  0  0  0  0  0  0  0
    0.9407   11.4427    7.8174 C   0  0  0  0  0  0  0  0  0  0  0  0
    1.3750   10.8651    8.6299 H   0  0  0  0  0  0  0  0  0  0  0  0
   -0.1123   11.1836    7.7197 H   0  0  0  0  0  0  0  0  0  0  0  0
    1.1052   12.9561    8.0080 C   0  0  0  0  0  0  0  0  0  0  0  0
    1.9029   13.1817    8.7144 H   0  0  0  0  0  0  0  0  0  0  0  0
    0.1863   13.4128    8.3695 H   0  0  0  0  0  0  0  0  0  0  0  0
    1.4699   13.4686    6.6023 C   0  0  0  0  0  0  0  0  0  0  0  0
    0.7915   14.2441    6.2347 H   0  0  0  0  0  0  0  0  0  0  0  0
    2.4985   13.8549    6.5731 H   0  0  0  0  0  0  0  0  0  0  0  0
    4.0576   11.5387    3.6998 C   0  0  0  0  0  0  0  0  0  0  0  0
    4.6194   10.7990    4.2928 H   0  0  0  0  0  0  0  0  0  0  0  0
    4.1117   12.5225    4.1699 H   0  0  0  0  0  0  0  0  0  0  0  0
    4.5232   11.5374    2.2438 C   0  0  0  0  0  0  0  0  0  0  0  0
    5.6020   11.4345    2.1540 H   0  0  0  0  0  0  0  0  0  0  0  0
    4.2112   12.4714    1.7729 H   0  0  0  0  0  0  0  0  0  0  0  0
    3.7492   10.3505    1.6467 C   0  0  0  0  0  0  0  0  0  0  0  0
    4.3965    9.4977    1.4473 H   0  0  0  0  0  0  0  0  0  0  0  0
    3.2488   10.6370    0.7240 H   0  0  0  0  0  0  0  0  0  0  0  0
    2.7194   10.0117    2.7395 C   0  0  0  0  0  0  0  0  0  0  0  0
    1.7128    9.8483    2.3490 H   0  0  0  0  0  0  0  0  0  0  0  0
    3.0335    9.1256    3.3121 H   0  0  0  0  0  0  0  0  0  0  0  0
  1  2  1  0  0  0  0
  1  7  1  0  0  0  0
  1  4  1  0  0  0  0
  3  1  1  0  0  0  0
  5  6  1  0  0  0  0
  5 23  1  0  0  0  0
  8 35  1  0  0  0  0
  8 44  1  0  0  0  0
  9 47  1  0  0  0  0
 10  5  1  0  0  0  0
 11 12  1  0  0  0  0
 11 13  1  0  0  0  0
 11 10  1  0  0  0  0
 14 11  1  0  0  0  0
 15 10  1  0  0  0  0
 15 18  1  0  0  0  0
 15 16  1  0  0  0  0
 17 15  1  0  0  0  0
 19 21  1  0  0  0  0
 19 10  1  0  0  0  0
 19 20  1  0  0  0  0
 22 19  1  0  0  0  0
 23  7  1  1  0  0  0
 23 24  1  0  0  0  0
 24 33  2  0  0  0  0
 24 25  1  0  0  0  0
 25 27  2  0  0  0  0
 26 25  1  0  0  0  0
 27 28  1  0  0  0  0
 27 29  1  0  0  0  0
 29 30  1  0  0  0  0
 31 32  1  0  0  0  0
 31 29  2  0  0  0  0
 33 31  1  0  0  0  0
 34 33  1  0  0  0  0
 35 36  1  0  0  0  0
 35 38  1  0  0  0  0
 37 35  1  0  0  0  0
 38 41  1  0  0  0  0
 38 39  1  0  0  0  0
 40 38  1  0  0  0  0
 41 43  1  0  0  0  0
 41 42  1  0  0  0  0
 44 41  1  0  0  0  0
 45 44  1  0  0  0  0
 46 44  1  0  0  0  0
 47 49  1  0  0  0  0
 47 48  1  0  0  0  0
 50 47  1  0  0  0  0
 51 50  1  0  0  0  0
 52 50  1  0  0  0  0
 53 50  1  0  0  0  0
 53 56  1  0  0  0  0
 54 53  1  0  0  0  0
 55 53  1  0  0  0  0
 56 58  1  0  0  0  0
 56  9  1  0  0  0  0
 57 56  1  0  0  0  0
M  END
$$$$
