CSD_code = WIHXUJ | q = 0 | S = 0 | Stoichiometry = C36H26Cl2NiP2 | MND = 4
 OpenBabel04212202113D

 67 74  0  0  0  0  0  0  0  0999 V2000
   19.3274    6.2632    7.9045 Cl  0  0  0  0  0  0  0  0  0  0  0  0
   22.5903    3.8011    5.5303 C   0  0  0  0  0  0  0  0  0  0  0  0
   22.5200    2.4474    5.8343 C   0  0  0  0  0  0  0  0  0  0  0  0
   22.4745    2.1261    6.8652 H   0  0  0  0  0  0  0  0  0  0  0  0
   19.2334    9.8488    7.5190 C   0  0  0  0  0  0  0  0  0  0  0  0
   19.2904    9.2577    6.6086 H   0  0  0  0  0  0  0  0  0  0  0  0
   22.5664    1.9226    3.4904 C   0  0  0  0  0  0  0  0  0  0  0  0
   22.5595    1.1888    2.6978 H   0  0  0  0  0  0  0  0  0  0  0  0
   18.3085   10.8684    7.6482 C   0  0  0  0  0  0  0  0  0  0  0  0
   17.6320   11.0921    6.8370 H   0  0  0  0  0  0  0  0  0  0  0  0
   22.5116    1.5136    4.8122 C   0  0  0  0  0  0  0  0  0  0  0  0
   22.4609    0.4609    5.0504 H   0  0  0  0  0  0  0  0  0  0  0  0
   18.2499   11.5986    8.8242 C   0  0  0  0  0  0  0  0  0  0  0  0
   17.5264   12.3935    8.9294 H   0  0  0  0  0  0  0  0  0  0  0  0
   20.5858    6.5365   11.9411 C   0  0  0  0  0  0  0  0  0  0  0  0
   19.7332    6.3892   12.5872 H   0  0  0  0  0  0  0  0  0  0  0  0
   20.8869    6.9251    6.7075 Ni  0  0  0  0  0  0  0  0  0  0  0  0
   22.5381    5.1233    6.7803 P   0  0  0  0  0  4  0  0  0  0  0  0
   21.3087    8.2393    8.3079 P   0  0  0  0  0  4  0  0  0  0  0  0
   21.8451    8.0599    5.2611 Cl  0  0  0  0  0  0  0  0  0  0  0  0
   24.4856    7.1418    6.9503 C   0  0  0  0  0  0  0  0  0  0  0  0
   22.7894    4.2041    8.3414 C   0  0  0  0  0  0  0  0  0  0  0  0
   23.0096    2.8261   10.7419 C   0  0  0  0  0  0  0  0  0  0  0  0
   23.0990    2.2907   11.6759 H   0  0  0  0  0  0  0  0  0  0  0  0
   20.1013    9.5596    8.5661 C   0  0  0  0  0  0  0  0  0  0  0  0
   22.9187    9.0738    8.1086 C   0  0  0  0  0  0  0  0  0  0  0  0
   24.4113   10.9960    8.2879 C   0  0  0  0  0  0  0  0  0  0  0  0
   24.5468   12.0289    8.5742 H   0  0  0  0  0  0  0  0  0  0  0  0
   25.7653    7.7419    6.7687 C   0  0  0  0  0  0  0  0  0  0  0  0
   22.9137    6.2113   11.4650 C   0  0  0  0  0  0  0  0  0  0  0  0
   23.8790    5.8107   11.7360 H   0  0  0  0  0  0  0  0  0  0  0  0
   25.2593    9.0082    7.3841 C   0  0  0  0  0  0  0  0  0  0  0  0
   24.1964    5.8668    6.5450 C   0  0  0  0  0  0  0  0  0  0  0  0
   23.1754   10.4157    8.4688 C   0  0  0  0  0  0  0  0  0  0  0  0
   22.3707   11.0059    8.8823 H   0  0  0  0  0  0  0  0  0  0  0  0
   22.6208    3.2739    3.1837 C   0  0  0  0  0  0  0  0  0  0  0  0
   22.6537    3.5943    2.1527 H   0  0  0  0  0  0  0  0  0  0  0  0
   23.9845    8.4060    7.5675 C   0  0  0  0  0  0  0  0  0  0  0  0
   21.7589    3.1529   10.2450 C   0  0  0  0  0  0  0  0  0  0  0  0
   20.8688    2.8767   10.7906 H   0  0  0  0  0  0  0  0  0  0  0  0
   24.0431    3.8785    8.8463 C   0  0  0  0  0  0  0  0  0  0  0  0
   24.9366    4.1622    8.3087 H   0  0  0  0  0  0  0  0  0  0  0  0
   22.7680    6.8987   10.2739 C   0  0  0  0  0  0  0  0  0  0  0  0
   23.6187    7.0300    9.6206 H   0  0  0  0  0  0  0  0  0  0  0  0
   20.0405   10.2916    9.7484 C   0  0  0  0  0  0  0  0  0  0  0  0
   20.7086   10.0543   10.5653 H   0  0  0  0  0  0  0  0  0  0  0  0
   25.2798    5.1863    5.9347 C   0  0  0  0  0  0  0  0  0  0  0  0
   25.1206    4.1759    5.5849 H   0  0  0  0  0  0  0  0  0  0  0  0
   26.7990    7.0850    6.1765 C   0  0  0  0  0  0  0  0  0  0  0  0
   27.7742    7.5184    6.0157 H   0  0  0  0  0  0  0  0  0  0  0  0
   25.5043   10.3020    7.7316 C   0  0  0  0  0  0  0  0  0  0  0  0
   26.4558   10.7914    7.5911 H   0  0  0  0  0  0  0  0  0  0  0  0
   21.8245    6.0287   12.2994 C   0  0  0  0  0  0  0  0  0  0  0  0
   21.9391    5.4858   13.2258 H   0  0  0  0  0  0  0  0  0  0  0  0
   19.1123   11.3096    9.8709 C   0  0  0  0  0  0  0  0  0  0  0  0
   19.0588   11.8787   10.7874 H   0  0  0  0  0  0  0  0  0  0  0  0
   21.6484    3.8411    9.0514 C   0  0  0  0  0  0  0  0  0  0  0  0
   20.6750    4.1145    8.6688 H   0  0  0  0  0  0  0  0  0  0  0  0
   21.5283    7.4178    9.9154 C   0  0  0  0  0  0  0  0  0  0  0  0
   22.6243    4.2108    4.1981 C   0  0  0  0  0  0  0  0  0  0  0  0
   22.6534    5.2694    3.9717 H   0  0  0  0  0  0  0  0  0  0  0  0
   26.5152    5.7669    5.7629 C   0  0  0  0  0  0  0  0  0  0  0  0
   27.2982    5.1944    5.2867 H   0  0  0  0  0  0  0  0  0  0  0  0
   20.4331    7.2242   10.7525 C   0  0  0  0  0  0  0  0  0  0  0  0
   19.4636    7.5991   10.4594 H   0  0  0  0  0  0  0  0  0  0  0  0
   24.1480    3.1904   10.0416 C   0  0  0  0  0  0  0  0  0  0  0  0
   25.1249    2.9370   10.4286 H   0  0  0  0  0  0  0  0  0  0  0  0
  2  3  1  0  0  0  0
  2 18  1  0  0  0  0
  3  4  1  0  0  0  0
  5  9  2  0  0  0  0
  5 25  1  0  0  0  0
  6  5  1  0  0  0  0
  7 11  1  0  0  0  0
  8  7  1  0  0  0  0
  9 13  1  0  0  0  0
 10  9  1  0  0  0  0
 11 12  1  0  0  0  0
 11  3  2  0  0  0  0
 13 14  1  0  0  0  0
 13 55  2  0  0  0  0
 15 53  1  0  0  0  0
 15 16  1  0  0  0  0
 17 18  1  0  0  0  0
 17  1  1  0  0  0  0
 17 19  1  0  0  0  0
 18 22  1  0  0  0  0
 19 25  1  0  0  0  0
 19 59  1  0  0  0  0
 20 17  1  0  0  0  0
 21 38  1  0  0  0  0
 22 41  2  0  0  0  0
 22 57  1  0  0  0  0
 23 24  1  0  0  0  0
 25 45  2  0  0  0  0
 26 19  1  0  0  0  0
 26 34  1  0  0  0  0
 27 34  2  0  0  0  0
 27 28  1  0  0  0  0
 29 21  1  0  0  0  0
 29 32  1  0  0  0  0
 30 31  1  0  0  0  0
 30 53  2  0  0  0  0
 32 38  1  0  0  0  0
 32 51  2  0  0  0  0
 33 18  1  0  0  0  0
 33 21  2  0  0  0  0
 34 35  1  0  0  0  0
 36  7  2  0  0  0  0
 36 60  1  0  0  0  0
 37 36  1  0  0  0  0
 38 26  2  0  0  0  0
 39 23  1  0  0  0  0
 39 40  1  0  0  0  0
 41 66  1  0  0  0  0
 42 41  1  0  0  0  0
 43 30  1  0  0  0  0
 44 43  1  0  0  0  0
 45 55  1  0  0  0  0
 45 46  1  0  0  0  0
 47 33  1  0  0  0  0
 48 47  1  0  0  0  0
 49 29  2  0  0  0  0
 50 49  1  0  0  0  0
 51 27  1  0  0  0  0
 52 51  1  0  0  0  0
 53 54  1  0  0  0  0
 55 56  1  0  0  0  0
 57 39  2  0  0  0  0
 58 57  1  0  0  0  0
 59 43  2  0  0  0  0
 59 64  1  0  0  0  0
 60  2  2  0  0  0  0
 61 60  1  0  0  0  0
 62 47  2  0  0  0  0
 62 49  1  0  0  0  0
 63 62  1  0  0  0  0
 64 15  2  0  0  0  0
 65 64  1  0  0  0  0
 66 67  1  0  0  0  0
 66 23  2  0  0  0  0
M  END
$$$$
