CSD_code = WIJBAT | q = 0 | S = 0 | Stoichiometry = C31H24BrN4O3Re | MND = 6
 OpenBabel04212202113D

 64 70  0  0  1  0  0  0  0  0999 V2000
    3.0903    3.0425    1.9719 C   0  0  0  0  0  2  0  0  0  0  0  0
    5.5968    4.3558    1.7090 C   0  0  0  0  0  2  0  0  0  0  0  0
    4.7913    2.2936   -0.0486 C   0  0  0  0  0  2  0  0  0  0  0  0
    7.7524    1.4435    1.0060 C   0  0  0  0  0  3  0  0  0  0  0  0
    7.3949    1.7831    0.0422 H   0  0  0  0  0  0  0  0  0  0  0  0
    8.9583    0.7767    1.1066 C   0  0  0  0  0  0  0  0  0  0  0  0
    9.5435    0.5813    0.2234 H   0  0  0  0  0  0  0  0  0  0  0  0
    9.3866    0.3784    2.3636 C   0  0  0  0  0  0  0  0  0  0  0  0
   10.3256   -0.1368    2.4938 H   0  0  0  0  0  0  0  0  0  0  0  0
    8.5886    0.6530    3.4570 C   0  0  0  0  0  0  0  0  0  0  0  0
    8.9278    0.3621    4.4346 H   0  0  0  0  0  0  0  0  0  0  0  0
    7.3680    1.3047    3.2817 C   0  0  0  0  0  0  0  0  0  0  0  0
    6.4200    1.6606    4.3269 C   0  0  2  0  0  3  0  0  0  0  0  0
    4.6732    2.6873    5.1037 C   0  0  0  0  0  0  0  0  0  0  0  0
    3.5264    3.4550    5.2955 C   0  0  0  0  0  0  0  0  0  0  0  0
    3.0744    3.9805    4.4689 H   0  0  0  0  0  0  0  0  0  0  0  0
    3.0119    3.5099    6.5701 C   0  0  0  0  0  0  0  0  0  0  0  0
    2.1228    4.0907    6.7601 H   0  0  0  0  0  0  0  0  0  0  0  0
    3.6137    2.8261    7.6321 C   0  0  0  0  0  0  0  0  0  0  0  0
    3.1711    2.8932    8.6142 H   0  0  0  0  0  0  0  0  0  0  0  0
    4.7533    2.0700    7.4598 C   0  0  0  0  0  0  0  0  0  0  0  0
    5.2034    1.5490    8.2905 H   0  0  0  0  0  0  0  0  0  0  0  0
    5.2860    2.0115    6.1779 C   0  0  0  0  0  0  0  0  0  0  0  0
    7.1338    0.4209    6.4528 C   0  0  0  0  0  0  0  0  0  0  0  0
    7.1719    0.8077    7.4751 H   0  0  0  0  0  0  0  0  0  0  0  0
    8.1592    0.3397    6.0978 H   0  0  0  0  0  0  0  0  0  0  0  0
    6.4534   -0.9525    6.4490 C   0  0  0  0  0  0  0  0  0  0  0  0
    5.4375   -0.8443    6.8355 H   0  0  0  0  0  0  0  0  0  0  0  0
    7.0073   -1.6016    7.1304 H   0  0  0  0  0  0  0  0  0  0  0  0
    6.3997   -1.5871    5.0616 C   0  0  0  0  0  0  0  0  0  0  0  0
    5.7782   -0.9947    4.3890 H   0  0  0  0  0  0  0  0  0  0  0  0
    7.4071   -1.6446    4.6436 H   0  0  0  0  0  0  0  0  0  0  0  0
    5.8095   -3.0008    5.1047 C   0  0  0  0  0  0  0  0  0  0  0  0
    4.8216   -2.9774    5.5673 H   0  0  0  0  0  0  0  0  0  0  0  0
    5.6915   -3.3671    4.0812 H   0  0  0  0  0  0  0  0  0  0  0  0
    7.8156   -4.4547    5.3618 C   0  0  0  0  0  0  0  0  0  0  0  0
    8.3998   -4.3368    4.1074 C   0  0  0  0  0  0  0  0  0  0  0  0
    7.9392   -3.7541    3.3235 H   0  0  0  0  0  0  0  0  0  0  0  0
    9.5901   -5.0018    3.8847 C   0  0  0  0  0  0  0  0  0  0  0  0
   10.0627   -4.9289    2.9159 H   0  0  0  0  0  0  0  0  0  0  0  0
   10.1945   -5.7675    4.8799 C   0  0  0  0  0  0  0  0  0  0  0  0
   11.1244   -6.2728    4.6648 H   0  0  0  0  0  0  0  0  0  0  0  0
    9.6193   -5.8905    6.1286 C   0  0  0  0  0  0  0  0  0  0  0  0
   10.0854   -6.4875    6.8981 H   0  0  0  0  0  0  0  0  0  0  0  0
    8.4226   -5.2312    6.3776 C   0  0  0  0  0  0  0  0  0  0  0  0
    7.5664   -5.1334    7.5249 C   0  0  0  0  0  0  0  0  0  0  0  0
    7.6238   -5.6632    8.8073 C   0  0  0  0  0  0  0  0  0  0  0  0
    8.4454   -6.3002    9.0987 H   0  0  0  0  0  0  0  0  0  0  0  0
    6.6113   -5.3605    9.6950 C   0  0  0  0  0  0  0  0  0  0  0  0
    6.6360   -5.7627   10.6968 H   0  0  0  0  0  0  0  0  0  0  0  0
    5.5496   -4.5415    9.3161 C   0  0  0  0  0  0  0  0  0  0  0  0
    4.7701   -4.3236   10.0315 H   0  0  0  0  0  0  0  0  0  0  0  0
    5.4700   -4.0028    8.0468 C   0  0  0  0  0  0  0  0  0  0  0  0
    4.6370   -3.3733    7.7716 H   0  0  0  0  0  0  0  0  0  0  0  0
    6.4844   -4.3013    7.1463 C   0  0  0  0  0  0  0  0  0  0  0  0
    5.3957    2.4339    3.9769 N   0  0  0  0  0  0  0  0  0  0  0  0
    6.9707    1.7038    2.0491 N   0  0  0  0  0  0  0  0  0  0  0  0
    6.3965    1.3789    5.6656 N   0  0  0  0  0  0  0  0  0  0  0  0
    6.6470   -3.9093    5.8384 N   0  0  0  0  0  0  0  0  0  0  0  0
    1.9671    3.2552    2.0470 O   0  0  0  0  0  1  0  0  0  0  0  0
    5.9749    5.4343    1.6106 O   0  0  0  0  0  1  0  0  0  0  0  0
    4.7150    2.0777   -1.1713 O   0  0  0  0  0  1  0  0  0  0  0  0
    4.2556    0.0676    2.2057 Br  0  0  0  0  0  0  0  0  0  0  0  0
    4.9710    2.5277    1.8784 Re  0  0  0  0  0  0  0  0  0  0  0  0
  1 60  1  0  0  0  0
  2 64  1  0  0  0  0
  3 64  1  0  0  0  0
  4  6  1  0  0  0  0
  4 57  1  0  0  0  0
  5  4  1  0  0  0  0
  6  8  2  0  0  0  0
  7  6  1  0  0  0  0
  8  9  1  0  0  0  0
  8 10  1  0  0  0  0
 10 11  1  0  0  0  0
 12 10  2  0  0  0  0
 13 12  1  1  0  0  0
 13 58  1  0  0  0  0
 14 15  2  0  0  0  0
 14 23  1  0  0  0  0
 15 17  1  0  0  0  0
 16 15  1  0  0  0  0
 17 18  1  0  0  0  0
 17 19  2  0  0  0  0
 19 20  1  0  0  0  0
 21 19  1  0  0  0  0
 21 22  1  0  0  0  0
 23 21  2  0  0  0  0
 24 25  1  0  0  0  0
 26 24  1  0  0  0  0
 27 24  1  0  0  0  0
 27 28  1  0  0  0  0
 27 29  1  0  0  0  0
 30 33  1  0  0  0  0
 30 27  1  0  0  0  0
 31 30  1  0  0  0  0
 32 30  1  0  0  0  0
 33 34  1  0  0  0  0
 33 59  1  0  0  0  0
 35 33  1  0  0  0  0
 36 59  1  0  0  0  0
 36 45  1  0  0  0  0
 37 36  2  0  0  0  0
 38 37  1  0  0  0  0
 39 37  1  0  0  0  0
 39 41  2  0  0  0  0
 40 39  1  0  0  0  0
 41 43  1  0  0  0  0
 42 41  1  0  0  0  0
 43 45  2  0  0  0  0
 43 44  1  0  0  0  0
 45 46  1  0  0  0  0
 46 47  1  0  0  0  0
 47 48  1  0  0  0  0
 47 49  2  0  0  0  0
 49 50  1  0  0  0  0
 51 49  1  0  0  0  0
 51 52  1  0  0  0  0
 53 51  2  0  0  0  0
 54 53  1  0  0  0  0
 55 46  2  0  0  0  0
 55 53  1  0  0  0  0
 56 13  1  0  0  0  0
 56 14  1  0  0  0  0
 57 12  1  0  0  0  0
 58 23  1  0  0  0  0
 58 24  1  0  0  0  0
 59 55  1  0  0  0  0
 61  2  1  0  0  0  0
 62  3  1  0  0  0  0
 64  1  1  0  0  0  0
 64 57  1  0  0  0  0
 64 63  1  0  0  0  0
 64 56  1  0  0  0  0
M  END
$$$$
