CSD_code = WIJGAY | q = 0 | S = 0 | Stoichiometry = C15H12Cl2HgN2S | MND = 5
 OpenBabel04212202113D

 33 34  0  0  0  0  0  0  0  0999 V2000
    3.3811   11.7467    9.8184 Hg  0  0  0  0  0  0  0  0  0  0  0  0
    5.0645   11.4161   11.3392 Cl  0  0  0  0  0  0  0  0  0  0  0  0
    2.3333   13.7574    9.4647 Cl  0  0  0  0  0  0  0  0  0  0  0  0
    1.9957   10.7649    7.3462 S   0  0  0  0  0  0  0  0  0  0  0  0
    4.8779   11.8022    7.7514 N   0  0  0  0  0  0  0  0  0  0  0  0
    3.3769    9.1353    9.4441 N   0  0  0  0  0  0  0  0  0  0  0  0
    6.1903   11.6738    7.8944 C   0  0  0  0  0  0  0  0  0  0  0  0
    6.5430   11.5723    8.9121 H   0  0  0  0  0  0  0  0  0  0  0  0
    7.0650   11.6633    6.8211 C   0  0  0  0  0  0  0  0  0  0  0  0
    8.1247   11.5541    6.9855 H   0  0  0  0  0  0  0  0  0  0  0  0
    6.5438   11.7958    5.5445 C   0  0  0  0  0  0  0  0  0  0  0  0
    7.1902   11.7928    4.6795 H   0  0  0  0  0  0  0  0  0  0  0  0
    5.1742   11.9291    5.3950 C   0  0  0  0  0  0  0  0  0  0  0  0
    4.7331   12.0377    4.4161 H   0  0  0  0  0  0  0  0  0  0  0  0
    4.3663   11.9317    6.5272 C   0  0  0  0  0  0  0  0  0  0  0  0
    2.8852   12.0682    6.4027 C   0  0  0  0  0  0  0  0  0  0  0  0
    2.5629   12.0351    5.3631 H   0  0  0  0  0  0  0  0  0  0  0  0
    2.5427   12.9953    6.8699 H   0  0  0  0  0  0  0  0  0  0  0  0
    3.0864    9.3841    7.0750 C   0  0  0  0  0  0  0  0  0  0  0  0
    3.3823    8.9787    5.7983 C   0  0  0  0  0  0  0  0  0  0  0  0
    2.9581    9.5068    4.9584 H   0  0  0  0  0  0  0  0  0  0  0  0
    4.2159    7.8768    5.5716 C   0  0  0  0  0  0  0  0  0  0  0  0
    4.4378    7.5856    4.5563 H   0  0  0  0  0  0  0  0  0  0  0  0
    4.7167    7.1620    6.6244 C   0  0  0  0  0  0  0  0  0  0  0  0
    5.3347    6.2918    6.4601 H   0  0  0  0  0  0  0  0  0  0  0  0
    4.4252    7.5445    7.9486 C   0  0  0  0  0  0  0  0  0  0  0  0
    4.9016    6.8337    9.0703 C   0  0  0  0  0  0  0  0  0  0  0  0
    5.5120    5.9553    8.9157 H   0  0  0  0  0  0  0  0  0  0  0  0
    4.5812    7.2689   10.3262 C   0  0  0  0  0  0  0  0  0  0  0  0
    4.9163    6.7468   11.2079 H   0  0  0  0  0  0  0  0  0  0  0  0
    3.8295    8.4467   10.4618 C   0  0  0  0  0  0  0  0  0  0  0  0
    3.6066    8.8389   11.4448 H   0  0  0  0  0  0  0  0  0  0  0  0
    3.6207    8.6927    8.1908 C   0  0  0  0  0  0  0  0  0  0  0  0
  1  2  1  0  0  0  0
  3  1  1  0  0  0  0
  5  7  1  0  0  0  0
  6 31  1  0  0  0  0
  7  8  1  0  0  0  0
  9 10  1  0  0  0  0
  9  7  2  0  0  0  0
 11  9  1  0  0  0  0
 12 11  1  0  0  0  0
 13 11  2  0  0  0  0
 13 15  1  0  0  0  0
 14 13  1  0  0  0  0
 15  5  2  0  0  0  0
 16 15  1  0  0  0  0
 16 18  1  0  0  0  0
 16  4  1  0  0  0  0
 17 16  1  0  0  0  0
 19  4  1  0  0  0  0
 19 33  1  0  0  0  0
 20 19  2  0  0  0  0
 21 20  1  0  0  0  0
 22 20  1  0  0  0  0
 22 24  2  0  0  0  0
 23 22  1  0  0  0  0
 24 26  1  0  0  0  0
 25 24  1  0  0  0  0
 26 33  1  0  0  0  0
 26 27  2  0  0  0  0
 27 29  1  0  0  0  0
 28 27  1  0  0  0  0
 29 31  2  0  0  0  0
 29 30  1  0  0  0  0
 31 32  1  0  0  0  0
 33  6  2  0  0  0  0
M  END
$$$$
