CSD_code = WIJKOQ | q = 0 | S = 0 | Stoichiometry = C18H15ClN4O3Pd | MND = 4
 OpenBabel04212202113D

 42 45  0  0  0  0  0  0  0  0999 V2000
  -11.2513    4.1871    5.1114 Pd  0  0  2  0  0  0  0  0  0  0  0  0
   -9.9183    3.3109    3.5312 Cl  0  0  0  0  0  0  0  0  0  0  0  0
  -15.7378    6.8811    8.1806 O   0  0  0  0  0  0  0  0  0  0  0  0
  -11.7586    6.3304    9.7604 O   0  0  0  0  0  0  0  0  0  0  0  0
  -16.4121    8.3652   10.2150 O   0  0  0  0  0  0  0  0  0  0  0  0
  -16.3851    8.0514    9.2805 H   0  0  0  0  0  0  0  0  0  0  0  0
   -9.7876    4.5042    6.4189 N   0  0  0  0  0  0  0  0  0  0  0  0
  -11.5201    5.3382    7.6778 N   0  0  0  0  0  0  0  0  0  0  0  0
  -12.3350    5.0003    6.6223 N   0  0  0  0  0  0  0  0  0  0  0  0
  -12.6606    3.9040    3.8611 N   0  0  0  0  0  2  0  0  0  0  0  0
   -8.4877    4.2218    6.2603 C   0  0  0  0  0  3  0  0  0  0  0  0
   -8.2104    3.7594    5.3200 H   0  0  0  0  0  0  0  0  0  0  0  0
   -7.5456    4.4968    7.2266 C   0  0  0  0  0  0  0  0  0  0  0  0
   -6.5115    4.2501    7.0525 H   0  0  0  0  0  0  0  0  0  0  0  0
   -7.9533    5.0951    8.4185 C   0  0  0  0  0  0  0  0  0  0  0  0
   -7.2359    5.3237    9.1910 H   0  0  0  0  0  0  0  0  0  0  0  0
   -9.2827    5.3926    8.6006 C   0  0  0  0  0  0  0  0  0  0  0  0
   -9.6628    5.8569    9.4964 H   0  0  0  0  0  0  0  0  0  0  0  0
  -10.1884    5.0829    7.5765 C   0  0  0  0  0  0  0  0  0  0  0  0
  -12.2783    5.9124    8.7436 C   0  0  0  0  0  0  0  0  0  0  0  0
  -13.6225    5.8817    8.2435 C   0  0  0  0  0  0  0  0  0  0  0  0
  -13.5730    5.3482    6.9477 C   0  0  0  0  0  0  0  0  0  0  0  0
  -14.6999    5.1062    6.0088 C   0  0  0  0  0  0  0  0  0  0  0  0
  -14.7794    4.0407    5.7872 H   0  0  0  0  0  0  0  0  0  0  0  0
  -14.5224    5.6433    5.0766 H   0  0  0  0  0  0  0  0  0  0  0  0
  -15.6246    5.4637    6.4508 H   0  0  0  0  0  0  0  0  0  0  0  0
  -14.8017    6.4492    8.8693 C   0  0  0  0  0  0  0  0  0  0  0  0
  -14.8420    6.5406   10.3362 C   0  0  0  0  0  0  0  0  0  0  0  0
  -14.1417    5.6547   11.1558 C   0  0  0  0  0  0  0  0  0  0  0  0
  -13.5949    4.8408   10.7067 H   0  0  0  0  0  0  0  0  0  0  0  0
  -14.1670    5.7876   12.5265 C   0  0  0  0  0  0  0  0  0  0  0  0
  -13.6228    5.0923   13.1472 H   0  0  0  0  0  0  0  0  0  0  0  0
  -14.8894    6.8228   13.1066 C   0  0  0  0  0  0  0  0  0  0  0  0
  -14.8940    6.9420   14.1803 H   0  0  0  0  0  0  0  0  0  0  0  0
  -15.6229    7.6857   12.3224 C   0  0  0  0  0  0  0  0  0  0  0  0
  -16.2149    8.4766   12.7560 H   0  0  0  0  0  0  0  0  0  0  0  0
  -15.6391    7.5389   10.9348 C   0  0  0  0  0  0  0  0  0  0  0  0
  -13.2068    3.6298    2.8862 C   0  0  0  0  0  2  0  0  0  0  0  0
  -13.9192    3.3007    1.6950 C   0  0  0  0  0  0  0  0  0  0  0  0
  -14.6496    2.5192    1.9037 H   0  0  0  0  0  0  0  0  0  0  0  0
  -13.2123    2.9433    0.9459 H   0  0  0  0  0  0  0  0  0  0  0  0
  -14.4323    4.1840    1.3148 H   0  0  0  0  0  0  0  0  0  0  0  0
  1  2  1  1  0  0  0
  1  7  1  0  0  0  0
  1  9  1  0  0  0  0
  3 27  2  0  0  0  0
  5 37  1  0  0  0  0
  6  5  1  0  0  0  0
  7 19  1  0  0  0  0
  8 20  1  0  0  0  0
  9 22  1  0  0  0  0
  9  8  1  0  0  0  0
 10  1  1  0  0  0  0
 11  7  1  0  0  0  0
 11 13  1  0  0  0  0
 12 11  1  0  0  0  0
 13 15  2  0  0  0  0
 14 13  1  0  0  0  0
 15 17  1  0  0  0  0
 15 16  1  0  0  0  0
 17 18  1  0  0  0  0
 19  8  1  0  0  0  0
 19 17  2  0  0  0  0
 20  4  2  0  0  0  0
 21 20  1  0  0  0  0
 21 27  1  0  0  0  0
 22 21  2  0  0  0  0
 23 26  1  0  0  0  0
 23 22  1  0  0  0  0
 24 23  1  0  0  0  0
 25 23  1  0  0  0  0
 27 28  1  0  0  0  0
 28 37  2  0  0  0  0
 28 29  1  0  0  0  0
 29 31  2  0  0  0  0
 30 29  1  0  0  0  0
 31 33  1  0  0  0  0
 31 32  1  0  0  0  0
 33 34  1  0  0  0  0
 35 36  1  0  0  0  0
 35 33  2  0  0  0  0
 37 35  1  0  0  0  0
 38 10  1  0  0  0  0
 39 40  1  0  0  0  0
 39 38  1  0  0  0  0
 41 39  1  0  0  0  0
 42 39  1  0  0  0  0
M  END
$$$$
