CSD_code = WIJKUW | q = -1 | S = 0 | Stoichiometry = C16H12Cl2N3O3Pt(1-) | MND = 4
 OpenBabel04212202113D

 37 40  0  0  1  0  0  0  0  0999 V2000
    3.6500    2.2021   11.4312 Pt  0  0  0  0  0  0  0  0  0  0  0  0
    4.4926    4.2659   11.1691 Cl  0  0  0  0  0  0  0  0  0  0  0  0
    3.3762    2.0903    9.1893 Cl  0  0  0  0  0  0  0  0  0  0  0  0
    2.8794    0.3712   11.7397 N   0  0  0  0  0  0  0  0  0  0  0  0
    2.9500   -0.0921   15.9842 O   0  0  0  0  0  0  0  0  0  0  0  0
    3.8149    2.1103   13.4538 N   0  0  0  0  0  0  0  0  0  0  0  0
    5.3115    3.2751   17.2317 O   0  0  0  0  0  0  0  0  0  0  0  0
    5.5121    2.2429   19.5948 O   0  0  0  0  0  0  0  0  0  0  0  0
    5.7618    2.7320   18.7687 H   0  0  0  0  0  0  0  0  0  0  0  0
    3.2738    0.9345   13.9294 N   0  0  0  0  0  0  0  0  0  0  0  0
    3.5877    1.9741   18.1736 C   0  0  0  0  0  0  0  0  0  0  0  0
    4.2472    2.7961   14.4953 C   0  0  0  0  0  0  0  0  0  0  0  0
    4.2435    1.8347   19.4124 C   0  0  0  0  0  0  0  0  0  0  0  0
    2.2409    1.6361   18.0837 C   0  0  0  0  0  0  0  0  0  0  0  0
    1.7144    1.8127   17.1592 H   0  0  0  0  0  0  0  0  0  0  0  0
    3.3286    0.8794   15.3437 C   0  0  0  0  0  0  0  0  0  0  0  0
    4.3439    2.5201   17.0227 C   0  0  0  0  0  0  0  0  0  0  0  0
    4.8885    4.1245   14.3620 C   0  0  0  0  0  0  0  0  0  0  0  0
    5.6772    4.0820   13.6137 H   0  0  0  0  0  0  0  0  0  0  0  0
    5.2962    4.4328   15.3194 H   0  0  0  0  0  0  0  0  0  0  0  0
    4.1609    4.8558   14.0119 H   0  0  0  0  0  0  0  0  0  0  0  0
    3.9513    2.1177   15.7019 C   0  0  0  0  0  0  0  0  0  0  0  0
    2.2626   -1.2108   13.4385 C   0  0  0  0  0  0  0  0  0  0  0  0
    2.2227   -1.4377   14.4910 H   0  0  0  0  0  0  0  0  0  0  0  0
    2.7985    0.0182   13.0401 C   0  0  2  0  0  3  0  0  0  0  0  0
    2.4407   -0.4833   10.8132 C   0  0  0  0  0  0  0  0  0  0  0  0
    2.5320   -0.1441    9.7895 H   0  0  0  0  0  0  0  0  0  0  0  0
    1.5697    1.1019   19.1646 C   0  0  0  0  0  0  0  0  0  0  0  0
    0.5246    0.8436   19.0780 H   0  0  0  0  0  0  0  0  0  0  0  0
    3.5659    1.2591   20.4865 C   0  0  0  0  0  0  0  0  0  0  0  0
    4.0979    1.1321   21.4174 H   0  0  0  0  0  0  0  0  0  0  0  0
    2.2434    0.8897   20.3584 C   0  0  0  0  0  0  0  0  0  0  0  0
    1.7268    0.4518   21.2015 H   0  0  0  0  0  0  0  0  0  0  0  0
    1.8123   -2.0806   12.4704 C   0  0  0  0  0  0  0  0  0  0  0  0
    1.3951   -3.0358   12.7523 H   0  0  0  0  0  0  0  0  0  0  0  0
    1.9039   -1.7122   11.1307 C   0  0  0  0  0  0  0  0  0  0  0  0
    1.5633   -2.3686   10.3461 H   0  0  0  0  0  0  0  0  0  0  0  0
  1  4  1  0  0  0  0
  1  6  1  0  0  0  0
  2  1  1  0  0  0  0
  3  1  1  0  0  0  0
  4 25  1  0  0  0  0
  6 10  1  0  0  0  0
  6 12  1  0  0  0  0
  9  8  1  0  0  0  0
 10 16  1  0  0  0  0
 11 13  1  0  0  0  0
 12 22  2  0  0  0  0
 13  8  1  0  0  0  0
 13 30  2  0  0  0  0
 14 11  2  0  0  0  0
 14 28  1  0  0  0  0
 15 14  1  0  0  0  0
 16 22  1  0  0  0  0
 16  5  2  0  0  0  0
 17  7  2  0  0  0  0
 17 11  1  0  0  0  0
 18 12  1  0  0  0  0
 18 20  1  0  0  0  0
 19 18  1  0  0  0  0
 21 18  1  0  0  0  0
 22 17  1  0  0  0  0
 23 24  1  0  0  0  0
 25 23  1  6  0  0  0
 25 10  1  0  0  0  0
 26 36  2  0  0  0  0
 26  4  1  0  0  0  0
 27 26  1  0  0  0  0
 28 32  2  0  0  0  0
 29 28  1  0  0  0  0
 30 31  1  0  0  0  0
 32 30  1  0  0  0  0
 32 33  1  0  0  0  0
 34 35  1  0  0  0  0
 34 23  2  0  0  0  0
 36 34  1  0  0  0  0
 37 36  1  0  0  0  0
M  END
$$$$
