CSD_code = WIKVAP | q = 0 | S = 0 | Stoichiometry = C11H18ClIrN4 | MND = 6
 OpenBabel04212202113D

 35 35  0  0  1  0  0  0  0  0999 V2000
    3.6846    7.3632    4.1533 Ir  0  0  0  0  0  0  0  0  0  0  0  0
    4.9255    9.1250    5.0925 Cl  0  0  0  0  0 15  0  0  0  0  0  0
    5.6721    6.1002    6.0519 N   0  0  0  0  0  0  0  0  0  0  0  0
    6.8423    5.5015    6.0624 N   0  0  0  0  0  2  0  0  0  0  0  0
    7.0973    5.2888    4.8161 N   0  0  0  0  0  0  0  0  0  0  0  0
    6.1593    5.7034    4.0001 N   0  0  0  0  0  0  0  0  0  0  0  0
    5.2129    6.2512    4.7629 C   0  0  0  0  0  0  0  0  0  0  0  0
    8.3024    4.6595    4.3745 C   0  0  0  0  0  0  0  0  0  0  0  0
    5.0553    6.5607    7.2559 C   0  0  0  0  0  0  0  0  0  0  0  0
    2.5648    8.7471    2.9380 C   0  0  0  0  0  3  0  0  0  0  0  0
    1.8578    8.5476    4.1027 C   0  0  0  0  0  3  0  0  0  0  0  0
    0.6116    7.6951    4.1813 C   0  0  0  0  0  0  0  0  0  0  0  0
    0.9167    6.2281    4.5423 C   0  0  0  0  0  0  0  0  0  0  0  0
    2.2971    5.7770    4.1133 C   0  0  1  0  0  0  0  0  0  0  0  0
    2.8172    5.9602    2.8159 C   0  0  0  0  0  3  0  0  0  0  0  0
    2.0161    6.5919    1.6960 C   0  0  0  0  0  0  0  0  0  0  0  0
    2.2391    8.1137    1.6069 C   0  0  0  0  0  0  0  0  0  0  0  0
    8.9309    4.4754    5.2428 H   0  0  0  0  0  0  0  0  0  0  0  0
    8.8126    5.3145    3.6681 H   0  0  0  0  0  0  0  0  0  0  0  0
    8.0655    3.7208    3.8724 H   0  0  0  0  0  0  0  0  0  0  0  0
    4.0988    6.0575    7.3995 H   0  0  0  0  0  0  0  0  0  0  0  0
    4.8805    7.6353    7.1604 H   0  0  0  0  0  0  0  0  0  0  0  0
    5.7230    6.3530    8.0886 H   0  0  0  0  0  0  0  0  0  0  0  0
    3.1725    9.6462    2.8598 H   0  0  0  0  0  0  0  0  0  0  0  0
    1.9617    9.2858    4.8930 H   0  0  0  0  0  0  0  0  0  0  0  0
    0.0874    7.7471    3.2257 H   0  0  0  0  0  0  0  0  0  0  0  0
   -0.0568    8.1114    4.9377 H   0  0  0  0  0  0  0  0  0  0  0  0
    0.8490    6.1090    5.6261 H   0  0  0  0  0  0  0  0  0  0  0  0
    0.1616    5.5689    4.0995 H   0  0  0  0  0  0  0  0  0  0  0  0
    2.6298    4.8906    4.6557 H   0  0  0  0  0  0  0  0  0  0  0  0
    3.5572    5.2382    2.4798 H   0  0  0  0  0  0  0  0  0  0  0  0
    2.3102    6.1401    0.7469 H   0  0  0  0  0  0  0  0  0  0  0  0
    0.9577    6.3703    1.8428 H   0  0  0  0  0  0  0  0  0  0  0  0
    3.0734    8.3084    0.9300 H   0  0  0  0  0  0  0  0  0  0  0  0
    1.3548    8.5996    1.1793 H   0  0  0  0  0  0  0  0  0  0  0  0
  1  7  1  0  0  0  0
  3  4  1  0  0  0  0
  3  9  1  0  0  0  0
  5  4  1  0  0  0  0
  6  7  2  0  0  0  0
  6  5  1  0  0  0  0
  7  3  1  0  0  0  0
  8  5  1  0  0  0  0
  8 18  1  0  0  0  0
  9 21  1  0  0  0  0
  9 23  1  0  0  0  0
 10 11  1  0  0  0  0
 11 12  1  0  0  0  0
 11 25  1  0  0  0  0
 12 13  1  0  0  0  0
 12 27  1  0  0  0  0
 13 28  1  0  0  0  0
 14  1  1  0  0  0  0
 14 13  1  0  0  0  0
 14 30  1  1  0  0  0
 15 14  1  0  0  0  0
 16 33  1  0  0  0  0
 16 15  1  0  0  0  0
 17 16  1  0  0  0  0
 17 10  1  0  0  0  0
 19  8  1  0  0  0  0
 20  8  1  0  0  0  0
 22  9  1  0  0  0  0
 24 10  1  0  0  0  0
 26 12  1  0  0  0  0
 29 13  1  0  0  0  0
 31 15  1  0  0  0  0
 32 16  1  0  0  0  0
 34 17  1  0  0  0  0
 35 17  1  0  0  0  0
M  END
$$$$
