CSD_code = WIKXIA | q = 0 | S = 0 | Stoichiometry = C20H15ClF4N2O2Pd | MND = 4
 OpenBabel04212202113D

 45 49  0  0  1  0  0  0  0  0999 V2000
   -0.7182    6.1797    6.2947 C   0  0  0  0  0  0  0  0  0  0  0  0
   -1.6704    5.7488    6.6381 H   0  0  0  0  0  0  0  0  0  0  0  0
   -0.8351    7.2735    6.1998 H   0  0  0  0  0  0  0  0  0  0  0  0
    0.3517    5.8838    7.3122 C   0  0  0  0  0  0  0  0  0  0  0  0
    1.6813    6.3307    7.0932 C   0  0  0  0  0  0  0  0  0  0  0  0
    2.5979    6.0458    8.1413 C   0  0  0  0  0  0  0  0  0  0  0  0
    2.2614    5.3834    9.2958 C   0  0  0  0  0  0  0  0  0  0  0  0
    3.0015    5.1970   10.0563 H   0  0  0  0  0  0  0  0  0  0  0  0
    0.9498    4.9626    9.4470 C   0  0  0  0  0  0  0  0  0  0  0  0
    0.0060    5.2041    8.4741 C   0  0  0  0  0  0  0  0  0  0  0  0
   -1.0085    4.8694    8.6296 H   0  0  0  0  0  0  0  0  0  0  0  0
   -0.1225    4.2108    5.0213 C   0  0  0  0  0  0  0  0  0  0  0  0
    0.6743    4.0510    5.7577 H   0  0  0  0  0  0  0  0  0  0  0  0
   -1.0200    3.6933    5.3920 H   0  0  0  0  0  0  0  0  0  0  0  0
    0.2524    3.6449    3.6765 C   0  0  0  0  0  0  0  0  0  0  0  0
    1.4840    3.9471    3.0800 C   0  0  0  0  0  0  0  0  0  0  0  0
    1.7211    3.4858    1.7780 C   0  0  0  0  0  0  0  0  0  0  0  0
    0.8050    2.7263    1.0809 C   0  0  0  0  0  0  0  0  0  0  0  0
    1.0186    2.3876    0.0811 H   0  0  0  0  0  0  0  0  0  0  0  0
   -0.3813    2.4068    1.7163 C   0  0  0  0  0  0  0  0  0  0  0  0
   -0.6643    2.8561    2.9897 C   0  0  0  0  0  0  0  0  0  0  0  0
   -1.6074    2.5913    3.4415 H   0  0  0  0  0  0  0  0  0  0  0  0
   -1.4461    5.9665    3.9788 C   0  0  0  0  0  0  0  0  0  0  0  0
   -2.2335    5.2010    3.9893 H   0  0  0  0  0  0  0  0  0  0  0  0
   -1.8975    6.9276    4.2622 H   0  0  0  0  0  0  0  0  0  0  0  0
   -0.8654    6.1250    2.5969 C   0  0  1  0  0  3  0  0  0  0  0  0
   -1.4762    5.6296    1.4573 C   0  0  0  0  0  0  0  0  0  0  0  0
   -2.4104    5.0959    1.5347 H   0  0  0  0  0  0  0  0  0  0  0  0
   -0.8698    5.8261    0.2257 C   0  0  0  0  0  0  0  0  0  0  0  0
   -1.3268    5.4448   -0.6737 H   0  0  0  0  0  0  0  0  0  0  0  0
    0.3317    6.5171    0.1804 C   0  0  0  0  0  0  0  0  0  0  0  0
    0.8396    6.6892   -0.7542 H   0  0  0  0  0  0  0  0  0  0  0  0
    0.8827    6.9902    1.3579 C   0  0  0  0  0  0  0  0  0  0  0  0
    1.8127    7.5472    1.3814 H   0  0  0  0  0  0  0  0  0  0  0  0
   -0.3853    5.6587    4.9529 N   0  0  1  0  0  4  0  0  0  0  0  0
    0.2943    6.8020    2.5399 N   0  0  0  0  0  0  0  0  0  0  0  0
    2.1101    6.9481    6.0408 O   0  0  0  0  0  0  0  0  0  0  0  0
    2.4558    4.7024    3.6535 O   0  0  0  0  0  0  0  0  0  0  0  0
    2.4409    4.6712    4.6244 H   0  0  0  0  0  0  0  0  0  0  0  0
    3.8766    6.4413    7.9796 F   0  0  0  0  0  0  0  0  0  0  0  0
    0.5907    4.2930   10.5674 F   0  0  0  0  0  0  0  0  0  0  0  0
    2.8751    3.8103    1.1846 F   0  0  0  0  0  0  0  0  0  0  0  0
   -1.2943    1.6640    1.0677 F   0  0  0  0  0  0  0  0  0  0  0  0
    2.5842    8.5814    3.5647 Cl  0  0  0  0  0  0  0  0  0  0  0  0
    1.1660    7.0126    4.2646 Pd  0  0  2  0  0  0  0  0  0  0  0  0
  1  2  1  0  0  0  0
  1  4  1  0  0  0  0
  3  1  1  0  0  0  0
  4 10  1  0  0  0  0
  5  4  2  0  0  0  0
  5  6  1  0  0  0  0
  6  7  2  0  0  0  0
  7  9  1  0  0  0  0
  7  8  1  0  0  0  0
  9 41  1  0  0  0  0
 10 11  1  0  0  0  0
 10  9  2  0  0  0  0
 12 14  1  0  0  0  0
 12 13  1  0  0  0  0
 15 12  1  0  0  0  0
 16 38  1  0  0  0  0
 16 15  1  0  0  0  0
 17 16  2  0  0  0  0
 18 20  2  0  0  0  0
 18 17  1  0  0  0  0
 19 18  1  0  0  0  0
 20 21  1  0  0  0  0
 21 22  1  0  0  0  0
 21 15  2  0  0  0  0
 23 24  1  0  0  0  0
 23 25  1  0  0  0  0
 23 35  1  0  0  0  0
 26 27  1  6  0  0  0
 26 23  1  0  0  0  0
 27 28  1  0  0  0  0
 29 27  2  0  0  0  0
 30 29  1  0  0  0  0
 31 29  1  0  0  0  0
 31 33  2  0  0  0  0
 32 31  1  0  0  0  0
 33 34  1  0  0  0  0
 33 36  1  0  0  0  0
 35 12  1  1  0  0  0
 35  1  1  0  0  0  0
 36 26  1  0  0  0  0
 36 45  1  0  0  0  0
 37  5  1  0  0  0  0
 38 39  1  0  0  0  0
 40  6  1  0  0  0  0
 42 17  1  0  0  0  0
 43 20  1  0  0  0  0
 45 44  1  1  0  0  0
 45 35  1  0  0  0  0
 45 37  1  0  0  0  0
M  END
$$$$
