CSD_code = WIKYEV | q = 0 | S = 0 | Stoichiometry = C14H16BClN4Zr | MND = 11
 OpenBabel04212202113D

 37 41  0  0  1  0  0  0  0  0999 V2000
    7.3223    2.3127   13.1937 Zr  0  0  0  0  0  0  0  0  0  0  0  0
    7.2651    0.4468   14.6887 Cl  0  0  0  0  0  0  0  0  0  0  0  0
    4.9299    1.4989   11.0525 B   0  0  0  0  0  0  0  0  0  0  0  0
    5.1812    2.2265   13.4347 N   0  0  2  0  0  0  0  0  0  0  0  0
    4.5127    2.1873   14.5946 C   0  0  0  0  0  3  0  0  0  0  0  0
    4.9415    2.5971   15.4978 H   0  0  0  0  0  0  0  0  0  0  0  0
    4.4185    1.6305   12.5094 N   0  0  0  0  0  0  0  0  0  0  0  0
    3.2834    1.5700   14.4028 C   0  0  0  0  0  0  0  0  0  0  0  0
    2.5172    1.3906   15.1284 H   0  0  0  0  0  0  0  0  0  0  0  0
    3.2721    1.2305   13.0587 C   0  0  0  0  0  0  0  0  0  0  0  0
    2.5161    0.7396   12.4795 H   0  0  0  0  0  0  0  0  0  0  0  0
    7.2400    0.7704   11.6899 N   0  0  1  0  0  0  0  0  0  0  0  0
    8.0286   -0.3103   11.6222 C   0  0  0  0  0  3  0  0  0  0  0  0
    9.0243   -0.2997   12.0414 H   0  0  0  0  0  0  0  0  0  0  0  0
    6.0731    0.4544   11.1136 N   0  0  0  0  0  0  0  0  0  0  0  0
    7.3583   -1.3357   10.9680 C   0  0  0  0  0  0  0  0  0  0  0  0
    7.7160   -2.3205   10.7493 H   0  0  0  0  0  0  0  0  0  0  0  0
    6.1154   -0.8004   10.6668 C   0  0  0  0  0  0  0  0  0  0  0  0
    5.2805   -1.2420   10.1612 H   0  0  0  0  0  0  0  0  0  0  0  0
    7.5996    4.1815   11.6109 C   0  0  0  0  0  0  0  0  0  0  0  0
    7.2241    4.5465   10.6567 H   0  0  0  0  0  0  0  0  0  0  0  0
    6.8587    4.6798   12.7075 C   0  0  0  0  0  0  0  0  0  0  0  0
    6.0356    5.3216   12.3950 H   0  0  0  0  0  0  0  0  0  0  0  0
    6.9444    4.5573   14.1149 C   0  0  0  0  0  3  0  0  0  0  0  0
    6.1737    5.1313   14.6310 H   0  0  0  0  0  0  0  0  0  0  0  0
    7.8158    3.8849   15.0068 C   0  0  2  0  0  0  0  0  0  0  0  0
    7.5681    4.0634   16.0540 H   0  0  0  0  0  0  0  0  0  0  0  0
    8.9683    3.0782   14.8522 C   0  0  0  0  0  3  0  0  0  0  0  0
    9.3763    2.7536   15.8097 H   0  0  0  0  0  0  0  0  0  0  0  0
    9.6940    2.5527   13.7565 C   0  0  2  0  0  0  0  0  0  0  0  0
   10.5382    1.9389   14.0731 H   0  0  0  0  0  0  0  0  0  0  0  0
    9.5975    2.6638   12.3481 C   0  0  0  0  0  0  0  0  0  0  0  0
   10.3946    2.1319   11.8269 H   0  0  0  0  0  0  0  0  0  0  0  0
    8.7345    3.3531   11.4615 C   0  0  0  0  0  0  0  0  0  0  0  0
    9.0134    3.2147   10.4169 H   0  0  0  0  0  0  0  0  0  0  0  0
    5.4081    2.5510   10.7330 H   0  0  0  0  0  0  0  0  0  0  0  0
    4.0605    1.0978   10.3600 H   0  0  0  0  0  0  0  0  0  0  0  0
  1  4  1  0  0  0  0
  1 30  1  0  0  0  0
  1  2  1  0  0  0  0
  1 26  1  0  0  0  0
  3 15  1  0  0  0  0
  3  7  1  0  0  0  0
  4  5  1  1  0  0  0
  5  6  1  0  0  0  0
  7 10  1  0  0  0  0
  7  4  1  0  0  0  0
  8  5  1  0  0  0  0
  8  9  1  0  0  0  0
 10  8  2  0  0  0  0
 11 10  1  0  0  0  0
 12 13  1  1  0  0  0
 12  1  1  0  0  0  0
 13 14  1  0  0  0  0
 15 12  1  0  0  0  0
 16 13  1  0  0  0  0
 17 16  1  0  0  0  0
 18 16  2  0  0  0  0
 18 15  1  0  0  0  0
 19 18  1  0  0  0  0
 20 22  2  0  0  0  0
 21 20  1  0  0  0  0
 22 24  1  0  0  0  0
 23 22  1  0  0  0  0
 24 25  1  0  0  0  0
 24 26  1  0  0  0  0
 26 27  1  1  0  0  0
 28 26  1  0  0  0  0
 28 29  1  0  0  0  0
 30 31  1  1  0  0  0
 30 28  1  0  0  0  0
 32 30  1  0  0  0  0
 33 32  1  0  0  0  0
 34 20  1  0  0  0  0
 34 32  2  0  0  0  0
 35 34  1  0  0  0  0
 36  3  1  0  0  0  0
 37  3  1  0  0  0  0
M  END
$$$$
