CSD_code = WILCAY | q = 0 | S = 0 | Stoichiometry = C16H18Cl3IrN2 | MND = 7
 OpenBabel04212202113D

 40 41  0  0  1  0  0  0  0  0999 V2000
    5.3178    2.2276   10.1252 Ir  0  0  2  0  0  0  0  0  0  0  0  0
    5.3191   -0.0678   10.1284 Cl  0  0  0  0  0  0  0  0  0  0  0  0
    7.5858    2.2135    9.4417 Cl  0  0  0  0  0 15  0  0  0  0  0  0
    4.6862    2.2218    8.1522 N   0  0  0  0  0  0  0  0  0  0  0  0
    5.3203    4.4312    9.4472 C   0  0  0  0  0  3  0  0  0  0  0  0
    6.2529    4.5604    8.9051 H   0  0  0  0  0  0  0  0  0  0  0  0
    4.0677    4.5131    8.6113 C   0  0  2  0  0  0  0  0  0  0  0  0
    3.1975    4.3947    9.2694 H   0  0  0  0  0  0  0  0  0  0  0  0
    4.0908    3.3285    7.6778 C   0  0  1  0  0  3  0  0  0  0  0  0
    3.5532    3.3643    6.4003 C   0  0  0  0  0  0  0  0  0  0  0  0
    3.0637    4.2576    6.0500 H   0  0  0  0  0  0  0  0  0  0  0  0
    3.6511    2.2536    5.5798 C   0  0  0  0  0  0  0  0  0  0  0  0
    3.2330    2.2682    4.5850 H   0  0  0  0  0  0  0  0  0  0  0  0
    4.3104    1.1377    6.0624 C   0  0  0  0  0  0  0  0  0  0  0  0
    4.4386    0.2533    5.4603 H   0  0  0  0  0  0  0  0  0  0  0  0
    4.8087    1.1646    7.3521 C   0  0  0  0  0  0  0  0  0  0  0  0
    5.3206    0.3029    7.7550 H   0  0  0  0  0  0  0  0  0  0  0  0
    3.9935    5.8666    7.9040 C   0  0  0  0  0  0  0  0  0  0  0  0
    4.1322    6.6602    8.6344 H   0  0  0  0  0  0  0  0  0  0  0  0
    3.0250    6.0110    7.4336 H   0  0  0  0  0  0  0  0  0  0  0  0
    4.7727    5.9509    7.1498 H   0  0  0  0  0  0  0  0  0  0  0  0
    5.9513    2.2217   12.0975 N   0  0  0  0  0  0  0  0  0  0  0  0
    5.3168    4.4312   10.8029 C   0  0  2  0  0  0  0  0  0  0  0  0
    4.3843    4.5604   11.3450 H   0  0  0  0  0  0  0  0  0  0  0  0
    6.5694    4.5132   11.6389 C   0  0  2  0  0  0  0  0  0  0  0  0
    7.4397    4.3949   10.9808 H   0  0  0  0  0  0  0  0  0  0  0  0
    6.5464    3.3284   12.5722 C   0  0  1  0  0  3  0  0  0  0  0  0
    7.0838    3.3642   13.8498 C   0  0  0  0  0  0  0  0  0  0  0  0
    7.5733    4.2575   14.2002 H   0  0  0  0  0  0  0  0  0  0  0  0
    6.9858    2.2535   14.6702 C   0  0  0  0  0  0  0  0  0  0  0  0
    7.4038    2.2680   15.6651 H   0  0  0  0  0  0  0  0  0  0  0  0
    6.3266    1.1376   14.1874 C   0  0  0  0  0  0  0  0  0  0  0  0
    6.1983    0.2532   14.7896 H   0  0  0  0  0  0  0  0  0  0  0  0
    5.8286    1.1644   12.8976 C   0  0  0  0  0  0  0  0  0  0  0  0
    5.3168    0.3028   12.4945 H   0  0  0  0  0  0  0  0  0  0  0  0
    6.6435    5.8666   12.3462 C   0  0  0  0  0  0  0  0  0  0  0  0
    6.5047    6.6602   11.6159 H   0  0  0  0  0  0  0  0  0  0  0  0
    7.6120    6.0111   12.8167 H   0  0  0  0  0  0  0  0  0  0  0  0
    5.8643    5.9508   13.1005 H   0  0  0  0  0  0  0  0  0  0  0  0
    3.0504    2.2135   10.8088 Cl  0  0  0  0  0 15  0  0  0  0  0  0
  1  2  1  1  0  0  0
  1 23  1  0  0  0  0
  1 22  1  0  0  0  0
  4  1  1  0  0  0  0
  5 23  1  0  0  0  0
  6  5  1  0  0  0  0
  7  8  1  1  0  0  0
  7  5  1  0  0  0  0
  9 10  1  6  0  0  0
  9  4  1  0  0  0  0
  9  7  1  0  0  0  0
 11 10  1  0  0  0  0
 12 14  1  0  0  0  0
 12 10  2  0  0  0  0
 13 12  1  0  0  0  0
 14 16  2  0  0  0  0
 15 14  1  0  0  0  0
 16 17  1  0  0  0  0
 16  4  1  0  0  0  0
 18  7  1  0  0  0  0
 18 19  1  0  0  0  0
 20 18  1  0  0  0  0
 21 18  1  0  0  0  0
 22 27  1  0  0  0  0
 22 34  1  0  0  0  0
 23 24  1  1  0  0  0
 23 25  1  0  0  0  0
 25 26  1  6  0  0  0
 25 36  1  0  0  0  0
 25 27  1  0  0  0  0
 27 28  1  1  0  0  0
 28 29  1  0  0  0  0
 28 30  2  0  0  0  0
 30 31  1  0  0  0  0
 32 30  1  0  0  0  0
 32 33  1  0  0  0  0
 34 32  2  0  0  0  0
 35 34  1  0  0  0  0
 36 38  1  0  0  0  0
 36 39  1  0  0  0  0
 37 36  1  0  0  0  0
M  END
$$$$
