CSD_code = WILFOP | q = 0 | S = 0 | Stoichiometry = C11H7BrN3O3Re | MND = 6
 OpenBabel04212202113D

 26 28  0  0  0  0  0  0  0  0999 V2000
    1.9184    9.1448    8.0880 Re  0  0  0  0  0  0  0  0  0  0  0  0
    1.3663   10.9656    6.3623 Br  0  0  0  0  0  0  0  0  0  0  0  0
    3.0484    8.3075    6.4784 N   0  0  0  0  0  0  0  0  0  0  0  0
    3.8727   10.1606    8.1733 N   0  0  0  0  0  0  0  0  0  0  0  0
   -0.7217    7.7099    7.3536 O   0  0  0  0  0  1  0  0  0  0  0  0
    0.5611   10.9341   10.2135 O   0  0  0  0  0  1  0  0  0  0  0  0
    2.8190    7.4446    5.4996 N   0  0  0  0  0  0  0  0  0  0  0  0
    1.9473    6.9356    5.4541 H   0  0  0  0  0  0  0  0  0  0  0  0
    2.8452    7.0009   10.1081 O   0  0  0  0  0  1  0  0  0  0  0  0
    4.7141    9.8729    7.1614 C   0  0  0  0  0  0  0  0  0  0  0  0
    4.2456    8.8511    6.2471 C   0  0  0  0  0  0  0  0  0  0  0  0
    0.2447    8.2319    7.6829 C   0  0  0  0  0  2  0  0  0  0  0  0
    2.4966    7.7943    9.3559 C   0  0  0  0  0  2  0  0  0  0  0  0
    1.0463   10.2220    9.4607 C   0  0  0  0  0  2  0  0  0  0  0  0
    5.9274   10.5357    6.9971 C   0  0  0  0  0  0  0  0  0  0  0  0
    6.5676   10.2769    6.1694 H   0  0  0  0  0  0  0  0  0  0  0  0
    4.7902    8.2991    5.0718 C   0  0  0  0  0  0  0  0  0  0  0  0
    5.7307    8.5294    4.6180 H   0  0  0  0  0  0  0  0  0  0  0  0
    5.4075   11.8174    8.9348 C   0  0  0  0  0  0  0  0  0  0  0  0
    5.6367   12.5839    9.6569 H   0  0  0  0  0  0  0  0  0  0  0  0
    6.2790   11.5244    7.8951 C   0  0  0  0  0  0  0  0  0  0  0  0
    7.2096   12.0595    7.7863 H   0  0  0  0  0  0  0  0  0  0  0  0
    4.2224   11.1114    9.0336 C   0  0  0  0  0  0  0  0  0  0  0  0
    3.5226   11.3198    9.8326 H   0  0  0  0  0  0  0  0  0  0  0  0
    3.8447    7.4096    4.6255 C   0  0  0  0  0  0  0  0  0  0  0  0
    3.8342    6.7743    3.7637 H   0  0  0  0  0  0  0  0  0  0  0  0
  1  4  1  0  0  0  0
  1 13  1  0  0  0  0
  1 14  1  0  0  0  0
  2  1  1  0  0  0  0
  3  1  1  0  0  0  0
  4 23  1  0  0  0  0
  5 12  1  0  0  0  0
  7  3  1  0  0  0  0
  8  7  1  0  0  0  0
 10  4  1  0  0  0  0
 11  3  1  0  0  0  0
 11 10  2  0  0  0  0
 12  1  1  0  0  0  0
 13  9  1  0  0  0  0
 14  6  1  0  0  0  0
 15 10  1  0  0  0  0
 15 21  2  0  0  0  0
 16 15  1  0  0  0  0
 17 11  1  0  0  0  0
 18 17  1  0  0  0  0
 19 23  2  0  0  0  0
 19 20  1  0  0  0  0
 21 19  1  0  0  0  0
 22 21  1  0  0  0  0
 23 24  1  0  0  0  0
 25 17  2  0  0  0  0
 25  7  1  0  0  0  0
 26 25  1  0  0  0  0
M  END
$$$$
