CSD_code = WIMJUY | q = 0 | S = 0 | Stoichiometry = C13H10ClN4O3Re | MND = 6
 OpenBabel04212202113D

 32 34  0  0  1  0  0  0  0  0999 V2000
    2.8168    1.7888    8.4960 C   0  0  0  0  0  2  0  0  0  0  0  0
    5.1626    2.1173    7.0581 C   0  0  0  0  0  2  0  0  0  0  0  0
    2.6584    2.3175    5.6849 C   0  0  0  0  0  2  0  0  0  0  0  0
    0.8365    4.3389    8.2696 C   0  0  0  0  0  3  0  0  0  0  0  0
    0.5828    3.3184    8.5252 H   0  0  0  0  0  0  0  0  0  0  0  0
    0.0165    5.3962    8.6640 C   0  0  0  0  0  0  0  0  0  0  0  0
    1.4242    6.8456    7.6363 C   0  0  0  0  0  0  0  0  0  0  0  0
    1.6422    7.8733    7.3852 H   0  0  0  0  0  0  0  0  0  0  0  0
    2.2675    5.8022    7.2497 C   0  0  0  0  0  0  0  0  0  0  0  0
    3.5035    5.9758    6.4986 C   0  0  1  0  0  3  0  0  0  0  0  0
    4.0061    7.2081    6.0774 C   0  0  0  0  0  0  0  0  0  0  0  0
    3.4884    8.1328    6.2862 H   0  0  0  0  0  0  0  0  0  0  0  0
    5.8110    6.2095    5.1379 C   0  0  0  0  0  0  0  0  0  0  0  0
    5.3168    4.9675    5.5377 C   0  0  0  0  0  0  0  0  0  0  0  0
    5.8567    4.0585    5.3061 H   0  0  0  0  0  0  0  0  0  0  0  0
   -1.2111    5.1733    9.4760 C   0  0  0  0  0  0  0  0  0  0  0  0
   -0.9328    4.9817   10.5123 H   0  0  0  0  0  0  0  0  0  0  0  0
   -1.7655    4.3116    9.1115 H   0  0  0  0  0  0  0  0  0  0  0  0
   -1.8354    6.0613    9.4447 H   0  0  0  0  0  0  0  0  0  0  0  0
    7.1002    6.3368    4.4040 C   0  0  0  0  0  0  0  0  0  0  0  0
    7.2529    7.3723    4.1153 H   0  0  0  0  0  0  0  0  0  0  0  0
    7.0996    5.7036    3.5189 H   0  0  0  0  0  0  0  0  0  0  0  0
    7.9235    6.0190    5.0424 H   0  0  0  0  0  0  0  0  0  0  0  0
    4.4528    4.3166    9.0759 Cl  0  0  0  0  0  0  0  0  0  0  0  0
    1.9536    4.5311    7.5788 N   0  0  0  0  0  0  0  0  0  0  0  0
    4.1836    4.8438    6.2172 N   0  0  0  0  0  0  0  0  0  0  0  0
    0.3247    6.6469    8.3319 N   0  0  0  0  0  0  0  0  0  0  0  0
    5.1380    7.3225    5.4148 N   0  0  0  0  0  0  0  0  0  0  0  0
    6.1900    1.6194    7.0057 O   0  0  0  0  0  1  0  0  0  0  0  0
    2.1508    1.8783    4.7532 O   0  0  0  0  0  1  0  0  0  0  0  0
    2.4252    1.0933    9.3138 O   0  0  0  0  0  1  0  0  0  0  0  0
    3.4983    3.1229    7.2425 Re  0  0  0  0  0  0  0  0  0  0  0  0
  1 31  1  0  0  0  0
  2 32  1  0  0  0  0
  3 32  1  0  0  0  0
  4  5  1  0  0  0  0
  4  6  1  0  0  0  0
  6 16  1  0  0  0  0
  7 27  1  0  0  0  0
  8  7  1  0  0  0  0
  9 25  1  0  0  0  0
  9  7  2  0  0  0  0
 10 11  1  1  0  0  0
 10  9  1  0  0  0  0
 11 12  1  0  0  0  0
 13 28  1  0  0  0  0
 13 14  2  0  0  0  0
 14 26  1  0  0  0  0
 15 14  1  0  0  0  0
 16 17  1  0  0  0  0
 18 16  1  0  0  0  0
 19 16  1  0  0  0  0
 20 23  1  0  0  0  0
 20 13  1  0  0  0  0
 21 20  1  0  0  0  0
 22 20  1  0  0  0  0
 25  4  1  0  0  0  0
 26 10  1  0  0  0  0
 26 32  1  0  0  0  0
 27  6  2  0  0  0  0
 28 11  2  0  0  0  0
 29  2  1  0  0  0  0
 30  3  1  0  0  0  0
 32 25  1  0  0  0  0
 32  1  1  0  0  0  0
 32 24  1  0  0  0  0
M  END
$$$$
