CSD_code = WIMTUK | q = -1 | S = 0 | Stoichiometry = C4H14Cl4N2Rh(1-) | MND = 6
 OpenBabel04212202113D

 25 24  0  0  0  0  0  0  0  0999 V2000
    9.2179   -0.0011   -0.0002 Rh  0  0  0  0  0  0  0  0  0  0  0  0
    9.0826    2.2486    0.6379 Cl  0  0  0  0  0  0  0  0  0  0  0  0
    6.8965   -0.1671    0.2620 Cl  0  0  0  0  0  0  0  0  0  0  0  0
    9.6918   -0.7260    1.9146 N   0  0  0  0  0  4  0  0  0  0  0  0
   10.4420   -1.3714    1.6377 H   0  0  0  0  0  0  0  0  0  0  0  0
   10.2653    0.2502    2.8391 C   0  0  0  0  0  0  0  0  0  0  0  0
   11.0892    0.7703    2.3510 H   0  0  0  0  0  0  0  0  0  0  0  0
   10.6327   -0.2459    3.7469 H   0  0  0  0  0  0  0  0  0  0  0  0
    9.5046    0.9822    3.1112 H   0  0  0  0  0  0  0  0  0  0  0  0
    8.6487   -1.5140    2.5686 C   0  0  0  0  0  0  0  0  0  0  0  0
    7.8127   -0.8639    2.8285 H   0  0  0  0  0  0  0  0  0  0  0  0
    9.0361   -1.9890    3.4797 H   0  0  0  0  0  0  0  0  0  0  0  0
    8.2913   -2.2817    1.8824 H   0  0  0  0  0  0  0  0  0  0  0  0
    9.3573   -2.2494   -0.6387 Cl  0  0  0  0  0  0  0  0  0  0  0  0
   11.5395    0.1679   -0.2611 Cl  0  0  0  0  0  0  0  0  0  0  0  0
    8.7463    0.7261   -1.9146 N   0  0  0  0  0  4  0  0  0  0  0  0
    7.9961    1.3715   -1.6377 H   0  0  0  0  0  0  0  0  0  0  0  0
    8.1728   -0.2501   -2.8392 C   0  0  0  0  0  0  0  0  0  0  0  0
    7.3489   -0.7702   -2.3511 H   0  0  0  0  0  0  0  0  0  0  0  0
    7.8054    0.2460   -3.7469 H   0  0  0  0  0  0  0  0  0  0  0  0
    8.9335   -0.9821   -3.1112 H   0  0  0  0  0  0  0  0  0  0  0  0
    9.7894    1.5141   -2.5685 C   0  0  0  0  0  0  0  0  0  0  0  0
   10.6254    0.8639   -2.8285 H   0  0  0  0  0  0  0  0  0  0  0  0
    9.4020    1.9892   -3.4796 H   0  0  0  0  0  0  0  0  0  0  0  0
   10.1469    2.2818   -1.8823 H   0  0  0  0  0  0  0  0  0  0  0  0
  1  3  1  0  0  0  0
  1  2  1  0  0  0  0
  1  4  1  0  0  0  0
  4 10  1  0  0  0  0
  4  6  1  0  0  0  0
  5  4  1  0  0  0  0
  6  9  1  0  0  0  0
  6  8  1  0  0  0  0
  7  6  1  0  0  0  0
 10 11  1  0  0  0  0
 10 12  1  0  0  0  0
 13 10  1  0  0  0  0
 14  1  1  0  0  0  0
 15  1  1  0  0  0  0
 16 17  1  0  0  0  0
 16  1  1  0  0  0  0
 18 19  1  0  0  0  0
 18 16  1  0  0  0  0
 20 18  1  0  0  0  0
 21 18  1  0  0  0  0
 22 16  1  0  0  0  0
 22 25  1  0  0  0  0
 23 22  1  0  0  0  0
 24 22  1  0  0  0  0
M  END
$$$$
