CSD_code = WINCOO | q = 1 | S = 0 | Stoichiometry = C15H11ClN3Pt(1+) | MND = 4
 OpenBabel04212202113D

 31 35  0  0  0  0  0  0  0  0999 V2000
    0.6410    1.6516   -1.7500 N   0  0  0  0  0  0  0  0  0  0  0  0
   -0.1576    1.6632   -2.8130 C   0  0  0  0  0  3  0  0  0  0  0  0
   -1.2216    1.6887   -2.6124 H   0  0  0  0  0  0  0  0  0  0  0  0
    0.3318    1.6442   -4.1093 C   0  0  0  0  0  0  0  0  0  0  0  0
   -0.3533    1.6557   -4.9409 H   0  0  0  0  0  0  0  0  0  0  0  0
    1.7037    1.6106   -4.3077 C   0  0  0  0  0  0  0  0  0  0  0  0
    2.1174    1.5944   -5.3037 H   0  0  0  0  0  0  0  0  0  0  0  0
    2.5407    1.5982   -3.2028 C   0  0  0  0  0  0  0  0  0  0  0  0
    3.6105    1.5722   -3.3296 H   0  0  0  0  0  0  0  0  0  0  0  0
    1.9918    1.6201   -1.9257 C   0  0  0  0  0  0  0  0  0  0  0  0
    0.1729    1.6916    2.1870 N   0  0  0  0  0  0  0  0  0  0  0  0
   -0.8530    1.7167    3.0325 C   0  0  0  0  0  0  0  0  0  0  0  0
   -1.8403    1.7268    2.5874 H   0  0  0  0  0  0  0  0  0  0  0  0
   -0.6815    1.7301    4.4077 C   0  0  0  0  0  0  0  0  0  0  0  0
   -1.5425    1.7507    5.0552 H   0  0  0  0  0  0  0  0  0  0  0  0
    0.6058    1.7168    4.9232 C   0  0  0  0  0  0  0  0  0  0  0  0
    0.7740    1.7276    5.9885 H   0  0  0  0  0  0  0  0  0  0  0  0
    1.6787    1.6889    4.0460 C   0  0  0  0  0  0  0  0  0  0  0  0
    2.6889    1.6776    4.4212 H   0  0  0  0  0  0  0  0  0  0  0  0
    1.4448    1.6763    2.6757 C   0  0  0  0  0  0  0  0  0  0  0  0
    2.0159    1.6416    0.4107 N   0  0  0  0  0  0  0  0  0  0  0  0
    2.7842    1.6146   -0.6890 C   0  0  0  0  0  0  0  0  0  0  0  0
    4.1684    1.5881   -0.5496 C   0  0  0  0  0  0  0  0  0  0  0  0
    4.8148    1.5648   -1.4107 H   0  0  0  0  0  0  0  0  0  0  0  0
    4.7075    1.5928    0.7311 C   0  0  0  0  0  0  0  0  0  0  0  0
    5.7781    1.5733    0.8584 H   0  0  0  0  0  0  0  0  0  0  0  0
    3.8835    1.6224    1.8496 C   0  0  0  0  0  0  0  0  0  0  0  0
    4.3103    1.6265    2.8384 H   0  0  0  0  0  0  0  0  0  0  0  0
    2.5052    1.6461    1.6601 C   0  0  0  0  0  0  0  0  0  0  0  0
   -2.0710    1.7157   -0.0680 Cl  0  0  0  0  0  0  0  0  0  0  0  0
    0.1323    1.6762    0.1856 Pt  0  0  2  0  0  0  0  0  0  0  0  0
  1 31  1  0  0  0  0
  2  3  1  0  0  0  0
  2  1  1  0  0  0  0
  4  2  1  0  0  0  0
  5  4  1  0  0  0  0
  6  4  2  0  0  0  0
  6  8  1  0  0  0  0
  7  6  1  0  0  0  0
  8 10  2  0  0  0  0
  9  8  1  0  0  0  0
 10  1  1  0  0  0  0
 10 22  1  0  0  0  0
 11 20  1  0  0  0  0
 11 12  1  0  0  0  0
 12 14  2  0  0  0  0
 13 12  1  0  0  0  0
 14 16  1  0  0  0  0
 14 15  1  0  0  0  0
 16 17  1  0  0  0  0
 18 19  1  0  0  0  0
 18 16  2  0  0  0  0
 20 18  1  0  0  0  0
 21 29  1  0  0  0  0
 22 23  2  0  0  0  0
 22 21  1  0  0  0  0
 23 25  1  0  0  0  0
 24 23  1  0  0  0  0
 25 26  1  0  0  0  0
 25 27  2  0  0  0  0
 27 28  1  0  0  0  0
 29 27  1  0  0  0  0
 29 20  2  0  0  0  0
 31 30  1  1  0  0  0
 31 21  1  0  0  0  0
 31 11  1  0  0  0  0
M  END
$$$$
