CSD_code = WINJIO | q = 0 | S = 0 | Stoichiometry = C33H25ClCuN2O2P | MND = 4
 OpenBabel04212202113D

 65 71  0  0  0  0  0  0  0  0999 V2000
    4.5476   24.3968    8.6876 Cu  0  0  1  0  0  0  0  0  0  0  0  0
    4.9106   25.4160    6.7789 Cl  0  0  0  0  0  0  0  0  0  0  0  0
    3.0284   22.9994    7.7809 P   0  0  0  0  0  4  0  0  0  0  0  0
   -1.1255   28.1508    8.7649 O   0  0  0  0  0  0  0  0  0  0  0  0
   -2.4114   29.2516    7.3459 O   0  0  0  0  0  0  0  0  0  0  0  0
    5.6769   23.9842   10.2136 N   0  0  0  0  0  0  0  0  0  0  0  0
    3.5517   25.5510   10.0693 N   0  0  0  0  0  0  0  0  0  0  0  0
    6.7176   23.1600   10.2771 C   0  0  0  0  0  3  0  0  0  0  0  0
    7.0151   22.7018    9.3441 H   0  0  0  0  0  0  0  0  0  0  0  0
    7.4014   22.9011   11.4467 C   0  0  0  0  0  0  0  0  0  0  0  0
    8.2478   22.2337   11.4449 H   0  0  0  0  0  0  0  0  0  0  0  0
    6.9842   23.5263   12.6233 C   0  0  0  0  0  0  0  0  0  0  0  0
    7.5035   23.3480   13.5525 H   0  0  0  0  0  0  0  0  0  0  0  0
    5.9006   24.3731   12.5726 C   0  0  0  0  0  0  0  0  0  0  0  0
    5.5387   24.8743   13.4574 H   0  0  0  0  0  0  0  0  0  0  0  0
    5.2542   24.5893   11.3489 C   0  0  0  0  0  0  0  0  0  0  0  0
    4.1139   25.4477   11.2243 C   0  0  0  0  0  3  0  0  0  0  0  0
    3.7746   25.9977   12.1021 H   0  0  0  0  0  0  0  0  0  0  0  0
    2.4068   26.2637    9.7978 C   0  0  0  0  0  0  0  0  0  0  0  0
    1.3173   26.3060   10.6840 C   0  0  0  0  0  0  0  0  0  0  0  0
    1.3865   25.8001   11.6362 H   0  0  0  0  0  0  0  0  0  0  0  0
    0.1477   26.9344   10.3258 C   0  0  0  0  0  0  0  0  0  0  0  0
   -0.7040   26.9508   10.9872 H   0  0  0  0  0  0  0  0  0  0  0  0
    0.0465   27.5588    9.0831 C   0  0  0  0  0  0  0  0  0  0  0  0
   -1.3250   28.7755    7.5623 C   0  0  0  0  0  0  0  0  0  0  0  0
   -0.1967   28.8079    6.6420 C   0  0  0  0  0  0  0  0  0  0  0  0
   -0.3714   29.3260    5.7127 H   0  0  0  0  0  0  0  0  0  0  0  0
    0.9740   28.2174    6.9390 C   0  0  0  0  0  0  0  0  0  0  0  0
    1.8117   28.2284    6.2572 H   0  0  0  0  0  0  0  0  0  0  0  0
    1.1364   27.5464    8.1962 C   0  0  0  0  0  0  0  0  0  0  0  0
    2.3026   26.8807    8.5557 C   0  0  0  0  0  0  0  0  0  0  0  0
    3.1352   26.8352    7.8681 H   0  0  0  0  0  0  0  0  0  0  0  0
    2.4338   21.6312    8.8298 C   0  0  0  0  0  0  0  0  0  0  0  0
    2.1441   20.3547    8.3646 C   0  0  0  0  0  0  0  0  0  0  0  0
    2.2498   20.1255    7.3140 H   0  0  0  0  0  0  0  0  0  0  0  0
    1.7213   19.3793    9.2506 C   0  0  0  0  0  0  0  0  0  0  0  0
    1.4935   18.3882    8.8863 H   0  0  0  0  0  0  0  0  0  0  0  0
    1.5892   19.6670   10.5991 C   0  0  0  0  0  0  0  0  0  0  0  0
    1.2577   18.9014   11.2847 H   0  0  0  0  0  0  0  0  0  0  0  0
    1.8907   20.9353   11.0704 C   0  0  0  0  0  0  0  0  0  0  0  0
    1.7969   21.1583   12.1235 H   0  0  0  0  0  0  0  0  0  0  0  0
    2.3198   21.9099   10.1902 C   0  0  0  0  0  0  0  0  0  0  0  0
    2.5762   22.9024   10.5429 H   0  0  0  0  0  0  0  0  0  0  0  0
    1.4961   23.8598    7.3284 C   0  0  0  0  0  0  0  0  0  0  0  0
    0.3632   23.8416    8.1353 C   0  0  0  0  0  0  0  0  0  0  0  0
    0.3519   23.2523    9.0418 H   0  0  0  0  0  0  0  0  0  0  0  0
   -0.7554   24.5686    7.7685 C   0  0  0  0  0  0  0  0  0  0  0  0
   -1.6360   24.5491    8.3939 H   0  0  0  0  0  0  0  0  0  0  0  0
   -0.7511   25.3149    6.6019 C   0  0  0  0  0  0  0  0  0  0  0  0
   -1.6305   25.8733    6.3155 H   0  0  0  0  0  0  0  0  0  0  0  0
    0.3867   25.3550    5.8102 C   0  0  0  0  0  0  0  0  0  0  0  0
    0.3940   25.9462    4.9064 H   0  0  0  0  0  0  0  0  0  0  0  0
    1.5131   24.6432    6.1749 C   0  0  0  0  0  0  0  0  0  0  0  0
    2.4165   24.6936    5.5830 H   0  0  0  0  0  0  0  0  0  0  0  0
    3.5140   22.1808    6.2366 C   0  0  0  0  0  0  0  0  0  0  0  0
    2.5933   21.7476    5.2865 C   0  0  0  0  0  0  0  0  0  0  0  0
    1.5358   21.9133    5.4430 H   0  0  0  0  0  0  0  0  0  0  0  0
    3.0396   21.1163    4.1401 C   0  0  0  0  0  0  0  0  0  0  0  0
    2.3265   20.7816    3.4006 H   0  0  0  0  0  0  0  0  0  0  0  0
    4.3959   20.9175    3.9348 C   0  0  0  0  0  0  0  0  0  0  0  0
    4.7372   20.4300    3.0335 H   0  0  0  0  0  0  0  0  0  0  0  0
    5.3138   21.3516    4.8771 C   0  0  0  0  0  0  0  0  0  0  0  0
    6.3708   21.2064    4.7101 H   0  0  0  0  0  0  0  0  0  0  0  0
    4.8740   21.9817    6.0266 C   0  0  0  0  0  0  0  0  0  0  0  0
    5.5759   22.3508    6.7635 H   0  0  0  0  0  0  0  0  0  0  0  0
  1  2  1  6  0  0  0
  1  7  1  0  0  0  0
  1  6  1  0  0  0  0
  3  1  1  0  0  0  0
  3 33  1  0  0  0  0
  4 24  1  0  0  0  0
  5 25  2  0  0  0  0
  6  8  1  0  0  0  0
  6 16  1  0  0  0  0
  7 17  1  0  0  0  0
  8 10  1  0  0  0  0
  9  8  1  0  0  0  0
 10 12  2  0  0  0  0
 11 10  1  0  0  0  0
 12 13  1  0  0  0  0
 14 12  1  0  0  0  0
 14 15  1  0  0  0  0
 16 14  2  0  0  0  0
 17 16  1  0  0  0  0
 17 18  1  0  0  0  0
 19  7  1  0  0  0  0
 19 20  1  0  0  0  0
 20 21  1  0  0  0  0
 22 20  2  0  0  0  0
 22 23  1  0  0  0  0
 24 22  1  0  0  0  0
 25  4  1  0  0  0  0
 26 28  2  0  0  0  0
 26 25  1  0  0  0  0
 27 26  1  0  0  0  0
 28 30  1  0  0  0  0
 29 28  1  0  0  0  0
 30 31  1  0  0  0  0
 30 24  2  0  0  0  0
 31 19  2  0  0  0  0
 32 31  1  0  0  0  0
 33 42  1  0  0  0  0
 34 33  2  0  0  0  0
 34 36  1  0  0  0  0
 35 34  1  0  0  0  0
 36 38  2  0  0  0  0
 37 36  1  0  0  0  0
 38 40  1  0  0  0  0
 38 39  1  0  0  0  0
 40 41  1  0  0  0  0
 42 43  1  0  0  0  0
 42 40  2  0  0  0  0
 44  3  1  0  0  0  0
 44 45  1  0  0  0  0
 45 46  1  0  0  0  0
 47 45  2  0  0  0  0
 47 48  1  0  0  0  0
 49 47  1  0  0  0  0
 50 49  1  0  0  0  0
 51 53  1  0  0  0  0
 51 49  2  0  0  0  0
 52 51  1  0  0  0  0
 53 44  2  0  0  0  0
 54 53  1  0  0  0  0
 55  3  1  0  0  0  0
 56 57  1  0  0  0  0
 56 55  2  0  0  0  0
 58 56  1  0  0  0  0
 59 58  1  0  0  0  0
 60 58  2  0  0  0  0
 60 62  1  0  0  0  0
 61 60  1  0  0  0  0
 62 64  2  0  0  0  0
 63 62  1  0  0  0  0
 64 55  1  0  0  0  0
 64 65  1  0  0  0  0
M  END
$$$$
