CSD_code = WIQYIG | q = 0 | S = 0 | Stoichiometry = C14H13AuCl2N4O2 | MND = 4
 OpenBabel04212202113D

 36 38  0  0  0  0  0  0  0  0999 V2000
    5.6432    4.6512   10.5060 Au  0  0  0  0  0  0  0  0  0  0  0  0
    5.2810    4.2321   12.6843 Cl  0  0  0  0  0  0  0  0  0  0  0  0
    6.2763    6.7202   11.0081 Cl  0  0  0  0  0  0  0  0  0  0  0  0
    5.7989    3.6691    6.5910 O   0  0  0  0  0  0  0  0  0  0  0  0
    3.7978    9.0950    7.9684 O   0  0  0  0  0  0  0  0  0  0  0  0
    5.1296    2.7589    9.9386 N   0  0  0  0  0  0  0  0  0  0  0  0
    5.9249    4.8423    8.5382 N   0  0  0  0  0  0  0  0  0  0  0  0
    5.3390    8.0159    6.6994 N   0  0  0  0  0  0  0  0  0  0  0  0
    6.1004    8.1707    6.0527 H   0  0  0  0  0  0  0  0  0  0  0  0
    6.2852   10.2828    5.7495 N   0  0  0  0  0  0  0  0  0  0  0  0
    4.7312    1.7664   10.7259 C   0  0  0  0  0  3  0  0  0  0  0  0
    4.6470    2.0009   11.7787 H   0  0  0  0  0  0  0  0  0  0  0  0
    4.4483    0.5127   10.2139 C   0  0  0  0  0  0  0  0  0  0  0  0
    4.1253   -0.2722   10.8786 H   0  0  0  0  0  0  0  0  0  0  0  0
    4.5879    0.2918    8.8498 C   0  0  0  0  0  0  0  0  0  0  0  0
    4.3765   -0.6781    8.4259 H   0  0  0  0  0  0  0  0  0  0  0  0
    5.0012    1.3379    8.0427 C   0  0  0  0  0  0  0  0  0  0  0  0
    5.1289    1.2452    6.9750 H   0  0  0  0  0  0  0  0  0  0  0  0
    5.2654    2.5689    8.6254 C   0  0  0  0  0  0  0  0  0  0  0  0
    5.6911    3.7457    7.8018 C   0  0  0  0  0  0  0  0  0  0  0  0
    6.2820    6.0497    7.8290 C   0  0  0  0  0  0  0  0  0  0  0  0
    7.0238    5.7958    7.0638 H   0  0  0  0  0  0  0  0  0  0  0  0
    6.7200    6.7504    8.5396 H   0  0  0  0  0  0  0  0  0  0  0  0
    5.0500    6.6907    7.1671 C   0  0  0  0  0  0  0  0  0  0  0  0
    4.7150    6.0539    6.3418 H   0  0  0  0  0  0  0  0  0  0  0  0
    4.2448    6.7857    7.9020 H   0  0  0  0  0  0  0  0  0  0  0  0
    4.7202    9.1150    7.1769 C   0  0  0  0  0  0  0  0  0  0  0  0
    5.2763   10.3867    6.6113 C   0  0  0  0  0  0  0  0  0  0  0  0
    4.7404   11.6090    7.0028 C   0  0  0  0  0  0  0  0  0  0  0  0
    3.9234   11.6200    7.7068 H   0  0  0  0  0  0  0  0  0  0  0  0
    5.2821   12.7678    6.4726 C   0  0  0  0  0  0  0  0  0  0  0  0
    4.8942   13.7361    6.7543 H   0  0  0  0  0  0  0  0  0  0  0  0
    6.3325   12.6603    5.5745 C   0  0  0  0  0  0  0  0  0  0  0  0
    6.7857   13.5365    5.1371 H   0  0  0  0  0  0  0  0  0  0  0  0
    6.7939   11.3923    5.2480 C   0  0  0  0  0  0  0  0  0  0  0  0
    7.6116   11.2559    4.5516 H   0  0  0  0  0  0  0  0  0  0  0  0
  1  3  1  0  0  0  0
  1  2  1  0  0  0  0
  4 20  2  0  0  0  0
  6  1  1  0  0  0  0
  6 11  1  0  0  0  0
  7  1  1  0  0  0  0
  8 24  1  0  0  0  0
  8 27  1  0  0  0  0
  9  8  1  0  0  0  0
 10 28  1  0  0  0  0
 11 12  1  0  0  0  0
 13 11  1  0  0  0  0
 13 14  1  0  0  0  0
 15 13  2  0  0  0  0
 16 15  1  0  0  0  0
 17 19  2  0  0  0  0
 17 15  1  0  0  0  0
 18 17  1  0  0  0  0
 19  6  1  0  0  0  0
 20  7  1  0  0  0  0
 20 19  1  0  0  0  0
 21  7  1  0  0  0  0
 21 23  1  0  0  0  0
 22 21  1  0  0  0  0
 24 21  1  0  0  0  0
 24 26  1  0  0  0  0
 25 24  1  0  0  0  0
 27  5  2  0  0  0  0
 28 29  2  0  0  0  0
 28 27  1  0  0  0  0
 29 30  1  0  0  0  0
 31 32  1  0  0  0  0
 31 29  1  0  0  0  0
 33 31  2  0  0  0  0
 34 33  1  0  0  0  0
 35 33  1  0  0  0  0
 35 10  2  0  0  0  0
 36 35  1  0  0  0  0
M  END
$$$$
