CSD_code = WIRFIP | q = 0 | S = 0 | Stoichiometry = C33H24Br2N4Zn | MND = 5
 OpenBabel04212202113D

 64 71  0  0  1  0  0  0  0  0999 V2000
    7.0859    3.9790   31.4214 Br  0  0  0  0  0  0  0  0  0  0  0  0
   10.3370    2.4926   33.9975 Br  0  0  0  0  0  0  0  0  0  0  0  0
    8.9920    2.6589   32.0578 Zn  0  0  0  0  0  0  0  0  0  0  0  0
    9.0907    1.6082   30.2024 N   0  0  0  0  0  0  0  0  0  0  0  0
    7.9207    0.7154   32.3651 N   0  0  0  0  0  0  0  0  0  0  0  0
   10.5317    3.7072   30.8128 N   0  0  0  0  0  0  0  0  0  0  0  0
    6.5703   -0.2057   22.3672 N   0  0  0  0  0  0  0  0  0  0  0  0
    8.1853    0.6535   30.0102 C   0  0  1  0  0  3  0  0  0  0  0  0
    7.6606    0.0428   31.2418 C   0  0  1  0  0  3  0  0  0  0  0  0
    7.4886    0.2510   33.5231 C   0  0  0  0  0  0  0  0  0  0  0  0
    7.7425    0.8365   34.3965 H   0  0  0  0  0  0  0  0  0  0  0  0
    6.7585   -0.9226   33.6317 C   0  0  0  0  0  0  0  0  0  0  0  0
    6.4205   -1.2653   34.5960 H   0  0  0  0  0  0  0  0  0  0  0  0
    6.4860   -1.6355   32.4758 C   0  0  0  0  0  0  0  0  0  0  0  0
    5.9276   -2.5589   32.5160 H   0  0  0  0  0  0  0  0  0  0  0  0
    6.9447   -1.1510   31.2624 C   0  0  0  0  0  0  0  0  0  0  0  0
    6.7613   -1.7000   30.3530 H   0  0  0  0  0  0  0  0  0  0  0  0
    7.7565    0.3097   28.7353 C   0  0  0  0  0  0  0  0  0  0  0  0
    7.0196   -0.4632   28.5935 H   0  0  0  0  0  0  0  0  0  0  0  0
    8.2745    0.9874   27.6296 C   0  0  0  0  0  0  0  0  0  0  0  0
    9.2176    1.9899   27.8662 C   0  0  0  0  0  0  0  0  0  0  0  0
    9.5976    2.5728   27.0437 H   0  0  0  0  0  0  0  0  0  0  0  0
    9.6005    2.2735   29.1700 C   0  0  0  0  0  0  0  0  0  0  0  0
   10.5457    3.3420   29.5292 C   0  0  2  0  0  3  0  0  0  0  0  0
   11.3468    4.6570   31.2335 C   0  0  0  0  0  0  0  0  0  0  0  0
   11.2950    4.8983   32.2867 H   0  0  0  0  0  0  0  0  0  0  0  0
   12.2316    5.3100   30.3892 C   0  0  0  0  0  0  0  0  0  0  0  0
   12.8785    6.0824   30.7720 H   0  0  0  0  0  0  0  0  0  0  0  0
   12.2623    4.9381   29.0553 C   0  0  0  0  0  0  0  0  0  0  0  0
   12.9422    5.4151   28.3651 H   0  0  0  0  0  0  0  0  0  0  0  0
   11.4112    3.9381   28.6161 C   0  0  0  0  0  0  0  0  0  0  0  0
   11.4317    3.6187   27.5867 H   0  0  0  0  0  0  0  0  0  0  0  0
    7.8339    0.6731   26.2722 C   0  0  0  0  0  0  0  0  0  0  0  0
    8.7193    0.7498   25.1951 C   0  0  0  0  0  0  0  0  0  0  0  0
    9.7505    1.0215   25.3662 H   0  0  0  0  0  0  0  0  0  0  0  0
    8.3102    0.4569   23.9145 C   0  0  0  0  0  0  0  0  0  0  0  0
    9.0119    0.5267   23.0969 H   0  0  0  0  0  0  0  0  0  0  0  0
    6.9870    0.0819   23.6561 C   0  0  0  0  0  0  0  0  0  0  0  0
    5.2401    0.0199   21.9727 C   0  0  0  0  0  0  0  0  0  0  0  0
    4.5613    1.1653   22.3840 C   0  0  0  0  0  0  0  0  0  0  0  0
    5.0638    1.8863   23.0120 H   0  0  0  0  0  0  0  0  0  0  0  0
    3.2556    1.3779   21.9847 C   0  0  0  0  0  0  0  0  0  0  0  0
    2.7391    2.2690   22.3087 H   0  0  0  0  0  0  0  0  0  0  0  0
    2.6150    0.4625   21.1658 C   0  0  0  0  0  0  0  0  0  0  0  0
    1.5960    0.6336   20.8543 H   0  0  0  0  0  0  0  0  0  0  0  0
    3.2902   -0.6721   20.7470 C   0  0  0  0  0  0  0  0  0  0  0  0
    2.7974   -1.3911   20.1096 H   0  0  0  0  0  0  0  0  0  0  0  0
    4.5931   -0.8978   21.1477 C   0  0  0  0  0  0  0  0  0  0  0  0
    5.1180   -1.7855   20.8262 H   0  0  0  0  0  0  0  0  0  0  0  0
    7.4701   -0.7246   21.4209 C   0  0  0  0  0  0  0  0  0  0  0  0
    8.3912   -1.7062   21.7817 C   0  0  0  0  0  0  0  0  0  0  0  0
    8.4107   -2.0692   22.7991 H   0  0  0  0  0  0  0  0  0  0  0  0
    9.2671   -2.2144   20.8418 C   0  0  0  0  0  0  0  0  0  0  0  0
    9.9755   -2.9763   21.1315 H   0  0  0  0  0  0  0  0  0  0  0  0
    9.2318   -1.7609   19.5333 C   0  0  0  0  0  0  0  0  0  0  0  0
    9.9160   -2.1623   18.8015 H   0  0  0  0  0  0  0  0  0  0  0  0
    8.3117   -0.7917   19.1690 C   0  0  0  0  0  0  0  0  0  0  0  0
    8.2792   -0.4316   18.1515 H   0  0  0  0  0  0  0  0  0  0  0  0
    7.4365   -0.2722   20.1035 C   0  0  0  0  0  0  0  0  0  0  0  0
    6.7225    0.4876   19.8212 H   0  0  0  0  0  0  0  0  0  0  0  0
    6.0969    0.0066   24.7332 C   0  0  0  0  0  0  0  0  0  0  0  0
    5.0727   -0.2852   24.5564 H   0  0  0  0  0  0  0  0  0  0  0  0
    6.5157    0.2927   26.0124 C   0  0  0  0  0  0  0  0  0  0  0  0
    5.8009    0.2483   26.8204 H   0  0  0  0  0  0  0  0  0  0  0  0
  1  3  1  0  0  0  0
  3  5  1  0  0  0  0
  3  2  1  0  0  0  0
  4  3  1  0  0  0  0
  5 10  1  0  0  0  0
  6 25  1  0  0  0  0
  6  3  1  0  0  0  0
  7 38  1  0  0  0  0
  8 18  1  1  0  0  0
  8  4  1  0  0  0  0
  8  9  1  0  0  0  0
  9 16  1  1  0  0  0
  9  5  1  0  0  0  0
 10 12  2  0  0  0  0
 10 11  1  0  0  0  0
 12 13  1  0  0  0  0
 14 15  1  0  0  0  0
 14 12  1  0  0  0  0
 16 14  2  0  0  0  0
 17 16  1  0  0  0  0
 19 18  1  0  0  0  0
 20 21  1  0  0  0  0
 20 18  2  0  0  0  0
 21 23  2  0  0  0  0
 22 21  1  0  0  0  0
 23 24  1  0  0  0  0
 23  4  1  0  0  0  0
 24 31  1  1  0  0  0
 24  6  1  0  0  0  0
 25 26  1  0  0  0  0
 27 28  1  0  0  0  0
 27 25  2  0  0  0  0
 29 27  1  0  0  0  0
 30 29  1  0  0  0  0
 31 29  2  0  0  0  0
 32 31  1  0  0  0  0
 33 20  1  0  0  0  0
 34 35  1  0  0  0  0
 34 33  2  0  0  0  0
 36 34  1  0  0  0  0
 37 36  1  0  0  0  0
 38 36  2  0  0  0  0
 38 61  1  0  0  0  0
 39  7  1  0  0  0  0
 39 40  1  0  0  0  0
 40 41  1  0  0  0  0
 42 43  1  0  0  0  0
 42 40  2  0  0  0  0
 44 42  1  0  0  0  0
 45 44  1  0  0  0  0
 46 48  1  0  0  0  0
 46 44  2  0  0  0  0
 47 46  1  0  0  0  0
 48 39  2  0  0  0  0
 49 48  1  0  0  0  0
 50 51  1  0  0  0  0
 50  7  1  0  0  0  0
 51 52  1  0  0  0  0
 53 54  1  0  0  0  0
 53 51  2  0  0  0  0
 55 53  1  0  0  0  0
 56 55  1  0  0  0  0
 57 55  2  0  0  0  0
 57 59  1  0  0  0  0
 58 57  1  0  0  0  0
 59 50  2  0  0  0  0
 60 59  1  0  0  0  0
 61 63  2  0  0  0  0
 62 61  1  0  0  0  0
 63 33  1  0  0  0  0
 63 64  1  0  0  0  0
M  END
$$$$
