CSD_code = WIRFOV | q = 0 | S = 0 | Stoichiometry = C33H24I2N4Zn | MND = 5
 OpenBabel04212202113D

 64 71  0  0  1  0  0  0  0  0999 V2000
    2.6876    2.3610   21.4255 I   0  0  0  0  0  0  0  0  0  0  0  0
    4.1691    6.6425   22.6264 I   0  0  0  0  0  0  0  0  0  0  0  0
    3.0238    4.8773   21.2113 Zn  0  0  0  0  0  0  0  0  0  0  0  0
    2.0310    5.3281   19.3732 N   0  0  0  0  0  0  0  0  0  0  0  0
    4.5991    4.8297   19.5980 N   0  0  0  0  0  0  0  0  0  0  0  0
    0.9189    5.4917   21.7440 N   0  0  0  0  0  0  0  0  0  0  0  0
   -2.3218    4.4634   12.2070 N   0  0  0  0  0  0  0  0  0  0  0  0
   -1.3915    4.2433   15.7589 C   0  0  0  0  0  0  0  0  0  0  0  0
   -1.7869    3.8223   16.6715 H   0  0  0  0  0  0  0  0  0  0  0  0
    0.1028    5.6707   20.7047 C   0  0  0  0  0  0  0  0  0  0  0  0
    0.3592    5.3563   14.5607 C   0  0  0  0  0  0  0  0  0  0  0  0
    1.3046    5.8787   14.5453 H   0  0  0  0  0  0  0  0  0  0  0  0
    0.7038    5.4270   19.3840 C   0  0  0  0  0  0  0  0  0  0  0  0
   -0.3542    5.2290   13.3914 C   0  0  0  0  0  0  0  0  0  0  0  0
    0.0417    5.6340   12.4721 H   0  0  0  0  0  0  0  0  0  0  0  0
   -2.1022    4.0961   14.5903 C   0  0  0  0  0  0  0  0  0  0  0  0
   -3.0512    3.5815   14.5986 H   0  0  0  0  0  0  0  0  0  0  0  0
   -0.1457    4.8744   15.7703 C   0  0  0  0  0  0  0  0  0  0  0  0
   -1.6012    4.5939   13.3821 C   0  0  0  0  0  0  0  0  0  0  0  0
    2.6777    5.0922   18.2341 C   0  0  0  0  0  0  0  0  0  0  0  0
   -3.7264    4.4471   12.2251 C   0  0  0  0  0  0  0  0  0  0  0  0
   -1.2196    6.0703   20.8825 C   0  0  0  0  0  0  0  0  0  0  0  0
   -1.8651    6.2411   20.0363 H   0  0  0  0  0  0  0  0  0  0  0  0
   -0.0429    5.2848   18.2219 C   0  0  0  0  0  0  0  0  0  0  0  0
   -1.1171    5.3612   18.2449 H   0  0  0  0  0  0  0  0  0  0  0  0
   -1.6626    4.3526   10.9711 C   0  0  0  0  0  0  0  0  0  0  0  0
    4.1392    4.9734   18.3547 C   0  0  1  0  0  3  0  0  0  0  0  0
    1.9988    4.9404   17.0322 C   0  0  0  0  0  0  0  0  0  0  0  0
    2.5312    4.7022   16.1263 H   0  0  0  0  0  0  0  0  0  0  0  0
   -1.6922    6.2667   22.1688 C   0  0  0  0  0  0  0  0  0  0  0  0
   -2.7134    6.5781   22.3306 H   0  0  0  0  0  0  0  0  0  0  0  0
    5.0028    5.0169   17.2629 C   0  0  0  0  0  0  0  0  0  0  0  0
    4.6251    5.1644   16.2641 H   0  0  0  0  0  0  0  0  0  0  0  0
   -4.4267    3.5854   11.3833 C   0  0  0  0  0  0  0  0  0  0  0  0
   -3.8806    2.9221   10.7288 H   0  0  0  0  0  0  0  0  0  0  0  0
    6.3638    4.8875   17.4808 C   0  0  0  0  0  0  0  0  0  0  0  0
    7.0526    4.9194   16.6497 H   0  0  0  0  0  0  0  0  0  0  0  0
    6.8252    4.7214   18.7763 C   0  0  0  0  0  0  0  0  0  0  0  0
    7.8761    4.6137   18.9892 H   0  0  0  0  0  0  0  0  0  0  0  0
   -0.8364    6.0633   23.2388 C   0  0  0  0  0  0  0  0  0  0  0  0
   -1.1645    6.2038   24.2557 H   0  0  0  0  0  0  0  0  0  0  0  0
   -6.5086    4.4261   12.2341 C   0  0  0  0  0  0  0  0  0  0  0  0
   -7.5877    4.4177   12.2381 H   0  0  0  0  0  0  0  0  0  0  0  0
    0.4681    5.6799   22.9703 C   0  0  0  0  0  0  0  0  0  0  0  0
    1.1790    5.5222   23.7702 H   0  0  0  0  0  0  0  0  0  0  0  0
   -2.1609    5.0143    9.8507 C   0  0  0  0  0  0  0  0  0  0  0  0
   -3.0495    5.6213    9.9439 H   0  0  0  0  0  0  0  0  0  0  0  0
   -0.5161    3.5701   10.8478 C   0  0  0  0  0  0  0  0  0  0  0  0
   -0.1351    3.0444   11.7113 H   0  0  0  0  0  0  0  0  0  0  0  0
   -4.4344    5.3017   13.0680 C   0  0  0  0  0  0  0  0  0  0  0  0
   -3.8951    5.9816   13.7116 H   0  0  0  0  0  0  0  0  0  0  0  0
   -5.8160    5.2841   13.0724 C   0  0  0  0  0  0  0  0  0  0  0  0
   -6.3547    5.9521   13.7280 H   0  0  0  0  0  0  0  0  0  0  0  0
    0.6063    5.0341   17.0119 C   0  0  0  0  0  0  0  0  0  0  0  0
    5.8970    4.7061   19.8054 C   0  0  0  0  0  0  0  0  0  0  0  0
    6.2078    4.5946   20.8354 H   0  0  0  0  0  0  0  0  0  0  0  0
   -5.8083    3.5810   11.3890 C   0  0  0  0  0  0  0  0  0  0  0  0
   -6.3408    2.9078   10.7340 H   0  0  0  0  0  0  0  0  0  0  0  0
   -0.3770    4.1213    8.5150 C   0  0  0  0  0  0  0  0  0  0  0  0
    0.1219    4.0315    7.5623 H   0  0  0  0  0  0  0  0  0  0  0  0
    0.1213    3.4619    9.6267 C   0  0  0  0  0  0  0  0  0  0  0  0
    1.0073    2.8505    9.5412 H   0  0  0  0  0  0  0  0  0  0  0  0
   -1.5207    4.8939    8.6323 C   0  0  0  0  0  0  0  0  0  0  0  0
   -1.9142    5.4127    7.7709 H   0  0  0  0  0  0  0  0  0  0  0  0
  3  1  1  0  0  0  0
  3  6  1  0  0  0  0
  3  2  1  0  0  0  0
  4 13  1  0  0  0  0
  4  3  1  0  0  0  0
  5 55  1  0  0  0  0
  5  3  1  0  0  0  0
  6 44  1  0  0  0  0
  7 21  1  0  0  0  0
  7 19  1  0  0  0  0
  8 18  1  0  0  0  0
  8  9  1  0  0  0  0
 10 22  1  0  0  0  0
 10  6  1  0  0  0  0
 11 18  2  0  0  0  0
 12 11  1  0  0  0  0
 13 10  2  0  0  0  0
 14 11  1  0  0  0  0
 15 14  1  0  0  0  0
 16 17  1  0  0  0  0
 16  8  2  0  0  0  0
 18 54  1  0  0  0  0
 19 14  2  0  0  0  0
 19 16  1  0  0  0  0
 20 27  1  0  0  0  0
 20  4  1  0  0  0  0
 21 50  1  0  0  0  0
 22 30  2  0  0  0  0
 23 22  1  0  0  0  0
 24 25  1  0  0  0  0
 24 13  1  0  0  0  0
 26  7  1  0  0  0  0
 27 32  1  1  0  0  0
 27  5  1  0  0  0  0
 28 20  2  0  0  0  0
 29 28  1  0  0  0  0
 30 31  1  0  0  0  0
 30 40  1  0  0  0  0
 32 36  2  0  0  0  0
 33 32  1  0  0  0  0
 34 57  1  0  0  0  0
 34 21  2  0  0  0  0
 35 34  1  0  0  0  0
 36 38  1  0  0  0  0
 37 36  1  0  0  0  0
 38 39  1  0  0  0  0
 38 55  2  0  0  0  0
 40 41  1  0  0  0  0
 42 43  1  0  0  0  0
 42 52  1  0  0  0  0
 44 40  2  0  0  0  0
 44 45  1  0  0  0  0
 46 47  1  0  0  0  0
 46 26  2  0  0  0  0
 48 26  1  0  0  0  0
 48 49  1  0  0  0  0
 50 52  2  0  0  0  0
 50 51  1  0  0  0  0
 52 53  1  0  0  0  0
 54 28  1  0  0  0  0
 54 24  2  0  0  0  0
 55 56  1  0  0  0  0
 57 42  2  0  0  0  0
 58 57  1  0  0  0  0
 59 63  2  0  0  0  0
 59 61  1  0  0  0  0
 60 59  1  0  0  0  0
 61 48  2  0  0  0  0
 62 61  1  0  0  0  0
 63 46  1  0  0  0  0
 64 63  1  0  0  0  0
M  END
$$$$
