CSD_code = WIRJOW | q = 0 | S = 0 | Stoichiometry = C19H20Cl3N3Zn | MND = 4
 OpenBabel04212202113D

 46 50  0  0  1  0  0  0  0  0999 V2000
    6.3863    2.6516    1.1309 Zn  0  0  0  0  0  0  0  0  0  0  0  0
    6.4723    0.7970   -0.0954 Cl  0  0  0  0  0  0  0  0  0  0  0  0
    4.8251    4.0566    1.7434 Cl  0  0  0  0  0  0  0  0  0  0  0  0
   14.4736    5.9130    5.5612 Cl  0  0  0  0  0  0  0  0  0  0  0  0
    8.2612    3.4918    0.8425 N   0  0  0  0  0  0  0  0  0  0  0  0
    7.5048    1.8108    2.8637 N   0  0  0  0  0  4  0  0  0  0  0  0
   10.4278    3.0905    1.0490 N   0  0  0  0  0  0  0  0  0  0  0  0
    9.1716    2.7195    1.3865 C   0  0  2  0  0  3  0  0  0  0  0  0
    8.9289    4.4408    0.1102 C   0  0  0  0  0  0  0  0  0  0  0  0
    8.4533    5.4996   -0.6525 C   0  0  0  0  0  0  0  0  0  0  0  0
    9.3923    6.2994   -1.2689 C   0  0  0  0  0  0  0  0  0  0  0  0
   10.7628    6.0631   -1.1327 C   0  0  0  0  0  0  0  0  0  0  0  0
   11.2500    5.0151   -0.3775 C   0  0  0  0  0  0  0  0  0  0  0  0
   10.3111    4.2036    0.2402 C   0  0  0  0  0  0  0  0  0  0  0  0
   11.6803    2.5143    1.4633 C   0  0  0  0  0  0  0  0  0  0  0  0
   12.3794    3.3736    2.4927 C   0  0  0  0  0  0  0  0  0  0  0  0
   13.7629    3.4930    2.4822 C   0  0  0  0  0  0  0  0  0  0  0  0
   14.4130    4.2683    3.4245 C   0  0  0  0  0  0  0  0  0  0  0  0
   13.6706    4.9378    4.3851 C   0  0  0  0  0  0  0  0  0  0  0  0
   12.2885    4.8328    4.4076 C   0  0  0  0  0  0  0  0  0  0  0  0
   11.6510    4.0498    3.4633 C   0  0  0  0  0  0  0  0  0  0  0  0
    8.7966    1.5613    2.2436 C   0  0  0  0  0  0  0  0  0  0  0  0
    7.5715    2.7436    3.9909 C   0  0  0  0  0  0  0  0  0  0  0  0
    6.2326    2.5576    4.7093 C   0  0  0  0  0  0  0  0  0  0  0  0
    5.7479    1.1655    4.2626 C   0  0  0  0  0  0  0  0  0  0  0  0
    6.9147    0.6086    3.4535 C   0  0  0  0  0  0  0  0  0  0  0  0
    7.3933    5.6734   -0.7455 H   0  0  0  0  0  0  0  0  0  0  0  0
    9.0656    7.1327   -1.8717 H   0  0  0  0  0  0  0  0  0  0  0  0
   11.4589    6.7202   -1.6313 H   0  0  0  0  0  0  0  0  0  0  0  0
   12.3094    4.8429   -0.2690 H   0  0  0  0  0  0  0  0  0  0  0  0
   14.3409    2.9739    1.7318 H   0  0  0  0  0  0  0  0  0  0  0  0
   15.4874    4.3583    3.4127 H   0  0  0  0  0  0  0  0  0  0  0  0
   11.7183    5.3595    5.1560 H   0  0  0  0  0  0  0  0  0  0  0  0
   10.5733    3.9764    3.4822 H   0  0  0  0  0  0  0  0  0  0  0  0
   11.4929    1.5158    1.8697 H   0  0  0  0  0  0  0  0  0  0  0  0
   12.3181    2.4008    0.5811 H   0  0  0  0  0  0  0  0  0  0  0  0
    9.5710    1.3534    2.9998 H   0  0  0  0  0  0  0  0  0  0  0  0
    8.6848    0.6857    1.5924 H   0  0  0  0  0  0  0  0  0  0  0  0
    8.4091    2.4694    4.6521 H   0  0  0  0  0  0  0  0  0  0  0  0
    7.7157    3.7647    3.6377 H   0  0  0  0  0  0  0  0  0  0  0  0
    6.3560    2.6230    5.7891 H   0  0  0  0  0  0  0  0  0  0  0  0
    5.5265    3.3231    4.3947 H   0  0  0  0  0  0  0  0  0  0  0  0
    5.4943    0.5211    5.1015 H   0  0  0  0  0  0  0  0  0  0  0  0
    4.8704    1.2621    3.6236 H   0  0  0  0  0  0  0  0  0  0  0  0
    6.6051   -0.0833    2.6709 H   0  0  0  0  0  0  0  0  0  0  0  0
    7.6446    0.1122    4.1108 H   0  0  0  0  0  0  0  0  0  0  0  0
  1  3  1  0  0  0  0
  1  6  1  0  0  0  0
  2  1  1  0  0  0  0
  5  1  1  0  0  0  0
  6 26  1  0  0  0  0
  6 23  1  0  0  0  0
  7  8  1  0  0  0  0
  7 15  1  0  0  0  0
  8  5  1  6  0  0  0
  8 22  1  0  0  0  0
  9 14  1  0  0  0  0
  9  5  1  0  0  0  0
 10  9  2  0  0  0  0
 11 12  2  0  0  0  0
 11 10  1  0  0  0  0
 12 13  1  0  0  0  0
 13 30  1  0  0  0  0
 13 14  2  0  0  0  0
 14  7  1  0  0  0  0
 15 35  1  0  0  0  0
 15 16  1  0  0  0  0
 16 21  1  0  0  0  0
 17 16  2  0  0  0  0
 17 18  1  0  0  0  0
 18 19  2  0  0  0  0
 19 20  1  0  0  0  0
 19  4  1  0  0  0  0
 20 33  1  0  0  0  0
 21 34  1  0  0  0  0
 21 20  2  0  0  0  0
 22  6  1  0  0  0  0
 22 37  1  0  0  0  0
 23 39  1  0  0  0  0
 23 24  1  0  0  0  0
 24 41  1  0  0  0  0
 25 24  1  0  0  0  0
 25 43  1  0  0  0  0
 26 46  1  0  0  0  0
 26 25  1  0  0  0  0
 27 10  1  0  0  0  0
 28 11  1  0  0  0  0
 29 12  1  0  0  0  0
 31 17  1  0  0  0  0
 32 18  1  0  0  0  0
 36 15  1  0  0  0  0
 38 22  1  0  0  0  0
 40 23  1  0  0  0  0
 42 24  1  0  0  0  0
 44 25  1  0  0  0  0
 45 26  1  0  0  0  0
M  END
$$$$
