CSD_code = WIRRUN | q = 0 | S = 0 | Stoichiometry = C10H10Cl4F3NOW | MND = 6
 OpenBabel04212202113D

 30 30  0  0  0  0  0  0  0  0999 V2000
    7.4007    4.5853    5.9083 W   0  0  0  0  0  0  0  0  0  0  0  0
    5.6663    4.5151    7.4365 Cl  0  0  0  0  0  0  0  0  0  0  0  0
    7.6008    6.8672    6.3701 Cl  0  0  0  0  0  0  0  0  0  0  0  0
    9.5683    4.6539    5.0331 Cl  0  0  0  0  0  0  0  0  0  0  0  0
    7.6058    2.2855    6.0237 Cl  0  0  0  0  0  0  0  0  0  0  0  0
    6.3605    6.0590    1.8642 F   0  0  0  0  0  0  0  0  0  0  0  0
    2.5726    3.5006    0.7872 F   0  0  0  0  0  0  0  0  0  0  0  0
    4.7390    2.9155    4.9448 F   0  0  0  0  0  0  0  0  0  0  0  0
    8.5708    4.4089    7.8342 O   0  0  0  0  0  0  0  0  0  0  0  0
    6.4979    4.7276    4.3794 N   0  0  0  0  0  2  0  0  0  0  0  0
    5.5791    4.4906    3.4468 C   0  0  0  0  0  0  0  0  0  0  0  0
    5.4649    5.1181    2.1914 C   0  0  0  0  0  0  0  0  0  0  0  0
    4.4644    4.7933    1.2983 C   0  0  0  0  0  0  0  0  0  0  0  0
    4.4011    5.2913    0.3444 H   0  0  0  0  0  0  0  0  0  0  0  0
    3.5468    3.8179    1.6525 C   0  0  0  0  0  0  0  0  0  0  0  0
    3.5985    3.1552    2.8724 C   0  0  0  0  0  0  0  0  0  0  0  0
    2.8759    2.3984    3.1291 H   0  0  0  0  0  0  0  0  0  0  0  0
    4.6073    3.5049    3.7351 C   0  0  0  0  0  0  0  0  0  0  0  0
    9.6244    3.4573    8.0926 C   0  0  0  0  0  0  0  0  0  0  0  0
   10.2500    3.3808    7.1970 H   0  0  0  0  0  0  0  0  0  0  0  0
    9.1619    2.4838    8.3009 H   0  0  0  0  0  0  0  0  0  0  0  0
   10.3752    3.9811    9.3112 C   0  0  0  0  0  0  0  0  0  0  0  0
   11.1295    4.7081    9.0099 H   0  0  0  0  0  0  0  0  0  0  0  0
   10.8550    3.1811    9.8685 H   0  0  0  0  0  0  0  0  0  0  0  0
    9.2546    4.6686   10.0851 C   0  0  0  0  0  0  0  0  0  0  0  0
    8.6439    3.9309   10.6063 H   0  0  0  0  0  0  0  0  0  0  0  0
    9.6139    5.4031   10.8007 H   0  0  0  0  0  0  0  0  0  0  0  0
    8.4637    5.3124    8.9531 C   0  0  0  0  0  0  0  0  0  0  0  0
    7.4022    5.4497    9.1839 H   0  0  0  0  0  0  0  0  0  0  0  0
    8.9025    6.2760    8.6629 H   0  0  0  0  0  0  0  0  0  0  0  0
  1  5  1  0  0  0  0
  1  3  1  0  0  0  0
  1  2  1  0  0  0  0
  4  1  1  0  0  0  0
  6 12  1  0  0  0  0
  7 15  1  0  0  0  0
  9 19  1  0  0  0  0
  9 28  1  0  0  0  0
 10  1  1  0  0  0  0
 11 18  1  0  0  0  0
 11 10  1  0  0  0  0
 12 11  2  0  0  0  0
 13 15  2  0  0  0  0
 13 12  1  0  0  0  0
 14 13  1  0  0  0  0
 15 16  1  0  0  0  0
 16 17  1  0  0  0  0
 16 18  2  0  0  0  0
 18  8  1  0  0  0  0
 19 21  1  0  0  0  0
 19 22  1  0  0  0  0
 20 19  1  0  0  0  0
 22 24  1  0  0  0  0
 22 25  1  0  0  0  0
 23 22  1  0  0  0  0
 25 26  1  0  0  0  0
 25 27  1  0  0  0  0
 28 29  1  0  0  0  0
 28 25  1  0  0  0  0
 30 28  1  0  0  0  0
M  END
$$$$
