CSD_code = WIRSAT | q = 0 | S = 0 | Stoichiometry = C22H26Cl2N2O4Pt | MND = 6
 OpenBabel04212202113D

 57 59  0  0  0  0  0  0  0  0999 V2000
    1.6732    3.9759    2.9837 Pt  0  0  0  0  0  0  0  0  0  0  0  0
    3.6755    5.0408    2.6733 Cl  0  0  0  0  0  0  0  0  0  0  0  0
    2.7393    2.1158    3.7824 Cl  0  0  0  0  0  0  0  0  0  0  0  0
    1.8502    3.1351    1.0922 O   0  0  0  0  0  0  0  0  0  0  0  0
    0.9232    4.7205   -0.1857 O   0  0  0  0  0  0  0  0  0  0  0  0
    1.6581    4.6333    4.9361 O   0  0  0  0  0  0  0  0  0  0  0  0
    1.3288    6.8117    4.5507 O   0  0  0  0  0  0  0  0  0  0  0  0
    0.5666    5.6342    2.2909 N   0  0  0  0  0  4  0  0  0  0  0  0
    0.9487    6.4764    2.7443 H   0  0  0  0  0  0  0  0  0  0  0  0
    0.6909    5.6274    1.2572 H   0  0  0  0  0  0  0  0  0  0  0  0
   -0.3129    3.0556    3.1855 N   0  0  0  0  0  4  0  0  0  0  0  0
    1.5413    3.6641   -0.0322 C   0  0  0  0  0  0  0  0  0  0  0  0
    1.9417    2.8304   -1.1924 C   0  0  0  0  0  0  0  0  0  0  0  0
    2.4884    1.9355   -0.9430 H   0  0  0  0  0  0  0  0  0  0  0  0
    1.6199    3.1973   -2.4366 C   0  0  0  0  0  0  0  0  0  0  0  0
    1.0679    4.1239   -2.5470 H   0  0  0  0  0  0  0  0  0  0  0  0
    1.9148    2.4885   -3.6671 C   0  0  0  0  0  0  0  0  0  0  0  0
    1.4360    3.0080   -4.8731 C   0  0  0  0  0  0  0  0  0  0  0  0
    0.8664    3.9264   -4.8626 H   0  0  0  0  0  0  0  0  0  0  0  0
    1.6802    2.3636   -6.0700 C   0  0  0  0  0  0  0  0  0  0  0  0
    1.3016    2.7788   -6.9926 H   0  0  0  0  0  0  0  0  0  0  0  0
    2.4106    1.1865   -6.0878 C   0  0  0  0  0  0  0  0  0  0  0  0
    2.6029    0.6814   -7.0227 H   0  0  0  0  0  0  0  0  0  0  0  0
    2.8957    0.6610   -4.9003 C   0  0  0  0  0  0  0  0  0  0  0  0
    3.4684   -0.2549   -4.9116 H   0  0  0  0  0  0  0  0  0  0  0  0
    2.6520    1.3021   -3.7018 C   0  0  0  0  0  0  0  0  0  0  0  0
    3.0388    0.8837   -2.7860 H   0  0  0  0  0  0  0  0  0  0  0  0
    1.6028    5.8693    5.2877 C   0  0  0  0  0  0  0  0  0  0  0  0
    1.8308    6.0518    6.7436 C   0  0  0  0  0  0  0  0  0  0  0  0
    2.0772    5.1517    7.2830 H   0  0  0  0  0  0  0  0  0  0  0  0
    1.7223    7.2608    7.3020 C   0  0  0  0  0  0  0  0  0  0  0  0
    1.4728    8.0846    6.6428 H   0  0  0  0  0  0  0  0  0  0  0  0
    1.8896    7.5990    8.7028 C   0  0  0  0  0  0  0  0  0  0  0  0
    1.6797    8.9206    9.1061 C   0  0  0  0  0  0  0  0  0  0  0  0
    1.4098    9.6610    8.3666 H   0  0  0  0  0  0  0  0  0  0  0  0
    1.8117    9.2877   10.4311 C   0  0  0  0  0  0  0  0  0  0  0  0
    1.6445   10.3135   10.7253 H   0  0  0  0  0  0  0  0  0  0  0  0
    2.1584    8.3419   11.3822 C   0  0  0  0  0  0  0  0  0  0  0  0
    2.2615    8.6271   12.4187 H   0  0  0  0  0  0  0  0  0  0  0  0
    2.3747    7.0280   10.9970 C   0  0  0  0  0  0  0  0  0  0  0  0
    2.6488    6.2889   11.7357 H   0  0  0  0  0  0  0  0  0  0  0  0
    2.2427    6.6579    9.6733 C   0  0  0  0  0  0  0  0  0  0  0  0
    2.4176    5.6326    9.3876 H   0  0  0  0  0  0  0  0  0  0  0  0
   -0.8276    5.4273    2.6649 C   0  0  0  0  0  0  0  0  0  0  0  0
   -0.9534    5.7014    3.7166 H   0  0  0  0  0  0  0  0  0  0  0  0
   -1.4903    6.0636    2.0660 H   0  0  0  0  0  0  0  0  0  0  0  0
   -1.1962    3.9609    2.4293 C   0  0  0  0  0  0  0  0  0  0  0  0
   -1.0688    3.7511    1.3632 H   0  0  0  0  0  0  0  0  0  0  0  0
   -2.2447    3.7792    2.6985 H   0  0  0  0  0  0  0  0  0  0  0  0
   -0.7035    2.9706    4.5913 C   0  0  0  0  0  0  0  0  0  0  0  0
   -0.7450    3.9583    5.0447 H   0  0  0  0  0  0  0  0  0  0  0  0
    0.0391    2.3822    5.1289 H   0  0  0  0  0  0  0  0  0  0  0  0
   -1.6850    2.4932    4.6871 H   0  0  0  0  0  0  0  0  0  0  0  0
   -0.3350    1.7099    2.6134 C   0  0  0  0  0  0  0  0  0  0  0  0
   -0.0018    1.7338    1.5775 H   0  0  0  0  0  0  0  0  0  0  0  0
   -1.3450    1.2891    2.6588 H   0  0  0  0  0  0  0  0  0  0  0  0
    0.3516    1.0758    3.1730 H   0  0  0  0  0  0  0  0  0  0  0  0
  1 11  1  0  0  0  0
  1  3  1  0  0  0  0
  1  6  1  0  0  0  0
  2  1  1  0  0  0  0
  4  1  1  0  0  0  0
  5 12  2  0  0  0  0
  6 28  1  0  0  0  0
  7 28  2  0  0  0  0
  8 44  1  0  0  0  0
  8  9  1  0  0  0  0
  8  1  1  0  0  0  0
 10  8  1  0  0  0  0
 11 50  1  0  0  0  0
 12  4  1  0  0  0  0
 13 14  1  0  0  0  0
 13 12  1  0  0  0  0
 15 13  2  0  0  0  0
 16 15  1  0  0  0  0
 17 15  1  0  0  0  0
 18 19  1  0  0  0  0
 18 17  2  0  0  0  0
 20 18  1  0  0  0  0
 21 20  1  0  0  0  0
 22 20  2  0  0  0  0
 22 24  1  0  0  0  0
 23 22  1  0  0  0  0
 24 26  2  0  0  0  0
 25 24  1  0  0  0  0
 26 17  1  0  0  0  0
 26 27  1  0  0  0  0
 28 29  1  0  0  0  0
 29 30  1  0  0  0  0
 29 31  2  0  0  0  0
 31 33  1  0  0  0  0
 32 31  1  0  0  0  0
 33 34  2  0  0  0  0
 33 42  1  0  0  0  0
 34 36  1  0  0  0  0
 35 34  1  0  0  0  0
 36 37  1  0  0  0  0
 36 38  2  0  0  0  0
 38 39  1  0  0  0  0
 40 38  1  0  0  0  0
 40 41  1  0  0  0  0
 42 40  2  0  0  0  0
 43 42  1  0  0  0  0
 44 45  1  0  0  0  0
 46 44  1  0  0  0  0
 47 44  1  0  0  0  0
 47 49  1  0  0  0  0
 47 11  1  0  0  0  0
 48 47  1  0  0  0  0
 50 53  1  0  0  0  0
 50 51  1  0  0  0  0
 50 52  1  0  0  0  0
 54 56  1  0  0  0  0
 54 57  1  0  0  0  0
 54 11  1  0  0  0  0
 55 54  1  0  0  0  0
M  END
$$$$
