CSD_code = WISBUY | q = 0 | S = 0 | Stoichiometry = C20H20BrCl2NOPt | MND = 5
 OpenBabel04212202113D

 46 46  0  0  1  0  0  0  0  0999 V2000
   -0.6208    3.4382   10.7564 Pt  0  0  0  0  0  0  0  0  0  0  0  0
   -1.0726    5.9286    6.0377 Br  0  0  0  0  0  0  0  0  0  0  0  0
   -0.3009    1.3433    9.7445 Cl  0  0  0  0  0 15  0  0  0  0  0  0
   -0.8293    5.4401   11.8619 Cl  0  0  0  0  0 15  0  0  0  0  0  0
    1.2627    3.2371   11.6662 O   0  0  0  0  0  0  0  0  0  0  0  0
    2.2285    2.6472   11.0530 N   0  0  0  0  0  0  0  0  0  0  0  0
    1.4798    3.0622    7.5905 C   0  0  0  0  0  0  0  0  0  0  0  0
    3.8157    2.3017   12.9312 C   0  0  0  0  0  0  0  0  0  0  0  0
    1.8018    3.5577    8.8569 C   0  0  0  0  0  0  0  0  0  0  0  0
    3.5690    3.5912   13.3766 C   0  0  0  0  0  0  0  0  0  0  0  0
    5.2419    3.3393   15.0830 C   0  0  0  0  0  0  0  0  0  0  0  0
    5.4882    2.0496   14.6434 C   0  0  0  0  0  0  0  0  0  0  0  0
    4.2795    4.1039   14.4498 C   0  0  0  0  0  0  0  0  0  0  0  0
    1.2720    4.7941    9.2624 C   0  0  0  0  0  0  0  0  0  0  0  0
    2.5669    2.7488    9.7896 C   0  0  0  0  0  0  0  0  0  0  0  0
    3.6927    1.8754    9.5342 C   0  0  0  0  0  0  0  0  0  0  0  0
    0.6390    3.7664    6.7538 C   0  0  0  0  0  0  0  0  0  0  0  0
    0.1139    4.9784    7.1780 C   0  0  0  0  0  0  0  0  0  0  0  0
    3.9908    1.2454   10.6832 C   0  0  0  0  0  3  0  0  0  0  0  0
    4.3916    1.7507    8.2260 C   0  0  0  0  0  0  0  0  0  0  0  0
   -2.3194    3.8544    9.5573 C   0  0  0  0  0  3  0  0  0  0  0  0
   -2.7156    3.1771   10.7055 C   0  0  0  0  0  0  0  0  0  0  0  0
    0.4395    5.5107    8.4140 C   0  0  0  0  0  0  0  0  0  0  0  0
    2.1260    0.5702   12.2642 C   0  0  0  0  0  0  0  0  0  0  0  0
    4.7802    1.5335   13.5743 C   0  0  0  0  0  0  0  0  0  0  0  0
    3.0599    1.6800   11.7649 C   0  0  2  0  0  0  0  0  0  0  0  0
    1.8455    2.0969    7.2833 H   0  0  0  0  0  0  0  0  0  0  0  0
    2.8054    4.1990   12.9174 H   0  0  0  0  0  0  0  0  0  0  0  0
    5.7942    3.7424   15.9183 H   0  0  0  0  0  0  0  0  0  0  0  0
    6.2327    1.4409   15.1344 H   0  0  0  0  0  0  0  0  0  0  0  0
    4.0725    5.1073   14.7899 H   0  0  0  0  0  0  0  0  0  0  0  0
    1.5959    5.2559   10.1854 H   0  0  0  0  0  0  0  0  0  0  0  0
    0.3753    3.3700    5.7857 H   0  0  0  0  0  0  0  0  0  0  0  0
    4.7898    0.5487   10.8459 H   0  0  0  0  0  0  0  0  0  0  0  0
    4.3781    2.6967    7.6901 H   0  0  0  0  0  0  0  0  0  0  0  0
    5.4216    1.4403    8.3833 H   0  0  0  0  0  0  0  0  0  0  0  0
    3.9055    0.9975    7.6067 H   0  0  0  0  0  0  0  0  0  0  0  0
   -2.4769    4.9269    9.4862 H   0  0  0  0  0  0  0  0  0  0  0  0
   -2.2513    3.3203    8.6128 H   0  0  0  0  0  0  0  0  0  0  0  0
   -2.9455    2.1160   10.6587 H   0  0  0  0  0  0  0  0  0  0  0  0
   -3.1644    3.7251   11.5295 H   0  0  0  0  0  0  0  0  0  0  0  0
    0.0501    6.4685    8.7226 H   0  0  0  0  0  0  0  0  0  0  0  0
    2.6931   -0.1996   12.7780 H   0  0  0  0  0  0  0  0  0  0  0  0
    1.4026    1.0055   12.9516 H   0  0  0  0  0  0  0  0  0  0  0  0
    1.5906    0.1321   11.4238 H   0  0  0  0  0  0  0  0  0  0  0  0
    4.9775    0.5244   13.2449 H   0  0  0  0  0  0  0  0  0  0  0  0
  1  5  1  0  0  0  0
  2 18  1  0  0  0  0
  6  5  1  0  0  0  0
  6 26  1  0  0  0  0
  7  9  1  0  0  0  0
  8 10  2  0  0  0  0
  8 25  1  0  0  0  0
  9 14  2  0  0  0  0
  9 15  1  0  0  0  0
 10 13  1  0  0  0  0
 11 29  1  0  0  0  0
 12 11  1  0  0  0  0
 12 30  1  0  0  0  0
 13 31  1  0  0  0  0
 13 11  2  0  0  0  0
 14 32  1  0  0  0  0
 15  6  1  0  0  0  0
 16 15  2  0  0  0  0
 16 19  1  0  0  0  0
 17 18  1  0  0  0  0
 17  7  2  0  0  0  0
 18 23  2  0  0  0  0
 19 34  1  0  0  0  0
 19 26  1  0  0  0  0
 20 36  1  0  0  0  0
 20 16  1  0  0  0  0
 21 22  1  0  0  0  0
 22  1  1  0  0  0  0
 22 41  1  0  0  0  0
 23 42  1  0  0  0  0
 23 14  1  0  0  0  0
 24 43  1  0  0  0  0
 24 44  1  0  0  0  0
 25 12  2  0  0  0  0
 26 24  1  1  0  0  0
 26  8  1  0  0  0  0
 27  7  1  0  0  0  0
 28 10  1  0  0  0  0
 33 17  1  0  0  0  0
 35 20  1  0  0  0  0
 37 20  1  0  0  0  0
 38 21  1  0  0  0  0
 39 21  1  0  0  0  0
 40 22  1  0  0  0  0
 45 24  1  0  0  0  0
 46 25  1  0  0  0  0
M  END
$$$$
