CSD_code = WITBEJ | q = 0 | S = 0 | Stoichiometry = C15H19Cl2FeN3S | MND = 6
 OpenBabel04212202113D

 41 45  0  0  1  0  0  0  0  0999 V2000
   10.2757    1.6088   13.1650 Fe  0  0  0  0  0  0  0  0  0  0  0  0
    9.5778    0.4738   14.9004 Cl  0  0  0  0  0  0  0  0  0  0  0  0
   10.6704   -0.2490   12.0655 Cl  0  0  0  0  0  0  0  0  0  0  0  0
   10.0795    3.4409   14.3961 S   0  0  1  0  0  3  0  0  0  0  0  0
   10.6615    4.1502   11.8257 C   0  0  0  0  0  0  0  0  0  0  0  0
    9.6109    4.3773   11.6239 H   0  0  0  0  0  0  0  0  0  0  0  0
   11.2730    4.7295   11.1180 H   0  0  0  0  0  0  0  0  0  0  0  0
   10.9754    4.5579   13.2522 C   0  0  0  0  0  0  0  0  0  0  0  0
   10.6860    5.5879   13.4519 H   0  0  0  0  0  0  0  0  0  0  0  0
   12.0322    4.4291   13.4833 H   0  0  0  0  0  0  0  0  0  0  0  0
    8.4323    4.2038   14.3565 C   0  0  0  0  0  0  0  0  0  0  0  0
    8.4901    5.1894   14.8093 H   0  0  0  0  0  0  0  0  0  0  0  0
    7.7972    3.5577   14.9531 H   0  0  0  0  0  0  0  0  0  0  0  0
    8.0449    4.2642   13.3444 H   0  0  0  0  0  0  0  0  0  0  0  0
    8.5982    2.0877   11.0945 C   0  0  2  0  0  3  0  0  0  0  0  0
    7.4469    2.2556   10.3481 C   0  0  0  0  0  0  0  0  0  0  0  0
    7.5173    2.5733    9.3189 H   0  0  0  0  0  0  0  0  0  0  0  0
    6.2152    1.9914   10.9321 C   0  0  0  0  0  0  0  0  0  0  0  0
    5.3031    2.1082   10.3677 H   0  0  0  0  0  0  0  0  0  0  0  0
    6.1939    1.5605   12.2497 C   0  0  0  0  0  0  0  0  0  0  0  0
    5.2660    1.3194   12.7424 H   0  0  0  0  0  0  0  0  0  0  0  0
    7.3877    1.4336   12.9340 C   0  0  0  0  0  0  0  0  0  0  0  0
    7.4308    1.0834   13.9546 H   0  0  0  0  0  0  0  0  0  0  0  0
    9.9785    2.2616   10.5338 C   0  0  0  0  0  0  0  0  0  0  0  0
   10.3117    1.2633   10.2348 H   0  0  0  0  0  0  0  0  0  0  0  0
    9.9958    2.9357    9.6683 H   0  0  0  0  0  0  0  0  0  0  0  0
   12.9081    2.0775   12.7569 C   0  0  1  0  0  3  0  0  0  0  0  0
   14.2665    2.2231   12.9714 C   0  0  0  0  0  0  0  0  0  0  0  0
   14.8968    2.6075   12.1838 H   0  0  0  0  0  0  0  0  0  0  0  0
   14.8009    1.8543   14.1983 C   0  0  0  0  0  0  0  0  0  0  0  0
   15.8586    1.9535   14.3879 H   0  0  0  0  0  0  0  0  0  0  0  0
   13.9440    1.3471   15.1626 C   0  0  0  0  0  0  0  0  0  0  0  0
   14.3122    1.0307   16.1249 H   0  0  0  0  0  0  0  0  0  0  0  0
   12.5961    1.2450   14.8750 C   0  0  0  0  0  0  0  0  0  0  0  0
   11.8835    0.8522   15.5847 H   0  0  0  0  0  0  0  0  0  0  0  0
   12.2589    2.3544   11.4314 C   0  0  0  0  0  0  0  0  0  0  0  0
   12.8127    3.1091   10.8585 H   0  0  0  0  0  0  0  0  0  0  0  0
   12.2809    1.4032   10.8913 H   0  0  0  0  0  0  0  0  0  0  0  0
   10.8550    2.7139   11.6160 N   0  0  2  0  0  4  0  0  0  0  0  0
    8.5696    1.7036   12.3816 N   0  0  0  0  0  0  0  0  0  0  0  0
   12.0829    1.6083   13.7026 N   0  0  0  0  0  0  0  0  0  0  0  0
  1 41  1  0  0  0  0
  1  4  1  0  0  0  0
  1  2  1  0  0  0  0
  3  1  1  0  0  0  0
  4 11  1  6  0  0  0
  5  8  1  0  0  0  0
  6  5  1  0  0  0  0
  7  5  1  0  0  0  0
  8  9  1  0  0  0  0
  8 10  1  0  0  0  0
  8  4  1  0  0  0  0
 11 12  1  0  0  0  0
 11 13  1  0  0  0  0
 14 11  1  0  0  0  0
 15 16  1  6  0  0  0
 15 40  1  0  0  0  0
 16 18  2  0  0  0  0
 17 16  1  0  0  0  0
 18 20  1  0  0  0  0
 19 18  1  0  0  0  0
 20 21  1  0  0  0  0
 20 22  2  0  0  0  0
 22 23  1  0  0  0  0
 24 15  1  0  0  0  0
 25 24  1  0  0  0  0
 26 24  1  0  0  0  0
 27 28  1  6  0  0  0
 27 41  1  0  0  0  0
 28 30  2  0  0  0  0
 29 28  1  0  0  0  0
 30 31  1  0  0  0  0
 30 32  1  0  0  0  0
 32 33  1  0  0  0  0
 34 32  2  0  0  0  0
 34 35  1  0  0  0  0
 36 39  1  0  0  0  0
 36 27  1  0  0  0  0
 37 36  1  0  0  0  0
 38 36  1  0  0  0  0
 39 24  1  6  0  0  0
 39  5  1  0  0  0  0
 39  1  1  0  0  0  0
 40 22  1  0  0  0  0
 40  1  1  0  0  0  0
 41 34  1  0  0  0  0
M  END
$$$$
