CSD_code = WIVCUC | q = 0 | S = 0 | Stoichiometry = C19H13Cl3N3RhS | MND = 6
 OpenBabel04212202113D

 40 45  0  0  1  0  0  0  0  0999 V2000
    0.0031   11.3766    2.3763 Rh  0  0  0  0  0  0  0  0  0  0  0  0
   -0.9009   12.3232    0.4439 Cl  0  0  0  0  0  0  0  0  0  0  0  0
   -1.5950    9.7652    2.4232 Cl  0  0  0  0  0  0  0  0  0  0  0  0
    1.0139   10.5364    4.3062 Cl  0  0  0  0  0  0  0  0  0  0  0  0
    5.7742   17.6608    2.8951 S   0  0  0  0  0  0  0  0  0  0  0  0
    1.3252   10.4010    1.2721 N   0  0  0  0  0  0  0  0  0  0  0  0
    1.3216   12.7041    2.3389 N   0  0  0  0  0  0  0  0  0  0  0  0
   -0.9491   12.7219    3.4735 N   0  0  0  0  0  0  0  0  0  0  0  0
    1.2201    9.1816    0.7625 C   0  0  0  0  0  3  0  0  0  0  0  0
    0.2958    8.6554    0.9719 H   0  0  0  0  0  0  0  0  0  0  0  0
    2.2286    8.6070    0.0061 C   0  0  0  0  0  0  0  0  0  0  0  0
    2.1013    7.6125   -0.3892 H   0  0  0  0  0  0  0  0  0  0  0  0
    3.3882    9.3301   -0.2262 C   0  0  0  0  0  0  0  0  0  0  0  0
    4.1933    8.9107   -0.8098 H   0  0  0  0  0  0  0  0  0  0  0  0
    3.4990   10.6038    0.3041 C   0  0  0  0  0  0  0  0  0  0  0  0
    4.3888   11.1903    0.1414 H   0  0  0  0  0  0  0  0  0  0  0  0
    2.4516   11.1267    1.0544 C   0  0  0  0  0  0  0  0  0  0  0  0
    2.4522   12.4592    1.6654 C   0  0  2  0  0  3  0  0  0  0  0  0
    3.4440   13.4268    1.6200 C   0  0  0  0  0  0  0  0  0  0  0  0
    4.3680   13.2419    1.0977 H   0  0  0  0  0  0  0  0  0  0  0  0
    3.2462   14.6441    2.2815 C   0  0  0  0  0  0  0  0  0  0  0  0
    4.2736   15.6765    2.2478 C   0  0  0  0  0  0  0  0  0  0  0  0
    5.1915   15.8599    1.1736 C   0  0  0  0  0  0  0  0  0  0  0  0
    5.1858   15.2691    0.2759 H   0  0  0  0  0  0  0  0  0  0  0  0
    6.0437   16.8905    1.3813 C   0  0  0  0  0  0  0  0  0  0  0  0
    6.8192   17.2522    0.7363 H   0  0  0  0  0  0  0  0  0  0  0  0
    4.4821   16.5954    3.2416 C   0  0  0  0  0  0  0  0  0  0  0  0
    3.9722   16.6804    4.1803 H   0  0  0  0  0  0  0  0  0  0  0  0
    2.0474   14.8519    2.9740 C   0  0  0  0  0  0  0  0  0  0  0  0
    1.8729   15.7901    3.4739 H   0  0  0  0  0  0  0  0  0  0  0  0
    1.0878   13.8518    2.9876 C   0  0  0  0  0  0  0  0  0  0  0  0
   -0.2249   13.8579    3.6403 C   0  0  2  0  0  3  0  0  0  0  0  0
   -0.7296   14.9190    4.3836 C   0  0  0  0  0  0  0  0  0  0  0  0
   -0.1437   15.8155    4.5061 H   0  0  0  0  0  0  0  0  0  0  0  0
   -1.9837   14.8121    4.9595 C   0  0  0  0  0  0  0  0  0  0  0  0
   -2.3885   15.6273    5.5394 H   0  0  0  0  0  0  0  0  0  0  0  0
   -2.7061   13.6431    4.7779 C   0  0  0  0  0  0  0  0  0  0  0  0
   -3.6858   13.5185    5.2097 H   0  0  0  0  0  0  0  0  0  0  0  0
   -2.1501   12.6212    4.0257 C   0  0  0  0  0  0  0  0  0  0  0  0
   -2.6766   11.6890    3.8551 H   0  0  0  0  0  0  0  0  0  0  0  0
  1  3  1  0  0  0  0
  1  8  1  0  0  0  0
  1  4  1  0  0  0  0
  2  1  1  0  0  0  0
  5 27  1  0  0  0  0
  6  1  1  0  0  0  0
  7  1  1  0  0  0  0
  7 31  1  0  0  0  0
  8 32  1  0  0  0  0
  8 39  1  0  0  0  0
  9 10  1  0  0  0  0
  9  6  1  0  0  0  0
 11  9  1  0  0  0  0
 12 11  1  0  0  0  0
 13 11  2  0  0  0  0
 13 15  1  0  0  0  0
 14 13  1  0  0  0  0
 15 17  2  0  0  0  0
 16 15  1  0  0  0  0
 17  6  1  0  0  0  0
 18 17  1  1  0  0  0
 18  7  1  0  0  0  0
 19 18  1  0  0  0  0
 19 21  2  0  0  0  0
 20 19  1  0  0  0  0
 21 29  1  0  0  0  0
 22 21  1  0  0  0  0
 22 27  2  0  0  0  0
 23 25  2  0  0  0  0
 23 22  1  0  0  0  0
 24 23  1  0  0  0  0
 25  5  1  0  0  0  0
 26 25  1  0  0  0  0
 27 28  1  0  0  0  0
 29 31  2  0  0  0  0
 29 30  1  0  0  0  0
 32 31  1  1  0  0  0
 32 33  1  0  0  0  0
 33 34  1  0  0  0  0
 33 35  2  0  0  0  0
 35 36  1  0  0  0  0
 37 35  1  0  0  0  0
 37 38  1  0  0  0  0
 39 37  2  0  0  0  0
 40 39  1  0  0  0  0
M  END
$$$$
