CSD_code = WIVFAJ | q = 0 | S = 0 | Stoichiometry = C12H10F3MnN2O | MND = 6
 OpenBabel04212202113D

 29 31  0  0  0  0  0  0  0  0999 V2000
    2.5277    5.2999    2.8383 Mn  0  0  0  0  0  0  0  0  0  0  0  0
    1.8432    3.8515    3.4907 F   0  0  0  0  0  0  0  0  0  0  0  0
    2.9761    6.9616    2.6672 F   0  0  0  0  0  0  0  0  0  0  0  0
    4.1056    4.6178    2.4338 F   0  0  0  0  0  0  0  0  0  0  0  0
    0.6362    6.0938    3.2360 N   0  0  0  0  0  0  0  0  0  0  0  0
    1.8016    5.1081    1.1203 N   0  0  0  0  0  0  0  0  0  0  0  0
    2.3995    4.6029    0.0328 C   0  0  0  0  0  0  0  0  0  0  0  0
    3.4192    4.2706    0.1652 H   0  0  0  0  0  0  0  0  0  0  0  0
    3.4994    5.4931    4.9087 O   0  0  0  0  0  0  0  0  0  0  0  0
   -0.1146    6.0653    2.1115 C   0  0  0  0  0  0  0  0  0  0  0  0
   -2.1408    6.4532    0.8205 C   0  0  0  0  0  0  0  0  0  0  0  0
   -3.1594    6.8104    0.7797 H   0  0  0  0  0  0  0  0  0  0  0  0
    0.5106    5.5325    0.9620 C   0  0  0  0  0  0  0  0  0  0  0  0
   -1.2058    7.0673    4.3868 C   0  0  0  0  0  0  0  0  0  0  0  0
   -1.5931    7.4552    5.3155 H   0  0  0  0  0  0  0  0  0  0  0  0
    0.4672    4.9269   -1.3659 C   0  0  0  0  0  0  0  0  0  0  0  0
   -0.0306    4.8518   -2.3197 H   0  0  0  0  0  0  0  0  0  0  0  0
   -1.9883    7.0464    3.2479 C   0  0  0  0  0  0  0  0  0  0  0  0
   -3.0026    7.4175    3.2637 H   0  0  0  0  0  0  0  0  0  0  0  0
   -1.5415    5.9417   -0.2827 C   0  0  0  0  0  0  0  0  0  0  0  0
   -2.0763    5.8845   -1.2196 H   0  0  0  0  0  0  0  0  0  0  0  0
    1.7760    4.4996   -1.1985 C   0  0  0  0  0  0  0  0  0  0  0  0
    2.3235    4.0811   -2.0283 H   0  0  0  0  0  0  0  0  0  0  0  0
    0.1003    6.5813    4.3365 C   0  0  0  0  0  0  0  0  0  0  0  0
    0.7336    6.5862    5.2133 H   0  0  0  0  0  0  0  0  0  0  0  0
   -1.4490    6.5352    2.0638 C   0  0  0  0  0  0  0  0  0  0  0  0
   -0.1962    5.4622   -0.2580 C   0  0  0  0  0  0  0  0  0  0  0  0
    3.7717    4.5769    5.0464 H   0  0  0  0  0  0  0  0  0  0  0  0
    4.2937    5.9875    4.6696 H   0  0  0  0  0  0  0  0  0  0  0  0
  1  5  1  0  0  0  0
  1  2  1  0  0  0  0
  3  1  1  0  0  0  0
  4  1  1  0  0  0  0
  5 24  1  0  0  0  0
  6  1  1  0  0  0  0
  7  8  1  0  0  0  0
  7  6  1  0  0  0  0
  9 28  1  0  0  0  0
 10  5  1  0  0  0  0
 11 26  1  0  0  0  0
 12 11  1  0  0  0  0
 13  6  1  0  0  0  0
 13 10  2  0  0  0  0
 14 15  1  0  0  0  0
 16 22  1  0  0  0  0
 16 27  2  0  0  0  0
 17 16  1  0  0  0  0
 18 19  1  0  0  0  0
 18 14  1  0  0  0  0
 20 27  1  0  0  0  0
 20 11  2  0  0  0  0
 21 20  1  0  0  0  0
 22  7  2  0  0  0  0
 23 22  1  0  0  0  0
 24 14  2  0  0  0  0
 24 25  1  0  0  0  0
 26 10  1  0  0  0  0
 26 18  2  0  0  0  0
 27 13  1  0  0  0  0
 29  9  1  0  0  0  0
M  END
$$$$
