CSD_code = WIVHOA | q = 0 | S = 0 | Stoichiometry = C24H19ClN3OPPt | MND = 4
 OpenBabel04212202113D

 50 55  0  0  1  0  0  0  0  0999 V2000
   10.5218    7.6401    1.4105 Pt  0  0  1  0  0  0  0  0  0  0  0  0
    8.5613    8.4930    2.1681 Cl  0  0  0  0  0  0  0  0  0  0  0  0
   10.5336    6.0857    3.0179 P   0  0  0  0  0  4  0  0  0  0  0  0
   14.2022    5.9725    0.2295 O   0  0  0  0  0  0  0  0  0  0  0  0
   12.2509    6.9790    0.6630 N   0  0  0  0  0  0  0  0  0  0  0  0
   12.6800    7.8714   -0.3124 N   0  0  0  0  0  0  0  0  0  0  0  0
   10.7014    9.0005   -0.0954 N   0  0  0  0  0  0  0  0  0  0  0  0
   11.7728    4.7885    2.7335 C   0  0  0  0  0  0  0  0  0  0  0  0
   11.6462    3.6457    3.5234 C   0  0  0  0  0  0  0  0  0  0  0  0
   12.5364    2.5955    3.4209 C   0  0  0  0  0  0  0  0  0  0  0  0
   13.5831    2.6805    2.5164 C   0  0  0  0  0  0  0  0  0  0  0  0
   13.7166    3.8064    1.7313 C   0  0  0  0  0  0  0  0  0  0  0  0
   12.8232    4.8779    1.8126 C   0  0  0  0  0  0  0  0  0  0  0  0
   13.1371    5.9936    0.8648 C   0  0  0  0  0  0  0  0  0  0  0  0
   11.8884    8.8569   -0.7350 C   0  0  1  0  0  3  0  0  0  0  0  0
   12.2588    9.7252   -1.7837 C   0  0  0  0  0  0  0  0  0  0  0  0
   11.3951   10.7218   -2.1517 C   0  0  0  0  0  0  0  0  0  0  0  0
   10.1711   10.8545   -1.4852 C   0  0  0  0  0  0  0  0  0  0  0  0
    9.8713    9.9777   -0.4707 C   0  0  0  0  0  0  0  0  0  0  0  0
   10.8236    6.6292    4.7234 C   0  0  0  0  0  0  0  0  0  0  0  0
    9.8388    7.4148    5.3213 C   0  0  0  0  0  0  0  0  0  0  0  0
   10.0198    7.8856    6.6076 C   0  0  0  0  0  0  0  0  0  0  0  0
   11.1847    7.5876    7.2985 C   0  0  0  0  0  0  0  0  0  0  0  0
   12.1732    6.8258    6.6977 C   0  0  0  0  0  0  0  0  0  0  0  0
   11.9998    6.3483    5.4102 C   0  0  0  0  0  0  0  0  0  0  0  0
    8.9702    5.1665    3.0630 C   0  0  0  0  0  0  0  0  0  0  0  0
    8.3616    4.9668    1.8267 C   0  0  0  0  0  0  0  0  0  0  0  0
    7.1691    4.2753    1.7434 C   0  0  0  0  0  0  0  0  0  0  0  0
    6.5770    3.7834    2.8967 C   0  0  0  0  0  0  0  0  0  0  0  0
    7.1759    3.9873    4.1287 C   0  0  0  0  0  0  0  0  0  0  0  0
    8.3723    4.6780    4.2178 C   0  0  0  0  0  0  0  0  0  0  0  0
   10.8295    3.5906    4.2305 H   0  0  0  0  0  0  0  0  0  0  0  0
   12.4166    1.7206    4.0424 H   0  0  0  0  0  0  0  0  0  0  0  0
   14.2917    1.8711    2.4243 H   0  0  0  0  0  0  0  0  0  0  0  0
   14.5277    3.8937    1.0234 H   0  0  0  0  0  0  0  0  0  0  0  0
   13.2110    9.5832   -2.2688 H   0  0  0  0  0  0  0  0  0  0  0  0
   11.6543   11.3997   -2.9506 H   0  0  0  0  0  0  0  0  0  0  0  0
    9.4742   11.6293   -1.7560 H   0  0  0  0  0  0  0  0  0  0  0  0
    8.9410   10.0418    0.0784 H   0  0  0  0  0  0  0  0  0  0  0  0
    8.9442    7.6565    4.7634 H   0  0  0  0  0  0  0  0  0  0  0  0
    9.2549    8.4903    7.0712 H   0  0  0  0  0  0  0  0  0  0  0  0
   11.3255    7.9566    8.3037 H   0  0  0  0  0  0  0  0  0  0  0  0
   13.0851    6.6039    7.2324 H   0  0  0  0  0  0  0  0  0  0  0  0
   12.7741    5.7588    4.9398 H   0  0  0  0  0  0  0  0  0  0  0  0
    8.8344    5.3829    0.9392 H   0  0  0  0  0  0  0  0  0  0  0  0
    6.6941    4.1260    0.7854 H   0  0  0  0  0  0  0  0  0  0  0  0
    5.6411    3.2481    2.8359 H   0  0  0  0  0  0  0  0  0  0  0  0
    6.7064    3.6121    5.0263 H   0  0  0  0  0  0  0  0  0  0  0  0
    8.8298    4.8505    5.1826 H   0  0  0  0  0  0  0  0  0  0  0  0
   13.5834    7.6125   -0.7113 H   0  0  0  0  0  0  0  0  0  0  0  0
  1  2  1  6  0  0  0
  1  3  1  0  0  0  0
  3 26  1  0  0  0  0
  3 20  1  0  0  0  0
  4 14  2  0  0  0  0
  5 14  1  0  0  0  0
  5  1  1  0  0  0  0
  6  5  1  0  0  0  0
  7  1  1  0  0  0  0
  8  3  1  0  0  0  0
  8  9  1  0  0  0  0
  9 32  1  0  0  0  0
 10  9  2  0  0  0  0
 10 33  1  0  0  0  0
 11 10  1  0  0  0  0
 12 13  1  0  0  0  0
 12 11  2  0  0  0  0
 13  8  2  0  0  0  0
 14 13  1  0  0  0  0
 15 16  1  1  0  0  0
 15  6  1  0  0  0  0
 15  7  1  0  0  0  0
 17 16  2  0  0  0  0
 17 18  1  0  0  0  0
 18 19  2  0  0  0  0
 19  7  1  0  0  0  0
 19 39  1  0  0  0  0
 20 21  2  0  0  0  0
 20 25  1  0  0  0  0
 21 22  1  0  0  0  0
 22 41  1  0  0  0  0
 22 23  2  0  0  0  0
 23 42  1  0  0  0  0
 24 43  1  0  0  0  0
 24 23  1  0  0  0  0
 25 24  2  0  0  0  0
 26 31  1  0  0  0  0
 27 26  2  0  0  0  0
 28 27  1  0  0  0  0
 28 29  2  0  0  0  0
 29 30  1  0  0  0  0
 30 31  2  0  0  0  0
 30 48  1  0  0  0  0
 31 49  1  0  0  0  0
 34 11  1  0  0  0  0
 35 12  1  0  0  0  0
 36 16  1  0  0  0  0
 37 17  1  0  0  0  0
 38 18  1  0  0  0  0
 40 21  1  0  0  0  0
 44 25  1  0  0  0  0
 45 27  1  0  0  0  0
 46 28  1  0  0  0  0
 47 29  1  0  0  0  0
 50  6  1  0  0  0  0
M  END
$$$$
