CSD_code = WIVNEX | q = 0 | S = 0 | Stoichiometry = C16H17I2IrN4O3 | MND = 6
 OpenBabel04212202113D

 43 45  0  0  1  0  0  0  0  0999 V2000
    7.1654    0.7866   -3.9911 Ir  0  0  2  0  0  0  0  0  0  0  0  0
    4.9951   -0.5103   -4.9323 I   0  0  0  0  0 15  0  0  0  0  0  0
    9.3385    2.0833   -3.0506 I   0  0  0  0  0 15  0  0  0  0  0  0
    7.7519   -0.9841   -2.9731 O   0  0  0  0  0  0  0  0  0  0  0  0
    6.4697    0.4774   -2.0065 O   0  0  0  0  0  0  0  0  0  0  0  0
    6.7835   -3.8518    2.6002 O   0  0  0  0  0  0  0  0  0  0  0  0
    7.2474   -4.6885    2.4719 H   0  0  0  0  0  0  0  0  0  0  0  0
    9.1345    0.0364   -6.1696 N   0  0  0  0  0  0  0  0  0  0  0  0
    7.6175    1.3557   -6.9326 N   0  0  0  0  0  0  0  0  0  0  0  0
    6.2074    2.9534   -5.8799 N   0  0  0  0  0  0  0  0  0  0  0  0
    6.0035    3.5819   -3.8335 N   0  0  0  0  0  0  0  0  0  0  0  0
    9.9484   -0.7840   -5.3123 C   0  0  0  0  0  0  0  0  0  0  0  0
   10.7995   -0.2104   -4.9396 H   0  0  0  0  0  0  0  0  0  0  0  0
   10.3100   -1.6461   -5.8711 H   0  0  0  0  0  0  0  0  0  0  0  0
    9.3608   -1.1272   -4.4633 H   0  0  0  0  0  0  0  0  0  0  0  0
    9.4214    0.2618   -7.4871 C   0  0  0  0  0  0  0  0  0  0  0  0
   10.2693   -0.1792   -7.9691 H   0  0  0  0  0  0  0  0  0  0  0  0
    8.4690    1.0889   -7.9724 C   0  0  0  0  0  0  0  0  0  0  0  0
    8.3253    1.4952   -8.9516 H   0  0  0  0  0  0  0  0  0  0  0  0
    6.4033    2.1210   -7.0371 C   0  0  0  0  0  0  0  0  0  0  0  0
    6.4559    2.7544   -7.9281 H   0  0  0  0  0  0  0  0  0  0  0  0
    5.5494    1.4276   -7.1287 H   0  0  0  0  0  0  0  0  0  0  0  0
    5.6990    4.2255   -5.9056 C   0  0  0  0  0  0  0  0  0  0  0  0
    5.4660    4.7328   -6.8183 H   0  0  0  0  0  0  0  0  0  0  0  0
    5.5750    4.6164   -4.6177 C   0  0  0  0  0  0  0  0  0  0  0  0
    5.2196    5.5367   -4.2027 H   0  0  0  0  0  0  0  0  0  0  0  0
    6.0383    3.6412   -2.3962 C   0  0  0  0  0  0  0  0  0  0  0  0
    6.0428    2.6337   -1.9852 H   0  0  0  0  0  0  0  0  0  0  0  0
    5.1598    4.1729   -2.0335 H   0  0  0  0  0  0  0  0  0  0  0  0
    6.9394    4.1597   -2.0624 H   0  0  0  0  0  0  0  0  0  0  0  0
    6.3992    2.5500   -4.5984 C   0  0  0  0  0  0  0  0  0  0  0  0
    8.0255    0.7069   -5.8128 C   0  0  2  0  0  3  0  0  0  0  0  0
    7.0830   -0.6231   -1.9670 C   0  0  1  0  0  3  0  0  0  0  0  0
    7.0176   -1.4755   -0.7674 C   0  0  0  0  0  0  0  0  0  0  0  0
    7.6375   -2.7198   -0.7663 C   0  0  0  0  0  0  0  0  0  0  0  0
    8.1675   -3.0470   -1.6483 H   0  0  0  0  0  0  0  0  0  0  0  0
    7.5675   -3.5250    0.3512 C   0  0  0  0  0  0  0  0  0  0  0  0
    8.0462   -4.4959    0.3544 H   0  0  0  0  0  0  0  0  0  0  0  0
    6.8778   -3.0917    1.4801 C   0  0  0  0  0  0  0  0  0  0  0  0
    6.2580   -1.8430    1.4798 C   0  0  0  0  0  0  0  0  0  0  0  0
    5.7291   -1.5277    2.3651 H   0  0  0  0  0  0  0  0  0  0  0  0
    6.3274   -1.0428    0.3614 C   0  0  0  0  0  0  0  0  0  0  0  0
    5.8489   -0.0751    0.3467 H   0  0  0  0  0  0  0  0  0  0  0  0
  1 31  2  6  0  0  0
  1  4  1  0  0  0  0
  1  5  1  0  0  0  0
  4 33  1  0  0  0  0
  5 33  1  0  0  0  0
  7  6  1  0  0  0  0
  8 32  1  0  0  0  0
  8 12  1  0  0  0  0
 10 31  1  0  0  0  0
 11 27  1  0  0  0  0
 12 13  1  0  0  0  0
 12 15  1  0  0  0  0
 14 12  1  0  0  0  0
 16  8  1  0  0  0  0
 17 16  1  0  0  0  0
 18 16  2  0  0  0  0
 18  9  1  0  0  0  0
 19 18  1  0  0  0  0
 20  9  1  0  0  0  0
 20 10  1  0  0  0  0
 21 20  1  0  0  0  0
 22 20  1  0  0  0  0
 23 10  1  0  0  0  0
 23 25  2  0  0  0  0
 24 23  1  0  0  0  0
 25 26  1  0  0  0  0
 25 11  1  0  0  0  0
 27 30  1  0  0  0  0
 27 29  1  0  0  0  0
 27 28  1  0  0  0  0
 31 11  1  0  0  0  0
 32  9  1  1  0  0  0
 32  1  1  0  0  0  0
 33 34  1  6  0  0  0
 34 35  2  0  0  0  0
 34 42  1  0  0  0  0
 35 37  1  0  0  0  0
 36 35  1  0  0  0  0
 37 38  1  0  0  0  0
 37 39  2  0  0  0  0
 39  6  1  0  0  0  0
 40 39  1  0  0  0  0
 40 41  1  0  0  0  0
 42 40  2  0  0  0  0
 43 42  1  0  0  0  0
M  END
$$$$
