CSD_code = WIVYUX | q = 0 | S = 0 | Stoichiometry = C8H14AuClN2 | MND = 2
 OpenBabel04212202113D

 26 26  0  0  1  0  0  0  0  0999 V2000
    6.0225    7.5974    1.6656 Au  0  0  0  0  0  0  0  0  0  0  0  0
    5.8116    9.3904    0.3326 Cl  0  0  0  0  0  0  0  0  0  0  0  0
    6.2120    6.0104    2.8739 C   0  0  1  0  0  3  0  0  0  0  0  0
    7.3101    5.6518    3.5635 N   0  0  0  0  0  0  0  0  0  0  0  0
    5.2678    5.1106    3.1994 N   0  0  0  0  0  0  0  0  0  0  0  0
    7.0566    4.5398    4.3167 C   0  0  0  0  0  0  0  0  0  0  0  0
    7.7977    4.0864    4.9417 H   0  0  0  0  0  0  0  0  0  0  0  0
    5.7675    4.1950    4.0854 C   0  0  0  0  0  0  0  0  0  0  0  0
    5.1790    3.3882    4.4703 H   0  0  0  0  0  0  0  0  0  0  0  0
    8.5592    6.3706    3.5471 C   0  0  0  0  0  0  0  0  0  0  0  0
    8.7604    6.6812    2.5186 H   0  0  0  0  0  0  0  0  0  0  0  0
    9.3479    5.6901    3.8775 H   0  0  0  0  0  0  0  0  0  0  0  0
    3.9251    5.0923    2.6928 C   0  0  0  0  0  0  0  0  0  0  0  0
    3.8010    5.9288    2.0063 H   0  0  0  0  0  0  0  0  0  0  0  0
    3.2098    5.1887    3.5112 H   0  0  0  0  0  0  0  0  0  0  0  0
    3.7322    4.1584    2.1621 H   0  0  0  0  0  0  0  0  0  0  0  0
    8.2870    7.2695    5.9170 C   0  0  0  0  0  0  0  0  0  0  0  0
    9.0689    6.5872    6.2607 H   0  0  0  0  0  0  0  0  0  0  0  0
    7.3259    6.7624    6.0312 H   0  0  0  0  0  0  0  0  0  0  0  0
    8.5174    7.6091    4.4465 C   0  0  0  0  0  0  0  0  0  0  0  0
    9.4659    8.1368    4.3389 H   0  0  0  0  0  0  0  0  0  0  0  0
    7.7246    8.2709    4.0919 H   0  0  0  0  0  0  0  0  0  0  0  0
    8.2954    8.5241    6.7811 C   0  0  0  0  0  0  0  0  0  0  0  0
    8.1130    8.2726    7.8227 H   0  0  0  0  0  0  0  0  0  0  0  0
    7.5234    9.2154    6.4533 H   0  0  0  0  0  0  0  0  0  0  0  0
    9.2566    9.0279    6.7123 H   0  0  0  0  0  0  0  0  0  0  0  0
  2  1  1  0  0  0  0
  3  1  1  1  0  0  0
  3  5  1  0  0  0  0
  3  4  1  0  0  0  0
  4  6  1  0  0  0  0
  5  8  1  0  0  0  0
  6  7  1  0  0  0  0
  8  6  2  0  0  0  0
  8  9  1  0  0  0  0
 10  4  1  0  0  0  0
 10 12  1  0  0  0  0
 10 20  1  0  0  0  0
 11 10  1  0  0  0  0
 13  5  1  0  0  0  0
 13 15  1  0  0  0  0
 14 13  1  0  0  0  0
 16 13  1  0  0  0  0
 17 19  1  0  0  0  0
 17 18  1  0  0  0  0
 17 23  1  0  0  0  0
 20 17  1  0  0  0  0
 21 20  1  0  0  0  0
 22 20  1  0  0  0  0
 23 24  1  0  0  0  0
 25 23  1  0  0  0  0
 26 23  1  0  0  0  0
M  END
$$$$
