CSD_code = WIWDUC | q = 0 | S = 0 | Stoichiometry = C14H26Cl2PRh | MND = 6
 OpenBabel04212202113D

 44 42  0  0  1  0  0  0  0  0999 V2000
    1.7447    4.9944    6.8661 C   0  0  0  0  0  3  0  0  0  0  0  0
    2.4839    4.4206    6.3063 H   0  0  0  0  0  0  0  0  0  0  0  0
    0.6087    5.4068    6.2013 C   0  0  0  0  0  3  0  0  0  0  0  0
    0.4974    5.1118    5.1580 H   0  0  0  0  0  0  0  0  0  0  0  0
   -0.2266    6.5935    6.6244 C   0  0  0  0  0  0  0  0  0  0  0  0
   -0.6359    7.0748    5.7339 H   0  0  0  0  0  0  0  0  0  0  0  0
    0.4148    7.3232    7.1201 H   0  0  0  0  0  0  0  0  0  0  0  0
   -1.3911    6.1823    7.5443 C   0  0  0  0  0  0  0  0  0  0  0  0
   -1.6795    7.0223    8.1862 H   0  0  0  0  0  0  0  0  0  0  0  0
   -2.2598    5.9361    6.9273 H   0  0  0  0  0  0  0  0  0  0  0  0
   -1.0806    4.9808    8.4069 C   0  0  2  0  0  0  0  0  0  0  0  0
   -1.9788    4.4777    8.7670 H   0  0  0  0  0  0  0  0  0  0  0  0
    0.0913    4.8005    9.1398 C   0  0  0  0  0  3  0  0  0  0  0  0
    0.0317    4.1475   10.0096 H   0  0  0  0  0  0  0  0  0  0  0  0
    1.1985    5.8310    9.2139 C   0  0  0  0  0  0  0  0  0  0  0  0
    1.6695    5.7764   10.1974 H   0  0  0  0  0  0  0  0  0  0  0  0
    0.7650    6.8277    9.1209 H   0  0  0  0  0  0  0  0  0  0  0  0
    2.2795    5.6077    8.1385 C   0  0  0  0  0  0  0  0  0  0  0  0
    2.7732    6.5558    7.8985 H   0  0  0  0  0  0  0  0  0  0  0  0
    3.0451    4.9384    8.5399 H   0  0  0  0  0  0  0  0  0  0  0  0
   -1.9231    0.8397    7.0726 C   0  0  0  0  0  0  0  0  0  0  0  0
   -1.2924    0.4834    6.2520 H   0  0  0  0  0  0  0  0  0  0  0  0
   -2.8760    1.9021    6.5300 C   0  0  0  0  0  0  0  0  0  0  0  0
   -3.5100    1.4900    5.7475 H   0  0  0  0  0  0  0  0  0  0  0  0
   -2.2991    2.7323    6.1090 H   0  0  0  0  0  0  0  0  0  0  0  0
   -3.5139    2.2878    7.3253 H   0  0  0  0  0  0  0  0  0  0  0  0
   -2.6667   -0.3260    7.7094 C   0  0  0  0  0  0  0  0  0  0  0  0
   -3.3274    0.0221    8.5011 H   0  0  0  0  0  0  0  0  0  0  0  0
   -1.9783   -1.0556    8.1308 H   0  0  0  0  0  0  0  0  0  0  0  0
   -3.2741   -0.8266    6.9569 H   0  0  0  0  0  0  0  0  0  0  0  0
    0.4623    0.4352    8.8210 C   0  0  0  0  0  0  0  0  0  0  0  0
   -0.0576   -0.1939    9.5552 H   0  0  0  0  0  0  0  0  0  0  0  0
    1.0257   -0.4322    7.7042 C   0  0  0  0  0  0  0  0  0  0  0  0
    1.4471    0.1897    6.9182 H   0  0  0  0  0  0  0  0  0  0  0  0
    0.2601   -1.0693    7.2678 H   0  0  0  0  0  0  0  0  0  0  0  0
    1.8132   -1.0712    8.1014 H   0  0  0  0  0  0  0  0  0  0  0  0
    1.5729    1.2222    9.5145 C   0  0  0  0  0  0  0  0  0  0  0  0
    2.3587    0.5573    9.8684 H   0  0  0  0  0  0  0  0  0  0  0  0
    1.1803    1.7766   10.3670 H   0  0  0  0  0  0  0  0  0  0  0  0
    2.0088    1.9337    8.8053 H   0  0  0  0  0  0  0  0  0  0  0  0
    0.7863    2.2618    5.6732 Cl  0  0  0  0  0 15  0  0  0  0  0  0
   -1.8650    1.8918    9.8653 Cl  0  0  0  0  0  0  0  0  0  0  0  0
   -0.7496    1.7217    8.2147 P   0  0  0  0  0  0  0  0  0  0  0  0
    0.1539    3.6152    7.3647 Rh  0  0  0  0  0  0  0  0  0  0  0  0
  1 18  1  0  0  0  0
  2  1  1  0  0  0  0
  3  5  1  0  0  0  0
  3  1  1  0  0  0  0
  4  3  1  0  0  0  0
  5  7  1  0  0  0  0
  5  8  1  0  0  0  0
  6  5  1  0  0  0  0
  8  9  1  0  0  0  0
  8 11  1  0  0  0  0
 10  8  1  0  0  0  0
 11 12  1  1  0  0  0
 11 13  1  0  0  0  0
 13 15  1  0  0  0  0
 13 14  1  0  0  0  0
 15 16  1  0  0  0  0
 17 15  1  0  0  0  0
 18 20  1  0  0  0  0
 18 15  1  0  0  0  0
 19 18  1  0  0  0  0
 21 27  1  0  0  0  0
 21 43  1  0  0  0  0
 22 21  1  0  0  0  0
 23 21  1  0  0  0  0
 23 26  1  0  0  0  0
 24 23  1  0  0  0  0
 25 23  1  0  0  0  0
 27 29  1  0  0  0  0
 27 28  1  0  0  0  0
 30 27  1  0  0  0  0
 31 37  1  0  0  0  0
 31 32  1  0  0  0  0
 33 36  1  0  0  0  0
 33 31  1  0  0  0  0
 34 33  1  0  0  0  0
 35 33  1  0  0  0  0
 37 38  1  0  0  0  0
 37 39  1  0  0  0  0
 40 37  1  0  0  0  0
 43 31  1  0  0  0  0
 43 42  1  0  0  0  0
 44 11  1  0  0  0  0
M  END
$$$$
