CSD_code = WIWFUE | q = 0 | S = 0 | Stoichiometry = C21H33BClFN6NiS3 | MND = 4
 OpenBabel04212202113D

 67 71  0  0  1  0  0  0  0  0999 V2000
    5.6985    3.2903    4.4965 Ni  0  0  2  0  0  0  0  0  0  0  0  0
    5.6995    3.2908    2.5014 Cl  0  0  0  0  0  0  0  0  0  0  0  0
    4.0702    1.6008    4.9789 S   0  0  0  0  0  0  0  0  0  0  0  0
    5.6967    3.2913    8.8535 F   0  0  0  0  0  0  0  0  0  0  0  0
    4.2285    3.4160    7.0044 N   0  0  0  0  0  0  0  0  0  0  0  0
    2.3366    3.5034    5.8763 N   0  0  0  0  0  0  0  0  0  0  0  0
    5.6987    3.2902    7.4694 B   0  0  1  0  0  0  0  0  0  0  0  0
    3.5518    2.9034    5.9450 C   0  0  2  0  0  3  0  0  0  0  0  0
    3.4181    4.3468    7.5970 C   0  0  0  0  0  0  0  0  0  0  0  0
    3.7452    4.8933    8.4567 H   0  0  0  0  0  0  0  0  0  0  0  0
    2.2584    4.4015    6.9076 C   0  0  0  0  0  0  0  0  0  0  0  0
    1.4064    5.0197    7.0835 H   0  0  0  0  0  0  0  0  0  0  0  0
    1.3456    3.3360    4.8036 C   0  0  0  0  0  0  0  0  0  0  0  0
    0.1710    4.2879    5.0339 C   0  0  0  0  0  0  0  0  0  0  0  0
    0.4973    5.3251    5.0191 H   0  0  0  0  0  0  0  0  0  0  0  0
   -0.3366    4.0757    5.9726 H   0  0  0  0  0  0  0  0  0  0  0  0
   -0.5455    4.1517    4.2285 H   0  0  0  0  0  0  0  0  0  0  0  0
    2.0094    3.6868    3.4697 C   0  0  0  0  0  0  0  0  0  0  0  0
    2.4265    4.6915    3.5092 H   0  0  0  0  0  0  0  0  0  0  0  0
    1.2772    3.6418    2.6695 H   0  0  0  0  0  0  0  0  0  0  0  0
    2.8151    2.9977    3.2293 H   0  0  0  0  0  0  0  0  0  0  0  0
    0.8258    1.8963    4.8173 C   0  0  0  0  0  0  0  0  0  0  0  0
    0.3932    1.6585    5.7874 H   0  0  0  0  0  0  0  0  0  0  0  0
    1.6267    1.1942    4.6091 H   0  0  0  0  0  0  0  0  0  0  0  0
    0.0597    1.7808    4.0560 H   0  0  0  0  0  0  0  0  0  0  0  0
    5.0522    5.5464    4.9785 S   0  0  0  0  0  0  0  0  0  0  0  0
    7.9756    2.7234    4.9808 S   0  0  0  0  0  0  0  0  0  0  0  0
    6.5435    4.5007    7.0060 N   0  0  0  0  0  0  0  0  0  0  0  0
    6.3254    1.9531    7.0080 N   0  0  0  0  0  0  0  0  0  0  0  0
    7.1940    0.2713    5.8775 N   0  0  0  0  0  0  0  0  0  0  0  0
    7.5657    6.0947    5.8770 N   0  0  0  0  0  0  0  0  0  0  0  0
    6.4385    5.3425    5.9458 C   0  0  2  0  0  3  0  0  0  0  0  0
    7.1061    1.6237    5.9470 C   0  0  2  0  0  3  0  0  0  0  0  0
    5.9244    0.7855    7.5997 C   0  0  0  0  0  0  0  0  0  0  0  0
    7.7550    4.7370    7.5982 C   0  0  0  0  0  0  0  0  0  0  0  0
    5.2887    0.7951    8.4605 H   0  0  0  0  0  0  0  0  0  0  0  0
    8.0646    4.1810    8.4584 H   0  0  0  0  0  0  0  0  0  0  0  0
    6.4554   -0.2460    6.9087 C   0  0  0  0  0  0  0  0  0  0  0  0
    8.3827    5.7134    6.9082 C   0  0  0  0  0  0  0  0  0  0  0  0
    6.3459   -1.2930    7.0840 H   0  0  0  0  0  0  0  0  0  0  0  0
    9.3441    6.1421    7.0839 H   0  0  0  0  0  0  0  0  0  0  0  0
    7.8343   -0.5025    4.8042 C   0  0  0  0  0  0  0  0  0  0  0  0
    7.9156    7.0365    4.8040 C   0  0  0  0  0  0  0  0  0  0  0  0
    7.5969   -1.9957    5.0335 C   0  0  0  0  0  0  0  0  0  0  0  0
    9.3273    7.5779    5.0335 C   0  0  0  0  0  0  0  0  0  0  0  0
    6.5356   -2.2316    5.0186 H   0  0  0  0  0  0  0  0  0  0  0  0
   10.0623    6.7767    5.0183 H   0  0  0  0  0  0  0  0  0  0  0  0
    8.0346   -2.3300    5.9718 H   0  0  0  0  0  0  0  0  0  0  0  0
    9.3977    8.1236    5.9721 H   0  0  0  0  0  0  0  0  0  0  0  0
    8.0730   -2.5473    4.2275 H   0  0  0  0  0  0  0  0  0  0  0  0
    9.5669    8.2664    4.2279 H   0  0  0  0  0  0  0  0  0  0  0  0
    7.1981   -0.1017    3.4709 C   0  0  0  0  0  0  0  0  0  0  0  0
    7.8863    6.2859    3.4704 C   0  0  0  0  0  0  0  0  0  0  0  0
    6.1194   -0.2427    3.5102 H   0  0  0  0  0  0  0  0  0  0  0  0
    8.5478    5.4222    3.5094 H   0  0  0  0  0  0  0  0  0  0  0  0
    7.6033   -0.7128    2.6703 H   0  0  0  0  0  0  0  0  0  0  0  0
    8.2130    6.9424    2.6699 H   0  0  0  0  0  0  0  0  0  0  0  0
    7.3924    0.9407    3.2313 H   0  0  0  0  0  0  0  0  0  0  0  0
    6.8864    5.9328    3.2308 H   0  0  0  0  0  0  0  0  0  0  0  0
    9.3411   -0.2330    4.8176 C   0  0  0  0  0  0  0  0  0  0  0  0
    6.9283    8.2063    4.8179 C   0  0  0  0  0  0  0  0  0  0  0  0
    9.7639   -0.4889    5.7873 H   0  0  0  0  0  0  0  0  0  0  0  0
    6.9388    8.7000    5.7879 H   0  0  0  0  0  0  0  0  0  0  0  0
    9.5490    0.8114    4.6094 H   0  0  0  0  0  0  0  0  0  0  0  0
    5.9198    7.8635    4.6101 H   0  0  0  0  0  0  0  0  0  0  0  0
    9.8236   -0.8386    4.0561 H   0  0  0  0  0  0  0  0  0  0  0  0
    7.2109    8.9273    4.0564 H   0  0  0  0  0  0  0  0  0  0  0  0
  1  2  1  6  0  0  0
  1 26  1  0  0  0  0
  1  3  1  0  0  0  0
  1 27  1  0  0  0  0
  5  7  1  0  0  0  0
  5  9  1  0  0  0  0
  6  8  1  0  0  0  0
  6 11  1  0  0  0  0
  7  4  1  1  0  0  0
  8  3  1  1  0  0  0
  8  5  1  0  0  0  0
  9 10  1  0  0  0  0
 11 12  1  0  0  0  0
 11  9  2  0  0  0  0
 13 22  1  0  0  0  0
 13 14  1  0  0  0  0
 13  6  1  0  0  0  0
 14 16  1  0  0  0  0
 15 14  1  0  0  0  0
 17 14  1  0  0  0  0
 18 19  1  0  0  0  0
 18 13  1  0  0  0  0
 20 18  1  0  0  0  0
 21 18  1  0  0  0  0
 22 23  1  0  0  0  0
 24 22  1  0  0  0  0
 25 22  1  0  0  0  0
 28  7  1  0  0  0  0
 28 35  1  0  0  0  0
 29  7  1  0  0  0  0
 29 34  1  0  0  0  0
 30 33  1  0  0  0  0
 30 38  1  0  0  0  0
 31 32  1  0  0  0  0
 31 39  1  0  0  0  0
 32 26  1  1  0  0  0
 32 28  1  0  0  0  0
 33 27  1  1  0  0  0
 33 29  1  0  0  0  0
 34 36  1  0  0  0  0
 35 37  1  0  0  0  0
 38 40  1  0  0  0  0
 38 34  2  0  0  0  0
 39 41  1  0  0  0  0
 39 35  2  0  0  0  0
 42 60  1  0  0  0  0
 42 44  1  0  0  0  0
 42 30  1  0  0  0  0
 43 61  1  0  0  0  0
 43 45  1  0  0  0  0
 43 31  1  0  0  0  0
 44 48  1  0  0  0  0
 45 49  1  0  0  0  0
 46 44  1  0  0  0  0
 47 45  1  0  0  0  0
 50 44  1  0  0  0  0
 51 45  1  0  0  0  0
 52 54  1  0  0  0  0
 52 42  1  0  0  0  0
 53 55  1  0  0  0  0
 53 43  1  0  0  0  0
 56 52  1  0  0  0  0
 57 53  1  0  0  0  0
 58 52  1  0  0  0  0
 59 53  1  0  0  0  0
 60 62  1  0  0  0  0
 61 63  1  0  0  0  0
 64 60  1  0  0  0  0
 65 61  1  0  0  0  0
 66 60  1  0  0  0  0
 67 61  1  0  0  0  0
M  END
$$$$
