CSD_code = WIWGOZ | q = 0 | S = 0 | Stoichiometry = C21H33BCl2N6NiS3 | MND = 4
 OpenBabel04212202113D

 67 71  0  0  1  0  0  0  0  0999 V2000
    5.7289    3.3075   12.5741 Ni  0  0  1  0  0  0  0  0  0  0  0  0
    4.1189    1.6011   12.0798 S   0  0  0  0  0  0  0  0  0  0  0  0
    5.7292    3.3076   14.5684 Cl  0  0  0  0  0  0  0  0  0  0  0  0
    5.7295    3.3076    7.7533 Cl  0  0  0  0  0  0  0  0  0  0  0  0
    5.7287    3.3070    9.6205 B   0  0  1  0  0  0  0  0  0  0  0  0
    4.2641    3.4420   10.0675 N   0  0  0  0  0  0  0  0  0  0  0  0
    2.3755    3.5001   11.2087 N   0  0  0  0  0  0  0  0  0  0  0  0
    3.5916    2.9061   11.1235 C   0  0  1  0  0  3  0  0  0  0  0  0
    3.4464    4.3866    9.5034 C   0  0  0  0  0  0  0  0  0  0  0  0
    3.7606    4.9590    8.6557 H   0  0  0  0  0  0  0  0  0  0  0  0
    2.2908    4.4215   10.1993 C   0  0  0  0  0  0  0  0  0  0  0  0
    1.4370    5.0419   10.0407 H   0  0  0  0  0  0  0  0  0  0  0  0
    1.3885    3.3097   12.2824 C   0  0  0  0  0  0  0  0  0  0  0  0
    0.8798    1.8664   12.2531 C   0  0  0  0  0  0  0  0  0  0  0  0
    0.4454    1.6372   11.2818 H   0  0  0  0  0  0  0  0  0  0  0  0
    0.1172    1.7366   13.0154 H   0  0  0  0  0  0  0  0  0  0  0  0
    1.6857    1.1666   12.4503 H   0  0  0  0  0  0  0  0  0  0  0  0
    2.0541    3.6505   13.6181 C   0  0  0  0  0  0  0  0  0  0  0  0
    2.8579    2.9577   13.8546 H   0  0  0  0  0  0  0  0  0  0  0  0
    1.3214    3.6031   14.4178 H   0  0  0  0  0  0  0  0  0  0  0  0
    2.4736    4.6545   13.5843 H   0  0  0  0  0  0  0  0  0  0  0  0
    0.2053    4.2541   12.0666 C   0  0  0  0  0  0  0  0  0  0  0  0
   -0.2985    4.0541   11.1231 H   0  0  0  0  0  0  0  0  0  0  0  0
    0.5208    5.2941   12.1019 H   0  0  0  0  0  0  0  0  0  0  0  0
   -0.5115    4.0955   12.8679 H   0  0  0  0  0  0  0  0  0  0  0  0
    8.0115    2.7654   12.0802 S   0  0  0  0  0  0  0  0  0  0  0  0
    5.0550    5.5547   12.0795 S   0  0  0  0  0  0  0  0  0  0  0  0
    6.3439    1.9713   10.0681 N   0  0  0  0  0  0  0  0  0  0  0  0
    6.5777    4.5076   10.0685 N   0  0  0  0  0  0  0  0  0  0  0  0
    7.5717    6.1147   11.2092 N   0  0  0  0  0  0  0  0  0  0  0  0
    7.2380    0.3065   11.2089 N   0  0  0  0  0  0  0  0  0  0  0  0
    7.1444    1.6567   11.1239 C   0  0  1  0  0  3  0  0  0  0  0  0
    6.4493    5.3584   11.1240 C   0  0  1  0  0  3  0  0  0  0  0  0
    7.8046    4.7436    9.5044 C   0  0  0  0  0  0  0  0  0  0  0  0
    5.9346    0.7909    9.5039 C   0  0  0  0  0  0  0  0  0  0  0  0
    8.1434    4.1854    8.6568 H   0  0  0  0  0  0  0  0  0  0  0  0
    5.2818    0.7769    8.6562 H   0  0  0  0  0  0  0  0  0  0  0  0
    8.4123    5.7273   10.2001 C   0  0  0  0  0  0  0  0  0  0  0  0
    6.4823   -0.2274   10.1996 C   0  0  0  0  0  0  0  0  0  0  0  0
    9.3766    6.1564   10.0417 H   0  0  0  0  0  0  0  0  0  0  0  0
    6.3717   -1.2770   10.0410 H   0  0  0  0  0  0  0  0  0  0  0  0
    7.8998    7.0652   12.2825 C   0  0  0  0  0  0  0  0  0  0  0  0
    7.8970   -0.4530   12.2821 C   0  0  0  0  0  0  0  0  0  0  0  0
    6.9038    8.2270   12.2523 C   0  0  0  0  0  0  0  0  0  0  0  0
    9.4012   -0.1715   12.2520 C   0  0  0  0  0  0  0  0  0  0  0  0
    6.9229    8.7171   11.2806 H   0  0  0  0  0  0  0  0  0  0  0  0
    9.8162   -0.4331   11.2803 H   0  0  0  0  0  0  0  0  0  0  0  0
    7.1723    8.9528   13.0143 H   0  0  0  0  0  0  0  0  0  0  0  0
    9.8955   -0.7670   13.0139 H   0  0  0  0  0  0  0  0  0  0  0  0
    5.8947    7.8788   12.4491 H   0  0  0  0  0  0  0  0  0  0  0  0
    9.6041    0.8764   12.4490 H   0  0  0  0  0  0  0  0  0  0  0  0
    7.8618    6.3190   13.6185 C   0  0  0  0  0  0  0  0  0  0  0  0
    7.2698   -0.0469   13.6181 C   0  0  0  0  0  0  0  0  0  0  0  0
    6.8600    5.9690   13.8548 H   0  0  0  0  0  0  0  0  0  0  0  0
    7.4681    0.9956   13.8544 H   0  0  0  0  0  0  0  0  0  0  0  0
    8.1868    6.9773   14.4183 H   0  0  0  0  0  0  0  0  0  0  0  0
    7.6773   -0.6577   14.4178 H   0  0  0  0  0  0  0  0  0  0  0  0
    8.5217    5.4537   13.5849 H   0  0  0  0  0  0  0  0  0  0  0  0
    6.1905   -0.1854   13.5848 H   0  0  0  0  0  0  0  0  0  0  0  0
    9.3091    7.6182   12.0670 C   0  0  0  0  0  0  0  0  0  0  0  0
    7.6709   -1.9500   12.0665 C   0  0  0  0  0  0  0  0  0  0  0  0
    9.3880    8.1537   11.1232 H   0  0  0  0  0  0  0  0  0  0  0  0
    8.0953   -2.2859   11.1226 H   0  0  0  0  0  0  0  0  0  0  0  0
   10.0524    6.8254   12.1033 H   0  0  0  0  0  0  0  0  0  0  0  0
    6.6125   -2.1968   12.1025 H   0  0  0  0  0  0  0  0  0  0  0  0
    9.5294    8.3190   12.8678 H   0  0  0  0  0  0  0  0  0  0  0  0
    8.1673   -2.4914   12.8673 H   0  0  0  0  0  0  0  0  0  0  0  0
  1  3  1  1  0  0  0
  2  1  1  0  0  0  0
  5  4  1  6  0  0  0
  5  6  1  0  0  0  0
  5 28  1  0  0  0  0
  5 29  1  0  0  0  0
  6  8  1  0  0  0  0
  7 13  1  0  0  0  0
  8  7  1  0  0  0  0
  8  2  1  6  0  0  0
  9  6  1  0  0  0  0
  9 11  2  0  0  0  0
 10  9  1  0  0  0  0
 11  7  1  0  0  0  0
 12 11  1  0  0  0  0
 13 18  1  0  0  0  0
 14 13  1  0  0  0  0
 14 17  1  0  0  0  0
 14 16  1  0  0  0  0
 15 14  1  0  0  0  0
 18 19  1  0  0  0  0
 18 20  1  0  0  0  0
 21 18  1  0  0  0  0
 22 24  1  0  0  0  0
 22 13  1  0  0  0  0
 22 25  1  0  0  0  0
 23 22  1  0  0  0  0
 26  1  1  0  0  0  0
 27  1  1  0  0  0  0
 28 32  1  0  0  0  0
 29 33  1  0  0  0  0
 30 42  1  0  0  0  0
 31 43  1  0  0  0  0
 32 31  1  0  0  0  0
 32 26  1  6  0  0  0
 33 30  1  0  0  0  0
 33 27  1  6  0  0  0
 34 29  1  0  0  0  0
 34 38  2  0  0  0  0
 35 28  1  0  0  0  0
 35 39  2  0  0  0  0
 36 34  1  0  0  0  0
 37 35  1  0  0  0  0
 38 30  1  0  0  0  0
 39 31  1  0  0  0  0
 40 38  1  0  0  0  0
 41 39  1  0  0  0  0
 42 52  1  0  0  0  0
 43 53  1  0  0  0  0
 44 42  1  0  0  0  0
 44 50  1  0  0  0  0
 44 48  1  0  0  0  0
 45 43  1  0  0  0  0
 45 51  1  0  0  0  0
 45 49  1  0  0  0  0
 46 44  1  0  0  0  0
 47 45  1  0  0  0  0
 52 54  1  0  0  0  0
 52 56  1  0  0  0  0
 53 55  1  0  0  0  0
 53 57  1  0  0  0  0
 58 52  1  0  0  0  0
 59 53  1  0  0  0  0
 60 64  1  0  0  0  0
 60 42  1  0  0  0  0
 60 66  1  0  0  0  0
 61 65  1  0  0  0  0
 61 43  1  0  0  0  0
 61 67  1  0  0  0  0
 62 60  1  0  0  0  0
 63 61  1  0  0  0  0
M  END
$$$$
