CSD_code = WIWLAS | q = 0 | S = 0 | Stoichiometry = C25H33Cl3N2O2Ti | MND = 6
 OpenBabel04212202113D

 66 69  0  0  1  0  0  0  0  0999 V2000
    2.2402    5.4429    8.8196 Ti  0  0  0  0  0  0  0  0  0  0  0  0
    1.1687    5.7311   10.8312 Cl  0  0  0  0  0  0  0  0  0  0  0  0
    1.0854    3.6097    8.3808 Cl  0  0  0  0  0  0  0  0  0  0  0  0
    3.4512    5.2654    6.8609 Cl  0  0  0  0  0  0  0  0  0  0  0  0
    4.9089    5.2900   10.2972 N   0  0  0  0  0  0  0  0  0  0  0  0
    3.0203    6.9629    9.0879 O   0  0  0  0  0  0  0  0  0  0  0  0
    3.9090    4.5525    9.7908 C   0  0  2  0  0  3  0  0  0  0  0  0
    4.2357    3.2719    9.8688 N   0  0  0  0  0  0  0  0  0  0  0  0
    0.7496    6.4579    7.8321 O   0  0  0  0  0  0  0  0  0  0  0  0
    6.0125    4.4615   10.8001 C   0  0  0  0  0  0  0  0  0  0  0  0
    6.1235    4.6053   11.8790 H   0  0  0  0  0  0  0  0  0  0  0  0
    6.9437    4.7401   10.3005 H   0  0  0  0  0  0  0  0  0  0  0  0
    5.5593    3.0481   10.4530 C   0  0  0  0  0  0  0  0  0  0  0  0
    6.2079    2.5608    9.7199 H   0  0  0  0  0  0  0  0  0  0  0  0
    5.4733    2.3977   11.3272 H   0  0  0  0  0  0  0  0  0  0  0  0
    4.9804    6.6880   10.3922 C   0  0  0  0  0  0  0  0  0  0  0  0
    4.0003    7.4994    9.7645 C   0  0  0  0  0  0  0  0  0  0  0  0
    4.1090    8.8911    9.8746 C   0  0  0  0  0  0  0  0  0  0  0  0
    3.3529    9.4917    9.3902 H   0  0  0  0  0  0  0  0  0  0  0  0
    5.1417    9.4767   10.5761 C   0  0  0  0  0  0  0  0  0  0  0  0
    5.2019   10.5518   10.6476 H   0  0  0  0  0  0  0  0  0  0  0  0
    6.0977    8.6811   11.1831 C   0  0  0  0  0  0  0  0  0  0  0  0
    6.9113    9.1279   11.7328 H   0  0  0  0  0  0  0  0  0  0  0  0
    6.0163    7.3026   11.0885 C   0  0  0  0  0  0  0  0  0  0  0  0
    6.7756    6.7105   11.5734 H   0  0  0  0  0  0  0  0  0  0  0  0
    3.4411    2.1135    9.6146 C   0  0  0  0  0  0  0  0  0  0  0  0
    3.6304    1.4041    8.4260 C   0  0  0  0  0  0  0  0  0  0  0  0
    2.9576    0.1999    8.2665 C   0  0  0  0  0  0  0  0  0  0  0  0
    3.0860   -0.3640    7.3562 H   0  0  0  0  0  0  0  0  0  0  0  0
    2.1221   -0.2821    9.2537 C   0  0  0  0  0  0  0  0  0  0  0  0
    1.6096   -1.2226    9.1154 H   0  0  0  0  0  0  0  0  0  0  0  0
    1.9250    0.4462   10.4099 C   0  0  0  0  0  0  0  0  0  0  0  0
    1.2529    0.0709   11.1652 H   0  0  0  0  0  0  0  0  0  0  0  0
    2.5733    1.6571   10.6130 C   0  0  0  0  0  0  0  0  0  0  0  0
    4.5082    1.9278    7.3150 C   0  0  0  0  0  0  0  0  0  0  0  0
    4.8434    2.9394    7.5665 H   0  0  0  0  0  0  0  0  0  0  0  0
    5.7330    1.0304    7.1156 C   0  0  0  0  0  0  0  0  0  0  0  0
    6.3080    0.9339    8.0356 H   0  0  0  0  0  0  0  0  0  0  0  0
    6.3779    1.4483    6.3462 H   0  0  0  0  0  0  0  0  0  0  0  0
    5.4298    0.0336    6.8045 H   0  0  0  0  0  0  0  0  0  0  0  0
    3.7012    2.0366    6.0193 C   0  0  0  0  0  0  0  0  0  0  0  0
    3.4545    1.0557    5.6210 H   0  0  0  0  0  0  0  0  0  0  0  0
    4.2728    2.5844    5.2748 H   0  0  0  0  0  0  0  0  0  0  0  0
    2.7800    2.5826    6.2093 H   0  0  0  0  0  0  0  0  0  0  0  0
    2.3137    2.4413   11.8782 C   0  0  0  0  0  0  0  0  0  0  0  0
    2.7616    3.4385   11.7883 H   0  0  0  0  0  0  0  0  0  0  0  0
    0.8103    2.6463   12.0782 C   0  0  0  0  0  0  0  0  0  0  0  0
    0.3144    1.7175   12.3487 H   0  0  0  0  0  0  0  0  0  0  0  0
    0.3668    3.0292   11.1618 H   0  0  0  0  0  0  0  0  0  0  0  0
    0.6396    3.3750   12.8664 H   0  0  0  0  0  0  0  0  0  0  0  0
    2.9258    1.7325   13.0903 C   0  0  0  0  0  0  0  0  0  0  0  0
    2.4802    0.7491   13.2213 H   0  0  0  0  0  0  0  0  0  0  0  0
    2.7455    2.3148   13.9908 H   0  0  0  0  0  0  0  0  0  0  0  0
    4.0008    1.6021   12.9733 H   0  0  0  0  0  0  0  0  0  0  0  0
    0.2779    7.7468    8.2292 C   0  0  0  0  0  0  0  0  0  0  0  0
    1.0446    8.4984    7.9824 H   0  0  0  0  0  0  0  0  0  0  0  0
    0.1168    7.7290    9.3136 H   0  0  0  0  0  0  0  0  0  0  0  0
   -0.9927    7.9731    7.4185 C   0  0  0  0  0  0  0  0  0  0  0  0
   -1.8312    7.4519    7.8824 H   0  0  0  0  0  0  0  0  0  0  0  0
   -1.2387    9.0273    7.3168 H   0  0  0  0  0  0  0  0  0  0  0  0
   -0.6190    7.3089    6.0951 C   0  0  0  0  0  0  0  0  0  0  0  0
   -1.4837    7.0237    5.5011 H   0  0  0  0  0  0  0  0  0  0  0  0
    0.0125    7.9732    5.5034 H   0  0  0  0  0  0  0  0  0  0  0  0
    0.1769    6.0932    6.5664 C   0  0  0  0  0  0  0  0  0  0  0  0
    0.9891    5.8142    5.8828 H   0  0  0  0  0  0  0  0  0  0  0  0
   -0.4710    5.2202    6.7298 H   0  0  0  0  0  0  0  0  0  0  0  0
  1  6  1  0  0  0  0
  1  7  1  0  0  0  0
  1  2  1  0  0  0  0
  3  1  1  0  0  0  0
  4  1  1  0  0  0  0
  5 16  1  0  0  0  0
  5 10  1  0  0  0  0
  6 17  1  0  0  0  0
  7  8  1  6  0  0  0
  7  5  1  0  0  0  0
  8 13  1  0  0  0  0
  9 55  1  0  0  0  0
 10 11  1  0  0  0  0
 12 10  1  0  0  0  0
 13 10  1  0  0  0  0
 13 15  1  0  0  0  0
 14 13  1  0  0  0  0
 16 24  1  0  0  0  0
 17 18  1  0  0  0  0
 17 16  2  0  0  0  0
 18 20  2  0  0  0  0
 19 18  1  0  0  0  0
 20 21  1  0  0  0  0
 20 22  1  0  0  0  0
 22 23  1  0  0  0  0
 24 22  2  0  0  0  0
 24 25  1  0  0  0  0
 26  8  1  0  0  0  0
 26 34  1  0  0  0  0
 27 26  2  0  0  0  0
 28 27  1  0  0  0  0
 28 30  2  0  0  0  0
 29 28  1  0  0  0  0
 30 32  1  0  0  0  0
 31 30  1  0  0  0  0
 32 34  2  0  0  0  0
 32 33  1  0  0  0  0
 34 45  1  0  0  0  0
 35 36  1  0  0  0  0
 35 27  1  0  0  0  0
 37 35  1  0  0  0  0
 37 38  1  0  0  0  0
 39 37  1  0  0  0  0
 40 37  1  0  0  0  0
 41 44  1  0  0  0  0
 41 35  1  0  0  0  0
 42 41  1  0  0  0  0
 43 41  1  0  0  0  0
 45 47  1  0  0  0  0
 45 51  1  0  0  0  0
 46 45  1  0  0  0  0
 47 48  1  0  0  0  0
 47 50  1  0  0  0  0
 49 47  1  0  0  0  0
 51 52  1  0  0  0  0
 51 53  1  0  0  0  0
 54 51  1  0  0  0  0
 55 57  1  0  0  0  0
 56 55  1  0  0  0  0
 58 59  1  0  0  0  0
 58 55  1  0  0  0  0
 60 58  1  0  0  0  0
 61 64  1  0  0  0  0
 61 58  1  0  0  0  0
 62 61  1  0  0  0  0
 63 61  1  0  0  0  0
 64 66  1  0  0  0  0
 64  9  1  0  0  0  0
 65 64  1  0  0  0  0
M  END
$$$$
