CSD_code = WIXBIO | q = -1 | S = 0 | Stoichiometry = C18H43Cl3IrP2(1-) | MND = 6
 OpenBabel04212202113D

 67 66  0  0  0  0  0  0  0  0999 V2000
   -0.0379   14.2578    4.6783 Ir  0  0  0  0  0  0  0  0  0  0  0  0
    2.3871   13.9122    4.9664 Cl  0  0  0  0  0  0  0  0  0  0  0  0
   -0.5774   12.5808    6.2805 Cl  0  0  0  0  0  0  0  0  0  0  0  0
    0.2906   15.9648    3.0509 Cl  0  0  0  0  0  0  0  0  0  0  0  0
   -0.0185   15.8622    6.3949 P   0  0  0  0  0  4  0  0  0  0  0  0
   -0.0744   12.6541    2.9613 P   0  0  0  0  0  4  0  0  0  0  0  0
   -1.7248   16.5264    6.8050 C   0  0  0  0  0  0  0  0  0  0  0  0
   -2.2920   17.3362    5.6413 C   0  0  0  0  0  0  0  0  0  0  0  0
   -2.6650   15.3728    7.1440 C   0  0  0  0  0  0  0  0  0  0  0  0
    0.5471   15.2329    8.0733 C   0  0  0  0  0  0  0  0  0  0  0  0
    0.0202   15.9495    9.3168 C   0  0  0  0  0  0  0  0  0  0  0  0
    2.0685   15.1266    8.1414 C   0  0  0  0  0  0  0  0  0  0  0  0
    0.8749   17.4641    6.0018 C   0  0  0  0  0  0  0  0  0  0  0  0
    0.8347   18.5433    7.0811 C   0  0  0  0  0  0  0  0  0  0  0  0
    2.3117   17.2569    5.5312 C   0  0  0  0  0  0  0  0  0  0  0  0
   -1.7573   12.4765    2.1506 C   0  0  0  0  0  0  0  0  0  0  0  0
   -2.2355   13.8329    1.6398 C   0  0  0  0  0  0  0  0  0  0  0  0
   -2.7779   11.8983    3.1281 C   0  0  0  0  0  0  0  0  0  0  0  0
    0.2221   10.8824    3.5012 C   0  0  0  0  0  0  0  0  0  0  0  0
    0.1224    9.8160    2.4131 C   0  0  0  0  0  0  0  0  0  0  0  0
    1.5159   10.6975    4.2891 C   0  0  0  0  0  0  0  0  0  0  0  0
    1.0120   13.0413    1.4774 C   0  0  0  0  0  0  0  0  0  0  0  0
    0.6084   12.4507    0.1263 C   0  0  0  0  0  0  0  0  0  0  0  0
    2.4768   12.7222    1.7656 C   0  0  0  0  0  0  0  0  0  0  0  0
   -1.5282   14.4720    4.5021 H   0  0  0  0  0  0  0  0  0  0  0  0
   -1.6338   17.1756    7.6827 H   0  0  0  0  0  0  0  0  0  0  0  0
   -3.3675   17.4661    5.7650 H   0  0  0  0  0  0  0  0  0  0  0  0
   -2.1144   16.8125    4.7036 H   0  0  0  0  0  0  0  0  0  0  0  0
   -1.8371   18.3221    5.5760 H   0  0  0  0  0  0  0  0  0  0  0  0
   -3.6100   15.7536    7.5349 H   0  0  0  0  0  0  0  0  0  0  0  0
   -2.2276   14.6970    7.8745 H   0  0  0  0  0  0  0  0  0  0  0  0
   -2.8670   14.7902    6.2497 H   0  0  0  0  0  0  0  0  0  0  0  0
    0.1490   14.2092    8.0769 H   0  0  0  0  0  0  0  0  0  0  0  0
    0.4525   15.4707   10.1968 H   0  0  0  0  0  0  0  0  0  0  0  0
   -1.0606   15.8808    9.4041 H   0  0  0  0  0  0  0  0  0  0  0  0
    0.3070   16.9981    9.3352 H   0  0  0  0  0  0  0  0  0  0  0  0
    2.3584   14.4652    8.9587 H   0  0  0  0  0  0  0  0  0  0  0  0
    2.5243   16.1000    8.3175 H   0  0  0  0  0  0  0  0  0  0  0  0
    2.4623   14.7115    7.2160 H   0  0  0  0  0  0  0  0  0  0  0  0
    0.3105   17.8125    5.1268 H   0  0  0  0  0  0  0  0  0  0  0  0
    1.2281   19.4735    6.6682 H   0  0  0  0  0  0  0  0  0  0  0  0
    1.4616   18.2688    7.9270 H   0  0  0  0  0  0  0  0  0  0  0  0
   -0.1738   18.7371    7.4386 H   0  0  0  0  0  0  0  0  0  0  0  0
    2.6648   18.1582    5.0285 H   0  0  0  0  0  0  0  0  0  0  0  0
    2.3677   16.4364    4.8224 H   0  0  0  0  0  0  0  0  0  0  0  0
    2.9833   17.0393    6.3573 H   0  0  0  0  0  0  0  0  0  0  0  0
   -1.6528   11.7967    1.2979 H   0  0  0  0  0  0  0  0  0  0  0  0
   -3.1399   13.7171    1.0403 H   0  0  0  0  0  0  0  0  0  0  0  0
   -1.4763   14.3289    1.0404 H   0  0  0  0  0  0  0  0  0  0  0  0
   -2.4556   14.4842    2.4810 H   0  0  0  0  0  0  0  0  0  0  0  0
   -3.7890   12.0645    2.7554 H   0  0  0  0  0  0  0  0  0  0  0  0
   -2.6832   12.3876    4.0958 H   0  0  0  0  0  0  0  0  0  0  0  0
   -2.6405   10.8285    3.2690 H   0  0  0  0  0  0  0  0  0  0  0  0
    1.3455   12.7594   -0.6166 H   0  0  0  0  0  0  0  0  0  0  0  0
   -0.3619   12.8091   -0.2063 H   0  0  0  0  0  0  0  0  0  0  0  0
    0.5921   11.3637    0.1457 H   0  0  0  0  0  0  0  0  0  0  0  0
    3.1178   13.2452    1.0549 H   0  0  0  0  0  0  0  0  0  0  0  0
    2.6727   11.6548    1.6743 H   0  0  0  0  0  0  0  0  0  0  0  0
    2.7474   13.0488    2.7676 H   0  0  0  0  0  0  0  0  0  0  0  0
   -0.5984   10.7402    4.2168 H   0  0  0  0  0  0  0  0  0  0  0  0
    0.1315    8.8300    2.8805 H   0  0  0  0  0  0  0  0  0  0  0  0
    0.9757    9.8681    1.7400 H   0  0  0  0  0  0  0  0  0  0  0  0
   -0.7915    9.9002    1.8298 H   0  0  0  0  0  0  0  0  0  0  0  0
    1.4740    9.7602    4.8452 H   0  0  0  0  0  0  0  0  0  0  0  0
    1.6476   11.5036    5.0045 H   0  0  0  0  0  0  0  0  0  0  0  0
    2.3873   10.6728    3.6403 H   0  0  0  0  0  0  0  0  0  0  0  0
    0.9236   14.1342    1.4112 H   0  0  0  0  0  0  0  0  0  0  0  0
  1  2  1  0  0  0  0
  1  3  1  0  0  0  0
  1  5  1  0  0  0  0
  4  1  1  0  0  0  0
  5  7  1  0  0  0  0
  5 10  1  0  0  0  0
  6 19  1  0  0  0  0
  6  1  1  0  0  0  0
  7  9  1  0  0  0  0
  7 26  1  0  0  0  0
  8 27  1  0  0  0  0
  8  7  1  0  0  0  0
  9 30  1  0  0  0  0
  9 31  1  0  0  0  0
 10 33  1  0  0  0  0
 10 12  1  0  0  0  0
 10 11  1  0  0  0  0
 11 36  1  0  0  0  0
 11 35  1  0  0  0  0
 11 34  1  0  0  0  0
 12 38  1  0  0  0  0
 12 37  1  0  0  0  0
 13  5  1  0  0  0  0
 13 14  1  0  0  0  0
 14 43  1  0  0  0  0
 14 42  1  0  0  0  0
 15 13  1  0  0  0  0
 15 46  1  0  0  0  0
 16  6  1  0  0  0  0
 16 18  1  0  0  0  0
 17 16  1  0  0  0  0
 17 50  1  0  0  0  0
 18 53  1  0  0  0  0
 18 52  1  0  0  0  0
 19 60  1  0  0  0  0
 19 21  1  0  0  0  0
 20 61  1  0  0  0  0
 20 19  1  0  0  0  0
 21 64  1  0  0  0  0
 21 65  1  0  0  0  0
 22 24  1  0  0  0  0
 22  6  1  0  0  0  0
 23 56  1  0  0  0  0
 23 22  1  0  0  0  0
 24 59  1  0  0  0  0
 25  1  1  0  0  0  0
 28  8  1  0  0  0  0
 29  8  1  0  0  0  0
 32  9  1  0  0  0  0
 39 12  1  0  0  0  0
 40 13  1  0  0  0  0
 41 14  1  0  0  0  0
 44 15  1  0  0  0  0
 45 15  1  0  0  0  0
 47 16  1  0  0  0  0
 48 17  1  0  0  0  0
 49 17  1  0  0  0  0
 51 18  1  0  0  0  0
 54 23  1  0  0  0  0
 55 23  1  0  0  0  0
 57 24  1  0  0  0  0
 58 24  1  0  0  0  0
 62 20  1  0  0  0  0
 63 20  1  0  0  0  0
 66 21  1  0  0  0  0
 67 22  1  0  0  0  0
M  END
$$$$
