CSD_code = WIXBEK | q = -1 | S = 0 | Stoichiometry = C18H43I3IrP2(1-) | MND = 6
 OpenBabel04212202113D

 67 66  0  0  0  0  0  0  0  0999 V2000
    0.7704    8.6699    9.0200 Ir  0  0  0  0  0  0  0  0  0  0  0  0
    2.3465   10.5181   10.3206 I   0  0  0  0  0  0  0  0  0  0  0  0
   -1.5807    9.9015    9.8099 I   0  0  0  0  0  0  0  0  0  0  0  0
    2.8223    7.0985    7.9947 I   0  0  0  0  0  0  0  0  0  0  0  0
    0.7291    9.9259    6.9653 P   0  0  0  0  0  4  0  0  0  0  0  0
    0.6388    7.2051   10.9284 P   0  0  0  0  0  4  0  0  0  0  0  0
   -0.3889    9.1276    5.6803 C   0  0  0  0  0  0  0  0  0  0  0  0
    0.1272    7.7725    5.2044 C   0  0  0  0  0  0  0  0  0  0  0  0
   -1.8142    8.9640    6.2023 C   0  0  0  0  0  0  0  0  0  0  0  0
    0.0132   11.6759    6.9944 C   0  0  0  0  0  0  0  0  0  0  0  0
   -0.6854   12.1934    5.7356 C   0  0  0  0  0  0  0  0  0  0  0  0
    1.0352   12.7129    7.4577 C   0  0  0  0  0  0  0  0  0  0  0  0
    2.3163   10.0277    5.9536 C   0  0  0  0  0  0  0  0  0  0  0  0
    2.2326   10.7543    4.6132 C   0  0  0  0  0  0  0  0  0  0  0  0
    3.5190   10.5533    6.7339 C   0  0  0  0  0  0  0  0  0  0  0  0
   -0.4869    5.7337   10.6039 C   0  0  0  0  0  0  0  0  0  0  0  0
    0.0519    4.7970    9.5265 C   0  0  0  0  0  0  0  0  0  0  0  0
   -1.8938    6.1832   10.2172 C   0  0  0  0  0  0  0  0  0  0  0  0
   -0.1340    7.8682   12.5220 C   0  0  0  0  0  0  0  0  0  0  0  0
   -0.8668    6.8862   13.4382 C   0  0  0  0  0  0  0  0  0  0  0  0
    0.8585    8.6791   13.3536 C   0  0  0  0  0  0  0  0  0  0  0  0
    2.1965    6.2799   11.4494 C   0  0  0  0  0  0  0  0  0  0  0  0
    2.0586    5.3014   12.6134 C   0  0  0  0  0  0  0  0  0  0  0  0
    3.4021    7.1840   11.6956 C   0  0  0  0  0  0  0  0  0  0  0  0
   -0.1280    7.6621    8.3085 H   0  0  0  0  0  0  0  0  0  0  0  0
   -0.4107    9.8101    4.8235 H   0  0  0  0  0  0  0  0  0  0  0  0
   -0.6095    7.3126    4.5443 H   0  0  0  0  0  0  0  0  0  0  0  0
    0.2810    7.1048    6.0483 H   0  0  0  0  0  0  0  0  0  0  0  0
    1.0631    7.8566    4.6569 H   0  0  0  0  0  0  0  0  0  0  0  0
   -2.4787    8.6687    5.3886 H   0  0  0  0  0  0  0  0  0  0  0  0
   -2.1985    9.8787    6.6469 H   0  0  0  0  0  0  0  0  0  0  0  0
   -1.8484    8.1867    6.9612 H   0  0  0  0  0  0  0  0  0  0  0  0
   -0.7532   11.6166    7.7762 H   0  0  0  0  0  0  0  0  0  0  0  0
   -1.0315   13.2078    5.9399 H   0  0  0  0  0  0  0  0  0  0  0  0
   -1.5570   11.6020    5.4697 H   0  0  0  0  0  0  0  0  0  0  0  0
   -0.0176   12.2391    4.8797 H   0  0  0  0  0  0  0  0  0  0  0  0
    0.5156   13.6163    7.7786 H   0  0  0  0  0  0  0  0  0  0  0  0
    1.7143   12.9879    6.6528 H   0  0  0  0  0  0  0  0  0  0  0  0
    1.6168   12.3523    8.3010 H   0  0  0  0  0  0  0  0  0  0  0  0
    2.5203    8.9701    5.7442 H   0  0  0  0  0  0  0  0  0  0  0  0
    3.1560   10.5693    4.0620 H   0  0  0  0  0  0  0  0  0  0  0  0
    2.1443   11.8295    4.7504 H   0  0  0  0  0  0  0  0  0  0  0  0
    1.4074   10.4048    3.9974 H   0  0  0  0  0  0  0  0  0  0  0  0
    4.4271   10.3709    6.1581 H   0  0  0  0  0  0  0  0  0  0  0  0
    3.6327   10.0416    7.6829 H   0  0  0  0  0  0  0  0  0  0  0  0
    3.4493   11.6191    6.9296 H   0  0  0  0  0  0  0  0  0  0  0  0
   -0.5475    5.1777   11.5462 H   0  0  0  0  0  0  0  0  0  0  0  0
   -0.6838    4.0190    9.3182 H   0  0  0  0  0  0  0  0  0  0  0  0
    0.9780    4.3124    9.8269 H   0  0  0  0  0  0  0  0  0  0  0  0
    0.2323    5.3409    8.6029 H   0  0  0  0  0  0  0  0  0  0  0  0
   -2.5703    5.3271   10.2065 H   0  0  0  0  0  0  0  0  0  0  0  0
   -1.8875    6.6172    9.2207 H   0  0  0  0  0  0  0  0  0  0  0  0
   -2.2916    6.9291   10.9011 H   0  0  0  0  0  0  0  0  0  0  0  0
   -0.8880    8.5740   12.1543 H   0  0  0  0  0  0  0  0  0  0  0  0
   -1.2455    7.4482   14.2934 H   0  0  0  0  0  0  0  0  0  0  0  0
   -0.2132    6.1068   13.8197 H   0  0  0  0  0  0  0  0  0  0  0  0
   -1.7208    6.4218   12.9532 H   0  0  0  0  0  0  0  0  0  0  0  0
    0.3137    9.3035   14.0624 H   0  0  0  0  0  0  0  0  0  0  0  0
    1.4578    9.3369   12.7309 H   0  0  0  0  0  0  0  0  0  0  0  0
    1.5225    8.0310   13.9228 H   0  0  0  0  0  0  0  0  0  0  0  0
    2.4262    5.6941   10.5505 H   0  0  0  0  0  0  0  0  0  0  0  0
    2.9694    4.7033   12.6720 H   0  0  0  0  0  0  0  0  0  0  0  0
    1.2239    4.6158   12.4881 H   0  0  0  0  0  0  0  0  0  0  0  0
    1.9509    5.8255   13.5601 H   0  0  0  0  0  0  0  0  0  0  0  0
    4.2955    6.5680   11.8049 H   0  0  0  0  0  0  0  0  0  0  0  0
    3.2912    7.7841   12.5936 H   0  0  0  0  0  0  0  0  0  0  0  0
    3.5743    7.8530   10.8601 H   0  0  0  0  0  0  0  0  0  0  0  0
  1  3  1  0  0  0  0
  1  2  1  0  0  0  0
  1  6  1  0  0  0  0
  4  1  1  0  0  0  0
  5 10  1  0  0  0  0
  5  1  1  0  0  0  0
  6 22  1  0  0  0  0
  6 19  1  0  0  0  0
  7  9  1  0  0  0  0
  7  5  1  0  0  0  0
  8  7  1  0  0  0  0
  8 28  1  0  0  0  0
  9 31  1  0  0  0  0
  9 32  1  0  0  0  0
 10 12  1  0  0  0  0
 10 33  1  0  0  0  0
 11 34  1  0  0  0  0
 11 10  1  0  0  0  0
 12 37  1  0  0  0  0
 12 39  1  0  0  0  0
 13 15  1  0  0  0  0
 13  5  1  0  0  0  0
 14 42  1  0  0  0  0
 14 13  1  0  0  0  0
 15 46  1  0  0  0  0
 15 45  1  0  0  0  0
 16  6  1  0  0  0  0
 16 47  1  0  0  0  0
 17 49  1  0  0  0  0
 17 16  1  0  0  0  0
 18 16  1  0  0  0  0
 18 53  1  0  0  0  0
 19 21  1  0  0  0  0
 19 20  1  0  0  0  0
 20 56  1  0  0  0  0
 20 55  1  0  0  0  0
 21 60  1  0  0  0  0
 21 58  1  0  0  0  0
 22 24  1  0  0  0  0
 22 23  1  0  0  0  0
 23 62  1  0  0  0  0
 23 64  1  0  0  0  0
 24 65  1  0  0  0  0
 24 66  1  0  0  0  0
 25  1  1  0  0  0  0
 26  7  1  0  0  0  0
 27  8  1  0  0  0  0
 29  8  1  0  0  0  0
 30  9  1  0  0  0  0
 35 11  1  0  0  0  0
 36 11  1  0  0  0  0
 38 12  1  0  0  0  0
 40 13  1  0  0  0  0
 41 14  1  0  0  0  0
 43 14  1  0  0  0  0
 44 15  1  0  0  0  0
 48 17  1  0  0  0  0
 50 17  1  0  0  0  0
 51 18  1  0  0  0  0
 52 18  1  0  0  0  0
 54 19  1  0  0  0  0
 57 20  1  0  0  0  0
 59 21  1  0  0  0  0
 61 22  1  0  0  0  0
 63 23  1  0  0  0  0
 67 24  1  0  0  0  0
M  END
$$$$
