CSD_code = WIXGUI | q = 0 | S = 0 | Stoichiometry = C17H15I2N3Pt | MND = 4
 OpenBabel04212202113D

 38 41  0  0  1  0  0  0  0  0999 V2000
    8.1156    1.7378    1.9834 Pt  0  0  0  0  0  0  0  0  0  0  0  0
    9.6308    3.0622    0.3494 I   0  0  0  0  0  0  0  0  0  0  0  0
    9.5755    2.2167    4.0709 I   0  0  0  0  0  0  0  0  0  0  0  0
    6.8404    1.3104    0.4709 N   0  0  0  0  0  0  0  0  0  0  0  0
    6.7167    0.8154    3.1442 N   0  0  0  0  0  0  0  0  0  0  0  0
    5.2224    2.1612    1.9361 N   0  0  0  0  0  0  0  0  0  0  0  0
    5.5911    1.7500    0.6589 C   0  0  1  0  0  3  0  0  0  0  0  0
    4.6779    1.8010   -0.3938 C   0  0  0  0  0  0  0  0  0  0  0  0
    3.6824    2.1778   -0.2236 H   0  0  0  0  0  0  0  0  0  0  0  0
    5.0660    1.3497   -1.6413 C   0  0  0  0  0  0  0  0  0  0  0  0
    4.3757    1.3861   -2.4694 H   0  0  0  0  0  0  0  0  0  0  0  0
    6.3450    0.8354   -1.8041 C   0  0  0  0  0  0  0  0  0  0  0  0
    6.6810    0.4564   -2.7544 H   0  0  0  0  0  0  0  0  0  0  0  0
    7.2024    0.8425   -0.7224 C   0  0  0  0  0  0  0  0  0  0  0  0
    8.2188    0.4841   -0.8137 H   0  0  0  0  0  0  0  0  0  0  0  0
    5.5043    1.3721    3.0505 C   0  0  1  0  0  3  0  0  0  0  0  0
    4.5412    1.1611    4.0372 C   0  0  0  0  0  0  0  0  0  0  0  0
    3.5812    1.6427    3.9703 H   0  0  0  0  0  0  0  0  0  0  0  0
    4.8349    0.3226    5.0950 C   0  0  0  0  0  0  0  0  0  0  0  0
    4.1039    0.1551    5.8703 H   0  0  0  0  0  0  0  0  0  0  0  0
    6.0694   -0.3103    5.1343 C   0  0  0  0  0  0  0  0  0  0  0  0
    6.3298   -0.9886    5.9290 H   0  0  0  0  0  0  0  0  0  0  0  0
    6.9843   -0.0250    4.1418 C   0  0  0  0  0  0  0  0  0  0  0  0
    7.9721   -0.4649    4.1509 H   0  0  0  0  0  0  0  0  0  0  0  0
    4.4093    3.3559    2.1143 C   0  0  0  0  0  0  0  0  0  0  0  0
    3.3542    3.1191    2.2989 H   0  0  0  0  0  0  0  0  0  0  0  0
    4.4725    3.9333    1.1874 H   0  0  0  0  0  0  0  0  0  0  0  0
    4.9934    4.1601    3.2519 C   0  0  0  0  0  0  0  0  0  0  0  0
    6.3583    4.4277    3.2642 C   0  0  0  0  0  0  0  0  0  0  0  0
    6.9870    4.0945    2.4393 H   0  0  0  0  0  0  0  0  0  0  0  0
    6.9278    5.1202    4.3157 C   0  0  0  0  0  0  0  0  0  0  0  0
    7.9899    5.3079    4.3207 H   0  0  0  0  0  0  0  0  0  0  0  0
    6.1342    5.5594    5.3626 C   0  0  0  0  0  0  0  0  0  0  0  0
    6.5783    6.0958    6.1869 H   0  0  0  0  0  0  0  0  0  0  0  0
    4.7735    5.3078    5.3509 C   0  0  0  0  0  0  0  0  0  0  0  0
    4.1505    5.6506    6.1637 H   0  0  0  0  0  0  0  0  0  0  0  0
    4.2050    4.6055    4.3016 C   0  0  0  0  0  0  0  0  0  0  0  0
    3.1417    4.4074    4.2981 H   0  0  0  0  0  0  0  0  0  0  0  0
  1  5  1  0  0  0  0
  1  3  1  0  0  0  0
  2  1  1  0  0  0  0
  4  7  1  0  0  0  0
  4  1  1  0  0  0  0
  5 23  1  0  0  0  0
  6 25  1  0  0  0  0
  6 16  1  0  0  0  0
  7  8  1  6  0  0  0
  7  6  1  0  0  0  0
  8  9  1  0  0  0  0
 10  8  2  0  0  0  0
 11 10  1  0  0  0  0
 12 10  1  0  0  0  0
 12 14  2  0  0  0  0
 13 12  1  0  0  0  0
 14  4  1  0  0  0  0
 15 14  1  0  0  0  0
 16  5  1  0  0  0  0
 16 17  1  6  0  0  0
 17 19  2  0  0  0  0
 18 17  1  0  0  0  0
 19 21  1  0  0  0  0
 19 20  1  0  0  0  0
 21 22  1  0  0  0  0
 23 24  1  0  0  0  0
 23 21  2  0  0  0  0
 25 26  1  0  0  0  0
 25 28  1  0  0  0  0
 27 25  1  0  0  0  0
 28 29  2  0  0  0  0
 28 37  1  0  0  0  0
 29 31  1  0  0  0  0
 30 29  1  0  0  0  0
 31 32  1  0  0  0  0
 31 33  2  0  0  0  0
 33 34  1  0  0  0  0
 35 33  1  0  0  0  0
 35 36  1  0  0  0  0
 37 35  2  0  0  0  0
 38 37  1  0  0  0  0
M  END
$$$$
