CSD_code = WIXJOF | q = 0 | S = 0 | Stoichiometry = C17H14I2N4O2Pt | MND = 4
 OpenBabel04212202113D

 40 43  0  0  1  0  0  0  0  0999 V2000
    4.5913    3.3774    2.1003 Pt  0  0  0  0  0  0  0  0  0  0  0  0
    4.4367    5.9604    2.3047 I   0  0  0  0  0  0  0  0  0  0  0  0
    5.0539    3.0254    4.6267 I   0  0  0  0  0  0  0  0  0  0  0  0
    0.6814   -0.4717    2.4838 O   0  0  0  0  0  0  0  0  0  0  0  0
    2.0607   -0.5658    4.1248 O   0  0  0  0  0  0  0  0  0  0  0  0
    4.2393    3.5105    0.0965 N   0  0  0  0  0  0  0  0  0  0  0  0
    4.5910    1.3768    1.7717 N   0  0  0  0  0  0  0  0  0  0  0  0
    2.6723    1.7876    0.4388 N   0  0  0  0  0  0  0  0  0  0  0  0
    1.3710    0.0503    3.3421 N   0  0  0  0  0  0  0  0  0  0  0  0
    3.1599    2.8428   -0.3240 C   0  0  2  0  0  3  0  0  0  0  0  0
    2.5488    3.1502   -1.5414 C   0  0  0  0  0  0  0  0  0  0  0  0
    1.6641    2.6131   -1.8437 H   0  0  0  0  0  0  0  0  0  0  0  0
    3.1075    4.1223   -2.3463 C   0  0  0  0  0  0  0  0  0  0  0  0
    2.6488    4.3773   -3.2887 H   0  0  0  0  0  0  0  0  0  0  0  0
    4.2813    4.7429   -1.9361 C   0  0  0  0  0  0  0  0  0  0  0  0
    4.7679    5.4835   -2.5478 H   0  0  0  0  0  0  0  0  0  0  0  0
    4.8065    4.4142   -0.7041 C   0  0  0  0  0  0  0  0  0  0  0  0
    5.6990    4.8989   -0.3322 H   0  0  0  0  0  0  0  0  0  0  0  0
    3.5510    0.9000    1.0792 C   0  0  1  0  0  3  0  0  0  0  0  0
    3.3211   -0.4684    0.9620 C   0  0  0  0  0  0  0  0  0  0  0  0
    2.4635   -0.8202    0.4118 H   0  0  0  0  0  0  0  0  0  0  0  0
    4.1934   -1.3527    1.5677 C   0  0  0  0  0  0  0  0  0  0  0  0
    4.0170   -2.4147    1.5095 H   0  0  0  0  0  0  0  0  0  0  0  0
    5.2992   -0.8462    2.2355 C   0  0  0  0  0  0  0  0  0  0  0  0
    6.0163   -1.4963    2.7075 H   0  0  0  0  0  0  0  0  0  0  0  0
    5.4618    0.5219    2.3093 C   0  0  0  0  0  0  0  0  0  0  0  0
    6.3026    0.9518    2.8355 H   0  0  0  0  0  0  0  0  0  0  0  0
    1.2825    1.7895    0.8906 C   0  0  0  0  0  0  0  0  0  0  0  0
    0.8579    0.7879    0.8230 H   0  0  0  0  0  0  0  0  0  0  0  0
    0.7104    2.4621    0.2517 H   0  0  0  0  0  0  0  0  0  0  0  0
    1.2801    2.3106    2.3110 C   0  0  0  0  0  0  0  0  0  0  0  0
    1.3776    1.4842    3.4382 C   0  0  0  0  0  0  0  0  0  0  0  0
    1.5083    2.0230    4.7148 C   0  0  0  0  0  0  0  0  0  0  0  0
    1.6083    1.3510    5.5533 H   0  0  0  0  0  0  0  0  0  0  0  0
    1.5172    3.3928    4.8927 C   0  0  0  0  0  0  0  0  0  0  0  0
    1.6196    3.8055    5.8829 H   0  0  0  0  0  0  0  0  0  0  0  0
    1.4369    4.2267    3.7893 C   0  0  0  0  0  0  0  0  0  0  0  0
    1.4721    5.2977    3.9129 H   0  0  0  0  0  0  0  0  0  0  0  0
    1.3489    3.6870    2.5141 C   0  0  0  0  0  0  0  0  0  0  0  0
    1.2910    4.3488    1.6604 H   0  0  0  0  0  0  0  0  0  0  0  0
  1  2  1  0  0  0  0
  1  3  1  0  0  0  0
  4  9  2  0  0  0  0
  6  1  1  0  0  0  0
  7  1  1  0  0  0  0
  7 26  1  0  0  0  0
  8 28  1  0  0  0  0
  8 19  1  0  0  0  0
  9 32  1  0  0  0  0
  9  5  2  0  0  0  0
 10 11  1  6  0  0  0
 10  6  1  0  0  0  0
 10  8  1  0  0  0  0
 12 11  1  0  0  0  0
 13 15  1  0  0  0  0
 13 11  2  0  0  0  0
 14 13  1  0  0  0  0
 15 17  2  0  0  0  0
 16 15  1  0  0  0  0
 17 18  1  0  0  0  0
 17  6  1  0  0  0  0
 19 20  1  6  0  0  0
 19  7  1  0  0  0  0
 20 22  2  0  0  0  0
 21 20  1  0  0  0  0
 22 24  1  0  0  0  0
 23 22  1  0  0  0  0
 24 26  2  0  0  0  0
 24 25  1  0  0  0  0
 26 27  1  0  0  0  0
 28 31  1  0  0  0  0
 29 28  1  0  0  0  0
 30 28  1  0  0  0  0
 31 39  2  0  0  0  0
 31 32  1  0  0  0  0
 32 33  2  0  0  0  0
 33 35  1  0  0  0  0
 33 34  1  0  0  0  0
 35 36  1  0  0  0  0
 37 38  1  0  0  0  0
 37 35  2  0  0  0  0
 39 37  1  0  0  0  0
 40 39  1  0  0  0  0
M  END
$$$$
