CSD_code = WIXMIB | q = 0 | S = 0 | Stoichiometry = C17H33ClIrP3 | MND = 6
 OpenBabel04212202113D

 55 56  0  0  0  0  0  0  0  0999 V2000
    9.2029    1.9578    7.4026 Ir  0  0  0  0  0  0  0  0  0  0  0  0
   10.5057    2.1495    5.5019 P   0  0  0  0  0  4  0  0  0  0  0  0
    8.2335    2.2374    9.4845 P   0  0  0  0  0  4  0  0  0  0  0  0
   11.3591    2.0769    8.5921 Cl  0  0  0  0  0  0  0  0  0  0  0  0
    9.2688   -0.4494    7.4922 P   0  0  0  0  0  4  0  0  0  0  0  0
    7.8838   -1.3377    8.3236 C   0  0  0  0  0  0  0  0  0  0  0  0
    7.8322   -1.0756    9.3772 H   0  0  0  0  0  0  0  0  0  0  0  0
    8.0147   -2.4156    8.2297 H   0  0  0  0  0  0  0  0  0  0  0  0
    6.9495   -1.0466    7.8472 H   0  0  0  0  0  0  0  0  0  0  0  0
   10.7043   -1.2787    8.2719 C   0  0  0  0  0  0  0  0  0  0  0  0
   11.6109   -0.9797    7.7502 H   0  0  0  0  0  0  0  0  0  0  0  0
   10.5983   -2.3633    8.2498 H   0  0  0  0  0  0  0  0  0  0  0  0
   10.7917   -0.9308    9.2993 H   0  0  0  0  0  0  0  0  0  0  0  0
    9.1670   -1.3696    5.8981 C   0  0  0  0  0  0  0  0  0  0  0  0
    8.2340   -1.1022    5.4054 H   0  0  0  0  0  0  0  0  0  0  0  0
    9.1843   -2.4445    6.0775 H   0  0  0  0  0  0  0  0  0  0  0  0
    9.9910   -1.1033    5.2416 H   0  0  0  0  0  0  0  0  0  0  0  0
    8.9757    1.2828   10.8635 C   0  0  0  0  0  0  0  0  0  0  0  0
    8.8776    0.2125   10.7007 H   0  0  0  0  0  0  0  0  0  0  0  0
    8.5041    1.5532   11.8081 H   0  0  0  0  0  0  0  0  0  0  0  0
   10.0352    1.5326   10.8929 H   0  0  0  0  0  0  0  0  0  0  0  0
   11.2975    3.7696    5.2037 C   0  0  0  0  0  0  0  0  0  0  0  0
   10.5374    4.5315    5.0478 H   0  0  0  0  0  0  0  0  0  0  0  0
   11.9494    3.7076    4.3318 H   0  0  0  0  0  0  0  0  0  0  0  0
   11.8832    4.0314    6.0822 H   0  0  0  0  0  0  0  0  0  0  0  0
    6.4397    1.9039    9.6967 C   0  0  0  0  0  0  0  0  0  0  0  0
    5.8950    2.5663    9.0274 H   0  0  0  0  0  0  0  0  0  0  0  0
    6.1348    2.0896   10.7256 H   0  0  0  0  0  0  0  0  0  0  0  0
    6.2102    0.8767    9.4267 H   0  0  0  0  0  0  0  0  0  0  0  0
    8.3262    3.9051   10.2283 C   0  0  0  0  0  0  0  0  0  0  0  0
    9.3708    4.2057   10.2695 H   0  0  0  0  0  0  0  0  0  0  0  0
    7.9086    3.8857   11.2353 H   0  0  0  0  0  0  0  0  0  0  0  0
    7.7811    4.6163    9.6119 H   0  0  0  0  0  0  0  0  0  0  0  0
   12.0073    1.0990    5.4107 C   0  0  0  0  0  0  0  0  0  0  0  0
   12.6013    1.3093    6.2988 H   0  0  0  0  0  0  0  0  0  0  0  0
   12.5808    1.3419    4.5163 H   0  0  0  0  0  0  0  0  0  0  0  0
   11.7542    0.0420    5.4028 H   0  0  0  0  0  0  0  0  0  0  0  0
    9.7328    1.8693    3.8600 C   0  0  0  0  0  0  0  0  0  0  0  0
    9.3059    0.8710    3.8090 H   0  0  0  0  0  0  0  0  0  0  0  0
   10.4637    1.9981    3.0631 H   0  0  0  0  0  0  0  0  0  0  0  0
    8.9290    2.5928    3.7418 H   0  0  0  0  0  0  0  0  0  0  0  0
    7.7039    4.3001    6.4897 C   0  0  0  0  0  0  0  0  0  0  0  0
    7.4223    1.9564    6.4005 C   0  0  0  0  0  0  0  0  0  0  0  0
    6.8726    1.0569    6.1180 H   0  0  0  0  0  0  0  0  0  0  0  0
    6.9209    3.1516    6.0788 C   0  0  0  0  0  0  0  0  0  0  0  0
    5.9873    3.2988    5.5454 H   0  0  0  0  0  0  0  0  0  0  0  0
    8.8929    3.9819    7.1762 C   0  0  0  0  0  0  0  0  0  0  0  0
    9.6982    5.0202    7.6115 C   0  0  0  0  0  0  0  0  0  0  0  0
   10.6161    4.8070    8.1417 H   0  0  0  0  0  0  0  0  0  0  0  0
    7.3560    5.6259    6.2556 C   0  0  0  0  0  0  0  0  0  0  0  0
    6.4401    5.8545    5.7260 H   0  0  0  0  0  0  0  0  0  0  0  0
    9.3466    6.3434    7.3770 C   0  0  0  0  0  0  0  0  0  0  0  0
    9.9904    7.1393    7.7262 H   0  0  0  0  0  0  0  0  0  0  0  0
    8.1782    6.6461    6.6994 C   0  0  0  0  0  0  0  0  0  0  0  0
    7.9086    7.6776    6.5181 H   0  0  0  0  0  0  0  0  0  0  0  0
  1  5  1  0  0  0  0
  1  4  1  0  0  0  0
  1  3  1  0  0  0  0
  2  1  1  0  0  0  0
  3 26  1  0  0  0  0
  3 30  1  0  0  0  0
  3 18  1  0  0  0  0
  5 10  1  0  0  0  0
  5  6  1  0  0  0  0
  6  7  1  0  0  0  0
  8  6  1  0  0  0  0
  9  6  1  0  0  0  0
 10 13  1  0  0  0  0
 11 10  1  0  0  0  0
 12 10  1  0  0  0  0
 14 16  1  0  0  0  0
 14  5  1  0  0  0  0
 15 14  1  0  0  0  0
 17 14  1  0  0  0  0
 18 21  1  0  0  0  0
 18 20  1  0  0  0  0
 19 18  1  0  0  0  0
 22  2  1  0  0  0  0
 22 25  1  0  0  0  0
 23 22  1  0  0  0  0
 24 22  1  0  0  0  0
 26 28  1  0  0  0  0
 27 26  1  0  0  0  0
 29 26  1  0  0  0  0
 30 31  1  0  0  0  0
 30 32  1  0  0  0  0
 33 30  1  0  0  0  0
 34  2  1  0  0  0  0
 34 35  1  0  0  0  0
 36 34  1  0  0  0  0
 37 34  1  0  0  0  0
 38  2  1  0  0  0  0
 39 38  1  0  0  0  0
 40 38  1  0  0  0  0
 41 38  1  0  0  0  0
 42 47  1  0  0  0  0
 43  1  1  0  0  0  0
 44 43  1  0  0  0  0
 45 43  2  0  0  0  0
 45 42  1  0  0  0  0
 46 45  1  0  0  0  0
 47  1  1  0  0  0  0
 47 48  2  0  0  0  0
 48 49  1  0  0  0  0
 50 42  2  0  0  0  0
 50 54  1  0  0  0  0
 51 50  1  0  0  0  0
 52 48  1  0  0  0  0
 52 53  1  0  0  0  0
 54 52  2  0  0  0  0
 55 54  1  0  0  0  0
M  END
$$$$
