CSD_code = WIXSUR | q = 0 | S = 0 | Stoichiometry = C24H26Cl2P2Pt | MND = 4
 OpenBabel04212202113D

 55 60  0  0  1  0  0  0  0  0999 V2000
   13.8189    8.6978    6.0632 Pt  0  0  0  0  0  0  0  0  0  0  0  0
   12.0764    9.3817    4.7952 Cl  0  0  0  0  0  0  0  0  0  0  0  0
   15.1762   10.2551    5.1230 Cl  0  0  0  0  0  0  0  0  0  0  0  0
   15.5400    7.7835    7.2394 P   0  0  1  0  0  4  0  0  0  0  0  0
   12.6375    7.1691    7.2779 P   0  0  1  0  0  4  0  0  0  0  0  0
   15.7013    7.3737    9.0626 C   0  0  2  0  0  0  0  0  0  0  0  0
   16.0071    8.1743    9.7344 H   0  0  0  0  0  0  0  0  0  0  0  0
   16.6532    6.2014    8.9884 C   0  0  0  0  0  0  0  0  0  0  0  0
   16.3037    5.3901    7.9842 C   0  0  0  0  0  0  0  0  0  0  0  0
   15.1395    5.9656    7.2236 C   0  0  1  0  0  0  0  0  0  0  0  0
   14.9432    5.5018    6.2549 H   0  0  0  0  0  0  0  0  0  0  0  0
   13.8772    6.0504    8.1084 C   0  0  1  0  0  0  0  0  0  0  0  0
   13.4491    5.0636    8.3103 H   0  0  0  0  0  0  0  0  0  0  0  0
   14.2969    6.7892    9.4072 C   0  0  2  0  0  0  0  0  0  0  0  0
   13.2854    7.8725    9.7123 C   0  0  0  0  0  0  0  0  0  0  0  0
   12.3298    8.0622    8.7996 C   0  0  0  0  0  0  0  0  0  0  0  0
   11.5457    8.8005    8.8718 H   0  0  0  0  0  0  0  0  0  0  0  0
   13.3627    8.6177   11.0035 C   0  0  0  0  0  0  0  0  0  0  0  0
   14.3814    8.9463   11.2007 H   0  0  0  0  0  0  0  0  0  0  0  0
   13.0496    7.9834   11.8325 H   0  0  0  0  0  0  0  0  0  0  0  0
   12.7145    9.4893   10.9748 H   0  0  0  0  0  0  0  0  0  0  0  0
   14.3758    5.8275   10.5990 C   0  0  0  0  0  0  0  0  0  0  0  0
   14.9507    4.9420   10.3431 H   0  0  0  0  0  0  0  0  0  0  0  0
   13.3732    5.5156   10.8864 H   0  0  0  0  0  0  0  0  0  0  0  0
   14.8483    6.3078   11.4520 H   0  0  0  0  0  0  0  0  0  0  0  0
   17.7498    6.0096    9.9841 C   0  0  0  0  0  0  0  0  0  0  0  0
   17.6547    6.7178   10.8031 H   0  0  0  0  0  0  0  0  0  0  0  0
   18.7197    6.1623    9.5105 H   0  0  0  0  0  0  0  0  0  0  0  0
   17.7340    5.0018   10.3963 H   0  0  0  0  0  0  0  0  0  0  0  0
   16.9138    4.0952    7.5769 C   0  0  0  0  0  0  0  0  0  0  0  0
   16.1515    3.3178    7.5227 H   0  0  0  0  0  0  0  0  0  0  0  0
   17.6863    3.7870    8.2757 H   0  0  0  0  0  0  0  0  0  0  0  0
   17.3592    4.1921    6.5866 H   0  0  0  0  0  0  0  0  0  0  0  0
   17.2220    7.9465    6.6154 C   0  0  0  0  0  0  0  0  0  0  0  0
   17.4060    7.6405    5.2696 C   0  0  0  0  0  0  0  0  0  0  0  0
   16.5549    7.3159    4.6830 H   0  0  0  0  0  0  0  0  0  0  0  0
   18.6553    7.7766    4.6970 C   0  0  0  0  0  0  0  0  0  0  0  0
   18.8013    7.5400    3.6537 H   0  0  0  0  0  0  0  0  0  0  0  0
   19.7184    8.2334    5.4611 C   0  0  0  0  0  0  0  0  0  0  0  0
   20.6938    8.3480    5.0118 H   0  0  0  0  0  0  0  0  0  0  0  0
   19.5307    8.5609    6.7936 C   0  0  0  0  0  0  0  0  0  0  0  0
   20.3585    8.9330    7.3795 H   0  0  0  0  0  0  0  0  0  0  0  0
   18.2823    8.4242    7.3747 C   0  0  0  0  0  0  0  0  0  0  0  0
   18.1293    8.6953    8.4091 H   0  0  0  0  0  0  0  0  0  0  0  0
   11.1552    6.1950    6.9109 C   0  0  0  0  0  0  0  0  0  0  0  0
   10.6464    6.2032    5.6177 C   0  0  0  0  0  0  0  0  0  0  0  0
   11.1335    6.8067    4.8639 H   0  0  0  0  0  0  0  0  0  0  0  0
    9.5125    5.4646    5.3265 C   0  0  0  0  0  0  0  0  0  0  0  0
    9.1087    5.4708    4.3254 H   0  0  0  0  0  0  0  0  0  0  0  0
    8.8948    4.7222    6.3194 C   0  0  0  0  0  0  0  0  0  0  0  0
    8.0100    4.1464    6.0911 H   0  0  0  0  0  0  0  0  0  0  0  0
    9.4015    4.7195    7.6110 C   0  0  0  0  0  0  0  0  0  0  0  0
    8.9101    4.1451    8.3828 H   0  0  0  0  0  0  0  0  0  0  0  0
   10.5308    5.4564    7.9119 C   0  0  0  0  0  0  0  0  0  0  0  0
   10.9288    5.4731    8.9179 H   0  0  0  0  0  0  0  0  0  0  0  0
  1  4  1  0  0  0  0
  1  5  1  0  0  0  0
  2  1  1  0  0  0  0
  3  1  1  0  0  0  0
  4 34  1  6  0  0  0
  4  6  1  0  0  0  0
  5 45  1  6  0  0  0
  5 12  1  0  0  0  0
  5 16  1  0  0  0  0
  6 14  1  0  0  0  0
  6  7  1  1  0  0  0
  8  6  1  0  0  0  0
  8 26  1  0  0  0  0
  9  8  2  0  0  0  0
 10 11  1  6  0  0  0
 10  4  1  0  0  0  0
 10  9  1  0  0  0  0
 10 12  1  0  0  0  0
 12 13  1  1  0  0  0
 12 14  1  0  0  0  0
 14 15  1  0  0  0  0
 14 22  1  1  0  0  0
 15 18  1  0  0  0  0
 16 17  1  0  0  0  0
 16 15  2  0  0  0  0
 18 19  1  0  0  0  0
 18 20  1  0  0  0  0
 21 18  1  0  0  0  0
 22 24  1  0  0  0  0
 22 25  1  0  0  0  0
 23 22  1  0  0  0  0
 26 29  1  0  0  0  0
 26 27  1  0  0  0  0
 28 26  1  0  0  0  0
 30  9  1  0  0  0  0
 30 32  1  0  0  0  0
 31 30  1  0  0  0  0
 33 30  1  0  0  0  0
 34 43  1  0  0  0  0
 35 34  2  0  0  0  0
 36 35  1  0  0  0  0
 37 35  1  0  0  0  0
 37 39  2  0  0  0  0
 38 37  1  0  0  0  0
 39 41  1  0  0  0  0
 40 39  1  0  0  0  0
 41 43  2  0  0  0  0
 41 42  1  0  0  0  0
 43 44  1  0  0  0  0
 45 54  1  0  0  0  0
 46 45  2  0  0  0  0
 47 46  1  0  0  0  0
 48 46  1  0  0  0  0
 48 50  2  0  0  0  0
 49 48  1  0  0  0  0
 50 52  1  0  0  0  0
 51 50  1  0  0  0  0
 52 54  2  0  0  0  0
 52 53  1  0  0  0  0
 54 55  1  0  0  0  0
M  END
$$$$
