CSD_code = WIYJAS | q = 0 | S = 0 | Stoichiometry = C15H12AuClN2S | MND = 2
 OpenBabel04212202113D

 32 35  0  0  1  0  0  0  0  0999 V2000
   -0.5851    4.1536    5.1281 Au  0  0  0  0  0  0  0  0  0  0  0  0
   -2.6459    3.7953    4.3974 Cl  0  0  0  0  0  0  0  0  0  0  0  0
    2.3160    1.9402    5.8655 S   0  0  0  0  0  0  0  0  0  0  0  0
    1.2858    4.4990    5.8363 N   0  0  0  0  0  0  0  0  0  0  0  0
    3.2642    4.1375    6.8169 N   0  0  0  0  0  0  0  0  0  0  0  0
    2.1920    3.6375    6.1490 C   0  0  2  0  0  3  0  0  0  0  0  0
    3.8890    1.9389    6.6846 C   0  0  0  0  0  0  0  0  0  0  0  0
    4.7266    0.8629    6.8979 C   0  0  0  0  0  0  0  0  0  0  0  0
    4.4522   -0.1196    6.5502 H   0  0  0  0  0  0  0  0  0  0  0  0
    5.9207    1.0828    7.5671 C   0  0  0  0  0  0  0  0  0  0  0  0
    6.5885    0.2547    7.7434 H   0  0  0  0  0  0  0  0  0  0  0  0
    6.2654    2.3519    8.0114 C   0  0  0  0  0  0  0  0  0  0  0  0
    7.1999    2.4999    8.5297 H   0  0  0  0  0  0  0  0  0  0  0  0
    5.4299    3.4353    7.8011 C   0  0  0  0  0  0  0  0  0  0  0  0
    5.6936    4.4232    8.1443 H   0  0  0  0  0  0  0  0  0  0  0  0
    4.2341    3.2231    7.1323 C   0  0  0  0  0  0  0  0  0  0  0  0
    3.0934    5.5555    7.0181 C   0  0  0  0  0  0  0  0  0  0  0  0
    3.8806    6.1190    6.5094 H   0  0  0  0  0  0  0  0  0  0  0  0
    3.1027    5.8071    8.0830 H   0  0  0  0  0  0  0  0  0  0  0  0
    1.6915    5.7970    6.3822 C   0  0  2  0  0  0  0  0  0  0  0  0
    1.7474    6.5092    5.5529 H   0  0  0  0  0  0  0  0  0  0  0  0
    0.6541    6.2634    7.3729 C   0  0  0  0  0  0  0  0  0  0  0  0
    0.3917    5.5072    8.5092 C   0  0  0  0  0  0  0  0  0  0  0  0
    0.9409    4.5927    8.6880 H   0  0  0  0  0  0  0  0  0  0  0  0
   -0.5840    5.9065    9.4034 C   0  0  0  0  0  0  0  0  0  0  0  0
   -0.7857    5.3086   10.2795 H   0  0  0  0  0  0  0  0  0  0  0  0
   -1.3065    7.0645    9.1697 C   0  0  0  0  0  0  0  0  0  0  0  0
   -2.0729    7.3721    9.8647 H   0  0  0  0  0  0  0  0  0  0  0  0
   -1.0505    7.8205    8.0391 C   0  0  0  0  0  0  0  0  0  0  0  0
   -1.6167    8.7196    7.8489 H   0  0  0  0  0  0  0  0  0  0  0  0
   -0.0752    7.4209    7.1425 C   0  0  0  0  0  0  0  0  0  0  0  0
    0.1156    8.0063    6.2550 H   0  0  0  0  0  0  0  0  0  0  0  0
  1  4  1  0  0  0  0
  2  1  1  0  0  0  0
  3  7  1  0  0  0  0
  4  6  1  0  0  0  0
  4 20  1  0  0  0  0
  5 17  1  0  0  0  0
  5 16  1  0  0  0  0
  6  3  1  6  0  0  0
  6  5  1  0  0  0  0
  7  8  2  0  0  0  0
  7 16  1  0  0  0  0
  8 10  1  0  0  0  0
  9  8  1  0  0  0  0
 10 11  1  0  0  0  0
 10 12  2  0  0  0  0
 12 13  1  0  0  0  0
 14 12  1  0  0  0  0
 14 15  1  0  0  0  0
 16 14  2  0  0  0  0
 17 19  1  0  0  0  0
 18 17  1  0  0  0  0
 20 21  1  6  0  0  0
 20 17  1  0  0  0  0
 20 22  1  0  0  0  0
 22 23  1  0  0  0  0
 23 24  1  0  0  0  0
 23 25  2  0  0  0  0
 25 26  1  0  0  0  0
 27 25  1  0  0  0  0
 27 28  1  0  0  0  0
 29 27  2  0  0  0  0
 30 29  1  0  0  0  0
 31 22  2  0  0  0  0
 31 29  1  0  0  0  0
 32 31  1  0  0  0  0
M  END
$$$$
