CSD_code = WIYJUM | q = 0 | S = 0 | Stoichiometry = C19H20AuCl3N2S | MND = 4
 OpenBabel04212202113D

 46 49  0  0  1  0  0  0  0  0999 V2000
    2.1091    8.8229   10.5323 Au  0  0  0  0  0  0  0  0  0  0  0  0
   -0.0120    8.4263    9.7959 Cl  0  0  0  0  0  0  0  0  0  0  0  0
    4.2567    9.2189   11.1687 Cl  0  0  0  0  0  0  0  0  0  0  0  0
    1.9125    7.2126   12.0449 Cl  0  0  0  0  0  0  0  0  0  0  0  0
    0.2976   11.6518   10.2364 S   0  0  0  0  0  0  0  0  0  0  0  0
    2.3098   10.2779    9.1391 N   0  0  0  0  0  0  0  0  0  0  0  0
    1.3616   12.0493    7.9268 N   0  0  0  0  0  0  0  0  0  0  0  0
    1.4461   11.2379    8.9997 C   0  0  2  0  0  3  0  0  0  0  0  0
   -0.3277   12.9472    9.2270 C   0  0  0  0  0  0  0  0  0  0  0  0
   -1.3648   13.8173    9.5071 C   0  0  0  0  0  0  0  0  0  0  0  0
   -1.8884   13.7542   10.4465 H   0  0  0  0  0  0  0  0  0  0  0  0
   -1.7063   14.7576    8.5506 C   0  0  0  0  0  0  0  0  0  0  0  0
   -2.5122   15.4467    8.7466 H   0  0  0  0  0  0  0  0  0  0  0  0
   -1.0268   14.8175    7.3409 C   0  0  0  0  0  0  0  0  0  0  0  0
   -1.3129   15.5521    6.6046 H   0  0  0  0  0  0  0  0  0  0  0  0
    0.0105   13.9465    7.0575 C   0  0  0  0  0  0  0  0  0  0  0  0
    0.5213   13.9962    6.1092 H   0  0  0  0  0  0  0  0  0  0  0  0
    0.3661   13.0062    8.0138 C   0  0  0  0  0  0  0  0  0  0  0  0
    2.2678   11.9052    6.8076 C   0  0  0  0  0  0  0  0  0  0  0  0
    2.4323   12.8980    6.3872 H   0  0  0  0  0  0  0  0  0  0  0  0
    1.8221   11.2593    6.0421 H   0  0  0  0  0  0  0  0  0  0  0  0
    3.5847   11.3099    7.3043 C   0  0  1  0  0  0  0  0  0  0  0  0
    4.0208   12.0170    8.0206 H   0  0  0  0  0  0  0  0  0  0  0  0
    3.2782   10.0147    8.0855 C   0  0  2  0  0  0  0  0  0  0  0  0
    4.1892    9.7078    8.6087 H   0  0  0  0  0  0  0  0  0  0  0  0
    4.6023   11.0716    6.1730 C   0  0  0  0  0  0  0  0  0  0  0  0
    4.2820   10.1950    5.6003 H   0  0  0  0  0  0  0  0  0  0  0  0
    5.9910   10.8072    6.7545 C   0  0  0  0  0  0  0  0  0  0  0  0
    6.3482   11.6839    7.2902 H   0  0  0  0  0  0  0  0  0  0  0  0
    6.6926   10.5865    5.9540 H   0  0  0  0  0  0  0  0  0  0  0  0
    5.9898    9.9672    7.4415 H   0  0  0  0  0  0  0  0  0  0  0  0
    4.6897   12.2657    5.2207 C   0  0  0  0  0  0  0  0  0  0  0  0
    5.5147   12.1154    4.5291 H   0  0  0  0  0  0  0  0  0  0  0  0
    4.8772   13.1847    5.7720 H   0  0  0  0  0  0  0  0  0  0  0  0
    3.7839   12.3815    4.6316 H   0  0  0  0  0  0  0  0  0  0  0  0
    2.8023    8.8584    7.2327 C   0  0  0  0  0  0  0  0  0  0  0  0
    3.6971    7.8537    6.8818 C   0  0  0  0  0  0  0  0  0  0  0  0
    4.7203    7.9060    7.2232 H   0  0  0  0  0  0  0  0  0  0  0  0
    3.2857    6.7822    6.1103 C   0  0  0  0  0  0  0  0  0  0  0  0
    3.9924    6.0093    5.8483 H   0  0  0  0  0  0  0  0  0  0  0  0
    1.9696    6.6936    5.6896 C   0  0  0  0  0  0  0  0  0  0  0  0
    1.6449    5.8527    5.0957 H   0  0  0  0  0  0  0  0  0  0  0  0
    1.0677    7.6785    6.0507 C   0  0  0  0  0  0  0  0  0  0  0  0
    0.0340    7.6074    5.7480 H   0  0  0  0  0  0  0  0  0  0  0  0
    1.4799    8.7544    6.8172 C   0  0  0  0  0  0  0  0  0  0  0  0
    0.7466    9.4867    7.1208 H   0  0  0  0  0  0  0  0  0  0  0  0
  1  3  1  0  0  0  0
  1  4  1  0  0  0  0
  2  1  1  0  0  0  0
  6  1  1  0  0  0  0
  7 18  1  0  0  0  0
  7  8  1  0  0  0  0
  8  6  1  0  0  0  0
  8  5  1  1  0  0  0
  9 10  1  0  0  0  0
  9  5  1  0  0  0  0
 10 11  1  0  0  0  0
 12 13  1  0  0  0  0
 12 10  2  0  0  0  0
 14 12  1  0  0  0  0
 15 14  1  0  0  0  0
 16 14  2  0  0  0  0
 16 18  1  0  0  0  0
 17 16  1  0  0  0  0
 18  9  2  0  0  0  0
 19 22  1  0  0  0  0
 19  7  1  0  0  0  0
 20 19  1  0  0  0  0
 21 19  1  0  0  0  0
 22 23  1  1  0  0  0
 22 24  1  0  0  0  0
 24 25  1  1  0  0  0
 24  6  1  0  0  0  0
 26 28  1  0  0  0  0
 26 22  1  0  0  0  0
 27 26  1  0  0  0  0
 28 29  1  0  0  0  0
 28 31  1  0  0  0  0
 30 28  1  0  0  0  0
 32 34  1  0  0  0  0
 32 26  1  0  0  0  0
 33 32  1  0  0  0  0
 35 32  1  0  0  0  0
 36 24  1  0  0  0  0
 37 38  1  0  0  0  0
 37 36  1  0  0  0  0
 39 37  2  0  0  0  0
 40 39  1  0  0  0  0
 41 43  2  0  0  0  0
 41 39  1  0  0  0  0
 42 41  1  0  0  0  0
 43 45  1  0  0  0  0
 44 43  1  0  0  0  0
 45 46  1  0  0  0  0
 45 36  2  0  0  0  0
M  END
$$$$
