CSD_code = WIZCIR | q = 0 | S = 0 | Stoichiometry = C16H15ClSTi | MND = 12
 OpenBabel04212202113D

 34 35  0  0  1  0  0  0  0  0999 V2000
   10.0480    2.0713    3.0018 Ti  0  0  0  0  0  0  0  0  0  0  0  0
    9.2804    3.0275    1.1470 Cl  0  0  0  0  0  0  0  0  0  0  0  0
    9.0811   -0.0445    2.5138 S   0  0  0  0  0  1  0  0  0  0  0  0
    8.0817    2.9535    3.9172 C   0  0  2  0  0  0  0  0  0  0  0  0
    9.0651    3.9656    4.0061 C   0  0  0  0  0  3  0  0  0  0  0  0
   10.0594    3.5277    4.8989 C   0  0  0  0  0  0  0  0  0  0  0  0
    9.7097    2.2346    5.3453 C   0  0  0  0  0  0  0  0  0  0  0  0
    8.4787    1.8879    4.7527 C   0  0  0  0  0  3  0  0  0  0  0  0
   12.0311    2.3673    1.6902 C   0  0  0  0  0  0  0  0  0  0  0  0
   12.2685    2.8803    2.9808 C   0  0  0  0  0  0  0  0  0  0  0  0
   12.2207    1.8015    3.8936 C   0  0  0  0  0  0  0  0  0  0  0  0
   11.8937    0.6382    3.1768 C   0  0  2  0  0  0  0  0  0  0  0  0
   11.7773    0.9896    1.8070 C   0  0  0  0  0  0  0  0  0  0  0  0
    7.3191    0.0498    2.5453 C   0  0  0  0  0  0  0  0  0  0  0  0
    6.6117   -0.7794    3.4117 C   0  0  0  0  0  0  0  0  0  0  0  0
    5.2298   -0.7493    3.4205 C   0  0  0  0  0  0  0  0  0  0  0  0
    4.5462    0.1000    2.5652 C   0  0  0  0  0  0  0  0  0  0  0  0
    5.2507    0.9111    1.6896 C   0  0  0  0  0  0  0  0  0  0  0  0
    6.6331    0.8877    1.6720 C   0  0  0  0  0  0  0  0  0  0  0  0
    7.1402    3.0308    3.3882 H   0  0  0  0  0  0  0  0  0  0  0  0
    9.0051    4.9445    3.5459 H   0  0  0  0  0  0  0  0  0  0  0  0
   10.8854    4.1224    5.2659 H   0  0  0  0  0  0  0  0  0  0  0  0
   10.2082    1.6677    6.1209 H   0  0  0  0  0  0  0  0  0  0  0  0
    7.8807    1.0223    5.0058 H   0  0  0  0  0  0  0  0  0  0  0  0
   12.0999    2.9234    0.7643 H   0  0  0  0  0  0  0  0  0  0  0  0
   12.5895    3.8904    3.2031 H   0  0  0  0  0  0  0  0  0  0  0  0
   12.5082    1.8405    4.9352 H   0  0  0  0  0  0  0  0  0  0  0  0
   11.8597   -0.3698    3.5709 H   0  0  0  0  0  0  0  0  0  0  0  0
   11.6172    0.2997    0.9876 H   0  0  0  0  0  0  0  0  0  0  0  0
    7.1558   -1.4455    4.0661 H   0  0  0  0  0  0  0  0  0  0  0  0
    4.6850   -1.3916    4.0969 H   0  0  0  0  0  0  0  0  0  0  0  0
    3.4667    0.1237    2.5762 H   0  0  0  0  0  0  0  0  0  0  0  0
    4.7198    1.5638    1.0122 H   0  0  0  0  0  0  0  0  0  0  0  0
    7.1887    1.5092    0.9833 H   0  0  0  0  0  0  0  0  0  0  0  0
  1 12  1  0  0  0  0
  1  4  1  0  0  0  0
  2  1  1  0  0  0  0
  3 14  1  0  0  0  0
  4 20  1  6  0  0  0
  4  5  1  0  0  0  0
  4  8  1  0  0  0  0
  5  6  1  0  0  0  0
  6 22  1  0  0  0  0
  6  7  2  0  0  0  0
  7 23  1  0  0  0  0
  8 24  1  0  0  0  0
  8  7  1  0  0  0  0
  9 13  2  0  0  0  0
  9 10  1  0  0  0  0
 10 26  1  0  0  0  0
 10 11  2  0  0  0  0
 11 27  1  0  0  0  0
 12 28  1  1  0  0  0
 12 11  1  0  0  0  0
 13 12  1  0  0  0  0
 14 15  1  0  0  0  0
 15 16  2  0  0  0  0
 15 30  1  0  0  0  0
 16 31  1  0  0  0  0
 17 32  1  0  0  0  0
 17 16  1  0  0  0  0
 18 17  2  0  0  0  0
 19 18  1  0  0  0  0
 19 14  2  0  0  0  0
 21  5  1  0  0  0  0
 25  9  1  0  0  0  0
 29 13  1  0  0  0  0
 33 18  1  0  0  0  0
 34 19  1  0  0  0  0
M  END
$$$$
