CSD_code = WIZHIW | q = 0 | S = 0 | Stoichiometry = C22H33Cl2N2O4PRu | MND = 5
 OpenBabel04212202113D

 65 69  0  0  1  0  0  0  0  0999 V2000
    1.8800    3.2112    4.8535 Ru  0  0  0  0  0  0  0  0  0  0  0  0
    2.5937    1.4978    3.4320 Cl  0  0  0  0  0  0  0  0  0  0  0  0
    0.7813    4.5312    6.4741 Cl  0  0  0  0  0  0  0  0  0  0  0  0
    3.2257    4.7840    4.1379 P   0  0  2  0  0  4  0  0  0  0  0  0
    4.4586    5.0920    5.0828 O   0  0  0  0  0  0  0  0  0  0  0  0
    4.3675    3.1458    8.1583 O   0  0  0  0  0  0  0  0  0  0  0  0
    2.4370    6.1916    4.1510 O   0  0  0  0  0  0  0  0  0  0  0  0
   -0.9602    5.5365    2.9416 O   0  0  0  0  0  0  0  0  0  0  0  0
    3.2019    2.7252    6.3100 N   0  0  1  0  0  0  0  0  0  0  0  0
    0.4863    3.9759    3.5869 N   0  0  2  0  0  0  0  0  0  0  0  0
    4.5320    4.8671    6.4911 C   0  0  0  0  0  0  0  0  0  0  0  0
    3.7908    5.9750    7.2409 C   0  0  0  0  0  0  0  0  0  0  0  0
    6.0307    4.8918    6.8129 C   0  0  0  0  0  0  0  0  0  0  0  0
    3.9729    3.5320    6.9288 C   0  0  2  0  0  3  0  0  0  0  0  0
    3.0198    1.5208    7.1265 C   0  0  0  0  0  0  0  0  0  0  0  0
    3.6603    1.9458    8.4668 C   0  0  0  0  0  0  0  0  0  0  0  0
    1.5282    1.2108    7.2179 C   0  0  0  0  0  0  0  0  0  0  0  0
    3.7841    0.3656    6.4753 C   0  0  0  0  0  0  0  0  0  0  0  0
    1.1554    6.4303    3.5913 C   0  0  0  0  0  0  0  0  0  0  0  0
    0.4573    7.4226    4.5275 C   0  0  0  0  0  0  0  0  0  0  0  0
    1.3509    7.0286    2.1903 C   0  0  0  0  0  0  0  0  0  0  0  0
    0.2583    5.2216    3.4234 C   0  0  1  0  0  3  0  0  0  0  0  0
   -0.6842    3.2114    3.1454 C   0  0  0  0  0  0  0  0  0  0  0  0
   -1.7193    4.3305    2.8928 C   0  0  0  0  0  0  0  0  0  0  0  0
   -1.0820    2.2396    4.2532 C   0  0  0  0  0  0  0  0  0  0  0  0
   -0.3266    2.4637    1.8594 C   0  0  0  0  0  0  0  0  0  0  0  0
    4.0990    4.8741    2.5355 C   0  0  0  0  0  0  0  0  0  0  0  0
    5.0843    5.8351    2.3486 C   0  0  0  0  0  0  0  0  0  0  0  0
    5.6938    5.9600    1.1139 C   0  0  0  0  0  0  0  0  0  0  0  0
    5.3162    5.1342    0.0659 C   0  0  0  0  0  0  0  0  0  0  0  0
    4.3283    4.1819    0.2520 C   0  0  0  0  0  0  0  0  0  0  0  0
    3.7152    4.0520    1.4871 C   0  0  0  0  0  0  0  0  0  0  0  0
    3.9421    5.8624    8.3110 H   0  0  0  0  0  0  0  0  0  0  0  0
    4.1688    6.9405    6.9153 H   0  0  0  0  0  0  0  0  0  0  0  0
    2.7265    5.9172    7.0216 H   0  0  0  0  0  0  0  0  0  0  0  0
    6.1882    4.7181    7.8726 H   0  0  0  0  0  0  0  0  0  0  0  0
    6.5416    4.1219    6.2398 H   0  0  0  0  0  0  0  0  0  0  0  0
    6.4364    5.8608    6.5360 H   0  0  0  0  0  0  0  0  0  0  0  0
    4.3712    1.2135    8.8520 H   0  0  0  0  0  0  0  0  0  0  0  0
    2.9120    2.1721    9.2343 H   0  0  0  0  0  0  0  0  0  0  0  0
    0.9918    2.0376    7.6870 H   0  0  0  0  0  0  0  0  0  0  0  0
    1.1409    1.0573    6.2005 H   0  0  0  0  0  0  0  0  0  0  0  0
    1.3586    0.3022    7.7911 H   0  0  0  0  0  0  0  0  0  0  0  0
    3.6186   -0.5526    7.0337 H   0  0  0  0  0  0  0  0  0  0  0  0
    3.4437    0.2281    5.4497 H   0  0  0  0  0  0  0  0  0  0  0  0
    4.8500    0.5850    6.4527 H   0  0  0  0  0  0  0  0  0  0  0  0
    1.0815    8.3048    4.6374 H   0  0  0  0  0  0  0  0  0  0  0  0
   -0.5111    7.7013    4.1243 H   0  0  0  0  0  0  0  0  0  0  0  0
    0.3253    6.9570    5.5018 H   0  0  0  0  0  0  0  0  0  0  0  0
    1.9838    7.9085    2.2677 H   0  0  0  0  0  0  0  0  0  0  0  0
    1.8400    6.3020    1.5436 H   0  0  0  0  0  0  0  0  0  0  0  0
    0.3903    7.3055    1.7660 H   0  0  0  0  0  0  0  0  0  0  0  0
   -2.4877    4.3730    3.6721 H   0  0  0  0  0  0  0  0  0  0  0  0
   -2.1945    4.2591    1.9131 H   0  0  0  0  0  0  0  0  0  0  0  0
   -1.2269    2.7746    5.1947 H   0  0  0  0  0  0  0  0  0  0  0  0
   -2.0015    1.7198    3.9943 H   0  0  0  0  0  0  0  0  0  0  0  0
   -0.2848    1.4967    4.3680 H   0  0  0  0  0  0  0  0  0  0  0  0
   -1.1663    1.8512    1.5408 H   0  0  0  0  0  0  0  0  0  0  0  0
   -0.0777    3.1702    1.0693 H   0  0  0  0  0  0  0  0  0  0  0  0
    0.5364    1.8231    2.0382 H   0  0  0  0  0  0  0  0  0  0  0  0
    5.3620    6.4725    3.1745 H   0  0  0  0  0  0  0  0  0  0  0  0
    6.4645    6.7026    0.9651 H   0  0  0  0  0  0  0  0  0  0  0  0
    5.7955    5.2341   -0.8972 H   0  0  0  0  0  0  0  0  0  0  0  0
    4.0369    3.5367   -0.5636 H   0  0  0  0  0  0  0  0  0  0  0  0
    2.9558    3.3012    1.6532 H   0  0  0  0  0  0  0  0  0  0  0  0
  1  9  1  0  0  0  0
  1  3  1  0  0  0  0
  2  1  1  0  0  0  0
  4 27  1  6  0  0  0
  4  7  1  0  0  0  0
  4  1  1  0  0  0  0
  4  5  1  0  0  0  0
  5 11  1  0  0  0  0
  6 16  1  0  0  0  0
  9 14  1  0  0  0  0
  9 15  1  1  0  0  0
 10 23  1  1  0  0  0
 10  1  1  0  0  0  0
 11 13  1  0  0  0  0
 11 14  1  0  0  0  0
 11 12  1  0  0  0  0
 12 33  1  0  0  0  0
 13 36  1  0  0  0  0
 14  6  1  6  0  0  0
 15 17  1  0  0  0  0
 15 16  1  0  0  0  0
 16 39  1  0  0  0  0
 16 40  1  0  0  0  0
 17 41  1  0  0  0  0
 17 43  1  0  0  0  0
 18 44  1  0  0  0  0
 18 15  1  0  0  0  0
 19  7  1  0  0  0  0
 19 20  1  0  0  0  0
 20 47  1  0  0  0  0
 20 49  1  0  0  0  0
 21 50  1  0  0  0  0
 21 19  1  0  0  0  0
 22  8  1  6  0  0  0
 22 10  1  0  0  0  0
 22 19  1  0  0  0  0
 23 25  1  0  0  0  0
 24  8  1  0  0  0  0
 24 23  1  0  0  0  0
 24 53  1  0  0  0  0
 25 57  1  0  0  0  0
 25 55  1  0  0  0  0
 26 60  1  0  0  0  0
 26 23  1  0  0  0  0
 28 27  1  0  0  0  0
 28 61  1  0  0  0  0
 29 28  2  0  0  0  0
 30 31  2  0  0  0  0
 30 29  1  0  0  0  0
 31 32  1  0  0  0  0
 32 65  1  0  0  0  0
 32 27  2  0  0  0  0
 34 12  1  0  0  0  0
 35 12  1  0  0  0  0
 37 13  1  0  0  0  0
 38 13  1  0  0  0  0
 42 17  1  0  0  0  0
 45 18  1  0  0  0  0
 46 18  1  0  0  0  0
 48 20  1  0  0  0  0
 51 21  1  0  0  0  0
 52 21  1  0  0  0  0
 54 24  1  0  0  0  0
 56 25  1  0  0  0  0
 58 26  1  0  0  0  0
 59 26  1  0  0  0  0
 62 29  1  0  0  0  0
 63 30  1  0  0  0  0
 64 31  1  0  0  0  0
M  END
$$$$
