CSD_code = WIZLAU | q = 0 | S = 0 | Stoichiometry = C20H32ClN2NiO2P3 | MND = 5
 OpenBabel04212202113D

 61 64  0  0  0  0  0  0  0  0999 V2000
    4.3902   13.6518   10.8211 Ni  0  0  0  0  0  0  0  0  0  0  0  0
    3.4124   15.2323   11.8427 Cl  0  0  0  0  0  0  0  0  0  0  0  0
    4.8637   11.6714   10.1991 P   0  0  0  0  0  0  0  0  0  0  0  0
    6.0815   13.9654   12.2102 P   0  0  0  0  0  4  0  0  0  0  0  0
    3.5786   14.4895    8.9545 P   0  0  0  0  0  4  0  0  0  0  0  0
    6.2237   11.6670    9.1532 O   0  0  0  0  0  0  0  0  0  0  0  0
    3.3647   11.7694   11.4239 O   0  0  0  0  0  0  0  0  0  0  0  0
    3.9557   10.8085    9.0368 N   0  0  0  0  0  0  0  0  0  0  0  0
    5.4900   10.5220   11.2966 N   0  0  0  0  0  0  0  0  0  0  0  0
    2.5425   10.5197    9.0618 C   0  0  0  0  0  0  0  0  0  0  0  0
    6.6143    9.6530   11.0475 C   0  0  0  0  0  0  0  0  0  0  0  0
    4.6561   10.6056    7.8597 C   0  0  0  0  0  0  0  0  0  0  0  0
    4.2291   10.0023    6.6918 C   0  0  0  0  0  0  0  0  0  0  0  0
    5.1183    9.9117    5.6259 C   0  0  0  0  0  0  0  0  0  0  0  0
    6.4015   10.4134    5.7218 C   0  0  0  0  0  0  0  0  0  0  0  0
    6.8406   11.0208    6.8953 C   0  0  0  0  0  0  0  0  0  0  0  0
    5.9622   11.1073    7.9511 C   0  0  0  0  0  0  0  0  0  0  0  0
    4.9877   10.6248   12.5858 C   0  0  0  0  0  0  0  0  0  0  0  0
    5.5229   10.1093   13.7511 C   0  0  0  0  0  0  0  0  0  0  0  0
    4.8547   10.3281   14.9504 C   0  0  0  0  0  0  0  0  0  0  0  0
    3.6766   11.0528   14.9831 C   0  0  0  0  0  0  0  0  0  0  0  0
    3.1306   11.5747   13.8189 C   0  0  0  0  0  0  0  0  0  0  0  0
    3.7854   11.3567   12.6183 C   0  0  0  0  0  0  0  0  0  0  0  0
    6.8038   15.6111   11.8338 C   0  0  0  0  0  0  0  0  0  0  0  0
    7.6069   12.9388   12.2327 C   0  0  0  0  0  0  0  0  0  0  0  0
    5.7610   14.1279   14.0045 C   0  0  0  0  0  0  0  0  0  0  0  0
    4.0498   16.2460    8.7146 C   0  0  0  0  0  0  0  0  0  0  0  0
    1.7522   14.6037    8.9111 C   0  0  0  0  0  0  0  0  0  0  0  0
    3.9243   13.8462    7.2645 C   0  0  0  0  0  0  0  0  0  0  0  0
    2.0262   11.0311    8.2433 H   0  0  0  0  0  0  0  0  0  0  0  0
    2.3794    9.4432    8.9619 H   0  0  0  0  0  0  0  0  0  0  0  0
    2.1291   10.8548   10.0082 H   0  0  0  0  0  0  0  0  0  0  0  0
    6.7545    9.5298    9.9763 H   0  0  0  0  0  0  0  0  0  0  0  0
    6.4035    8.6731   11.4827 H   0  0  0  0  0  0  0  0  0  0  0  0
    7.5444   10.0372   11.4786 H   0  0  0  0  0  0  0  0  0  0  0  0
    3.2312    9.6026    6.6021 H   0  0  0  0  0  0  0  0  0  0  0  0
    4.7929    9.4416    4.7102 H   0  0  0  0  0  0  0  0  0  0  0  0
    7.0756   10.3367    4.8828 H   0  0  0  0  0  0  0  0  0  0  0  0
    7.8402   11.4157    6.9848 H   0  0  0  0  0  0  0  0  0  0  0  0
    6.4420    9.5426   13.7402 H   0  0  0  0  0  0  0  0  0  0  0  0
    5.2674    9.9283   15.8647 H   0  0  0  0  0  0  0  0  0  0  0  0
    3.1728   11.2172   15.9238 H   0  0  0  0  0  0  0  0  0  0  0  0
    2.2160   12.1461   13.8321 H   0  0  0  0  0  0  0  0  0  0  0  0
    6.0213   16.3634   11.9120 H   0  0  0  0  0  0  0  0  0  0  0  0
    7.1946   15.6080   10.8174 H   0  0  0  0  0  0  0  0  0  0  0  0
    7.6071   15.8340   12.5351 H   0  0  0  0  0  0  0  0  0  0  0  0
    8.4215   13.4832   12.7087 H   0  0  0  0  0  0  0  0  0  0  0  0
    7.4130   12.0265   12.7925 H   0  0  0  0  0  0  0  0  0  0  0  0
    7.8853   12.6814   11.2122 H   0  0  0  0  0  0  0  0  0  0  0  0
    4.9561   14.8448   14.1534 H   0  0  0  0  0  0  0  0  0  0  0  0
    5.4559   13.1658   14.4126 H   0  0  0  0  0  0  0  0  0  0  0  0
    6.6650   14.4721   14.5059 H   0  0  0  0  0  0  0  0  0  0  0  0
    3.7854   16.8062    9.6089 H   0  0  0  0  0  0  0  0  0  0  0  0
    5.1251   16.3136    8.5583 H   0  0  0  0  0  0  0  0  0  0  0  0
    3.5292   16.6543    7.8495 H   0  0  0  0  0  0  0  0  0  0  0  0
    1.4296   15.1125    8.0033 H   0  0  0  0  0  0  0  0  0  0  0  0
    1.3246   13.6033    8.9475 H   0  0  0  0  0  0  0  0  0  0  0  0
    1.4215   15.1569    9.7880 H   0  0  0  0  0  0  0  0  0  0  0  0
    3.5112   14.5220    6.5168 H   0  0  0  0  0  0  0  0  0  0  0  0
    4.9995   13.7609    7.1172 H   0  0  0  0  0  0  0  0  0  0  0  0
    3.4857   12.8600    7.1349 H   0  0  0  0  0  0  0  0  0  0  0  0
  1  2  1  0  0  0  0
  1  4  1  0  0  0  0
  3  1  1  0  0  0  0
  3  9  1  0  0  0  0
  3  7  1  0  0  0  0
  4 25  1  0  0  0  0
  4 26  1  0  0  0  0
  5  1  1  0  0  0  0
  6  3  1  0  0  0  0
  7 23  1  0  0  0  0
  8 10  1  0  0  0  0
  8  3  1  0  0  0  0
  9 18  1  0  0  0  0
 10 32  1  0  0  0  0
 11  9  1  0  0  0  0
 11 35  1  0  0  0  0
 11 34  1  0  0  0  0
 12 17  1  0  0  0  0
 12  8  1  0  0  0  0
 13 12  2  0  0  0  0
 14 15  2  0  0  0  0
 14 13  1  0  0  0  0
 15 16  1  0  0  0  0
 16 39  1  0  0  0  0
 16 17  2  0  0  0  0
 17  6  1  0  0  0  0
 18 23  2  0  0  0  0
 18 19  1  0  0  0  0
 19 20  2  0  0  0  0
 20 21  1  0  0  0  0
 20 41  1  0  0  0  0
 21 42  1  0  0  0  0
 22 43  1  0  0  0  0
 22 21  2  0  0  0  0
 23 22  1  0  0  0  0
 24 44  1  0  0  0  0
 24  4  1  0  0  0  0
 24 46  1  0  0  0  0
 25 47  1  0  0  0  0
 25 48  1  0  0  0  0
 26 50  1  0  0  0  0
 26 51  1  0  0  0  0
 26 52  1  0  0  0  0
 27  5  1  0  0  0  0
 27 53  1  0  0  0  0
 28 57  1  0  0  0  0
 28  5  1  0  0  0  0
 28 58  1  0  0  0  0
 29  5  1  0  0  0  0
 30 10  1  0  0  0  0
 31 10  1  0  0  0  0
 33 11  1  0  0  0  0
 36 13  1  0  0  0  0
 37 14  1  0  0  0  0
 38 15  1  0  0  0  0
 40 19  1  0  0  0  0
 45 24  1  0  0  0  0
 49 25  1  0  0  0  0
 54 27  1  0  0  0  0
 55 27  1  0  0  0  0
 56 28  1  0  0  0  0
 59 29  1  0  0  0  0
 60 29  1  0  0  0  0
 61 29  1  0  0  0  0
M  END
$$$$
