CSD_code = WIZYUZ | q = 0 | S = 0 | Stoichiometry = C22H38ClNNbPSi | MND = 10
 OpenBabel04212202113D

 65 64  0  0  1  0  0  0  0  0999 V2000
   -0.5841    2.2543    8.1849 Nb  0  0  0  0  0  0  0  0  0  0  0  0
    2.0853    3.9411    8.7169 Si  0  0  0  0  0  0  0  0  0  0  0  0
    0.2877    0.3348    6.7506 P   0  0  0  0  0  0  0  0  0  0  0  0
   -0.9066    0.2235    9.5385 Cl  0  0  0  0  0 15  0  0  0  0  0  0
    0.7818    2.9893    9.3882 N   0  0  0  0  0  0  0  0  0  0  0  0
   -2.1629    2.0094    5.9056 C   0  0  0  0  0  0  0  0  0  0  0  0
   -2.1161    1.4121    5.0052 H   0  0  0  0  0  0  0  0  0  0  0  0
   -1.4709    3.2240    6.1206 C   0  0  0  0  0  3  0  0  0  0  0  0
   -0.9046    3.7540    5.3655 H   0  0  0  0  0  0  0  0  0  0  0  0
   -1.9396    3.7893    7.3484 C   0  0  1  0  0  0  0  0  0  0  0  0
   -1.9359    4.8546    7.5687 H   0  0  0  0  0  0  0  0  0  0  0  0
   -2.8831    2.8500    7.8974 C   0  0  0  0  0  3  0  0  0  0  0  0
   -3.5720    3.0513    8.7086 H   0  0  0  0  0  0  0  0  0  0  0  0
   -3.0124    1.7801    6.9882 C   0  0  0  0  0  0  0  0  0  0  0  0
   -3.6849    0.9412    7.1038 H   0  0  0  0  0  0  0  0  0  0  0  0
    0.7549    2.8997   10.7995 C   0  0  0  0  0  0  0  0  0  0  0  0
    1.5628    1.9638   11.4690 C   0  0  0  0  0  0  0  0  0  0  0  0
    1.5656    1.9359   12.8556 C   0  0  0  0  0  0  0  0  0  0  0  0
    2.1934    1.2238   13.3697 H   0  0  0  0  0  0  0  0  0  0  0  0
    0.7870    2.8049   13.5938 C   0  0  0  0  0  0  0  0  0  0  0  0
    0.8031    2.7704   14.6731 H   0  0  0  0  0  0  0  0  0  0  0  0
   -0.0159    3.7147   12.9365 C   0  0  0  0  0  0  0  0  0  0  0  0
   -0.6335    4.3881   13.5117 H   0  0  0  0  0  0  0  0  0  0  0  0
   -0.9523    4.7817   10.8788 C   0  0  0  0  0  0  0  0  0  0  0  0
   -0.7638    4.7471    9.7977 H   0  0  0  0  0  0  0  0  0  0  0  0
   -0.6954    6.2134   11.3512 C   0  0  0  0  0  0  0  0  0  0  0  0
   -1.3129    6.9100   10.7867 H   0  0  0  0  0  0  0  0  0  0  0  0
    0.3490    6.4804   11.2072 H   0  0  0  0  0  0  0  0  0  0  0  0
   -0.9344    6.3288   12.4054 H   0  0  0  0  0  0  0  0  0  0  0  0
   -2.4075    4.3745   11.1299 C   0  0  0  0  0  0  0  0  0  0  0  0
   -2.5486    3.3287   10.8553 H   0  0  0  0  0  0  0  0  0  0  0  0
   -3.0873    4.9961   10.5487 H   0  0  0  0  0  0  0  0  0  0  0  0
   -2.6587    4.4837   12.1827 H   0  0  0  0  0  0  0  0  0  0  0  0
    2.4319    0.9923   10.7061 C   0  0  0  0  0  0  0  0  0  0  0  0
    2.1784    1.0915    9.6448 H   0  0  0  0  0  0  0  0  0  0  0  0
    3.9143    1.3266   10.8921 C   0  0  0  0  0  0  0  0  0  0  0  0
    4.1908    1.2602   11.9420 H   0  0  0  0  0  0  0  0  0  0  0  0
    4.1284    2.3328   10.5415 H   0  0  0  0  0  0  0  0  0  0  0  0
    4.5296    0.6258   10.3310 H   0  0  0  0  0  0  0  0  0  0  0  0
    2.1572   -0.4524   11.1310 C   0  0  0  0  0  0  0  0  0  0  0  0
    1.1031   -0.6831   11.0000 H   0  0  0  0  0  0  0  0  0  0  0  0
    2.4196   -0.6120   12.1735 H   0  0  0  0  0  0  0  0  0  0  0  0
    2.7490   -1.1383   10.5271 H   0  0  0  0  0  0  0  0  0  0  0  0
    2.9685    4.9777   10.0513 C   0  0  0  0  0  0  0  0  0  0  0  0
    4.0014    5.1618    9.7739 H   0  0  0  0  0  0  0  0  0  0  0  0
    2.9625    4.4774   11.0146 H   0  0  0  0  0  0  0  0  0  0  0  0
    2.4927    5.9453   10.1816 H   0  0  0  0  0  0  0  0  0  0  0  0
    1.4549    5.1324    7.3690 C   0  0  0  0  0  0  0  0  0  0  0  0
    1.0417    4.5913    6.5229 H   0  0  0  0  0  0  0  0  0  0  0  0
    2.2766    5.7384    7.0024 H   0  0  0  0  0  0  0  0  0  0  0  0
    0.6916    5.8097    7.7431 H   0  0  0  0  0  0  0  0  0  0  0  0
   -0.0384    3.7829   11.5511 C   0  0  0  0  0  0  0  0  0  0  0  0
   -0.7628   -1.1374    6.4292 C   0  0  0  0  0  0  0  0  0  0  0  0
   -1.0898   -1.5202    7.3955 H   0  0  0  0  0  0  0  0  0  0  0  0
   -0.1875   -1.8960    5.8983 H   0  0  0  0  0  0  0  0  0  0  0  0
   -1.6366   -0.8594    5.8435 H   0  0  0  0  0  0  0  0  0  0  0  0
    1.7568   -0.4987    7.4522 C   0  0  0  0  0  0  0  0  0  0  0  0
    2.0802   -1.2997    6.7859 H   0  0  0  0  0  0  0  0  0  0  0  0
    1.4835   -0.9093    8.4226 H   0  0  0  0  0  0  0  0  0  0  0  0
    2.5618    0.2255    7.5737 H   0  0  0  0  0  0  0  0  0  0  0  0
    0.9465    0.7306    5.0775 C   0  0  0  0  0  0  0  0  0  0  0  0
    0.1648    1.1363    4.4409 H   0  0  0  0  0  0  0  0  0  0  0  0
    1.3615   -0.1641    4.6141 H   0  0  0  0  0  0  0  0  0  0  0  0
    1.7295    1.4800    5.1899 H   0  0  0  0  0  0  0  0  0  0  0  0
    3.0643    3.0181    8.0767 H   0  0  0  0  0  0  0  0  0  0  0  0
  1  5  1  0  0  0  0
  2  5  1  0  0  0  0
  2 44  1  0  0  0  0
  3 57  1  0  0  0  0
  5 16  1  0  0  0  0
  6  8  1  0  0  0  0
  6 14  2  0  0  0  0
  7  6  1  0  0  0  0
  8 10  1  0  0  0  0
  9  8  1  0  0  0  0
 10 11  1  1  0  0  0
 10 12  1  0  0  0  0
 10  1  1  0  0  0  0
 12 13  1  0  0  0  0
 14 15  1  0  0  0  0
 14 12  1  0  0  0  0
 16 17  2  0  0  0  0
 16 52  1  0  0  0  0
 17 18  1  0  0  0  0
 18 19  1  0  0  0  0
 18 20  2  0  0  0  0
 20 21  1  0  0  0  0
 22 23  1  0  0  0  0
 22 20  1  0  0  0  0
 24 30  1  0  0  0  0
 24 26  1  0  0  0  0
 24 52  1  0  0  0  0
 25 24  1  0  0  0  0
 26 29  1  0  0  0  0
 27 26  1  0  0  0  0
 28 26  1  0  0  0  0
 30 33  1  0  0  0  0
 31 30  1  0  0  0  0
 32 30  1  0  0  0  0
 34 36  1  0  0  0  0
 34 40  1  0  0  0  0
 34 17  1  0  0  0  0
 35 34  1  0  0  0  0
 36 37  1  0  0  0  0
 38 36  1  0  0  0  0
 39 36  1  0  0  0  0
 40 42  1  0  0  0  0
 41 40  1  0  0  0  0
 43 40  1  0  0  0  0
 44 47  1  0  0  0  0
 44 46  1  0  0  0  0
 45 44  1  0  0  0  0
 48 51  1  0  0  0  0
 48  2  1  0  0  0  0
 49 48  1  0  0  0  0
 50 48  1  0  0  0  0
 52 22  2  0  0  0  0
 53  3  1  0  0  0  0
 53 54  1  0  0  0  0
 55 53  1  0  0  0  0
 56 53  1  0  0  0  0
 57 60  1  0  0  0  0
 57 59  1  0  0  0  0
 58 57  1  0  0  0  0
 61 64  1  0  0  0  0
 61  3  1  0  0  0  0
 62 61  1  0  0  0  0
 63 61  1  0  0  0  0
 65  2  1  0  0  0  0
M  END
$$$$
