CSD_code = WOBDAS | q = 0 | S = 0 | Stoichiometry = C27H26Cl3OP2Re | MND = 6
 OpenBabel04212202113D

 60 64  0  0  0  0  0  0  0  0999 V2000
    1.5710    9.5622    3.5301 Re  0  0  0  0  0  0  0  0  0  0  0  0
    1.7012    8.2104    2.5689 O   0  0  0  0  0  1  0  0  0  0  0  0
   -0.8516    9.6216    3.2039 P   0  0  0  0  0  4  0  0  0  0  0  0
   -1.5379   11.1836    2.5973 C   0  0  0  0  0  0  0  0  0  0  0  0
   -1.7314   11.3636    1.2297 C   0  0  0  0  0  0  0  0  0  0  0  0
   -1.5156   10.5569    0.5447 H   0  0  0  0  0  0  0  0  0  0  0  0
   -2.1883   12.5760    0.7487 C   0  0  0  0  0  0  0  0  0  0  0  0
   -2.3318   12.7099   -0.3132 H   0  0  0  0  0  0  0  0  0  0  0  0
   -2.4486   13.6191    1.6221 C   0  0  0  0  0  0  0  0  0  0  0  0
   -2.7979   14.5680    1.2431 H   0  0  0  0  0  0  0  0  0  0  0  0
   -2.2480   13.4469    2.9814 C   0  0  0  0  0  0  0  0  0  0  0  0
   -2.4365   14.2625    3.6640 H   0  0  0  0  0  0  0  0  0  0  0  0
   -1.7917   12.2372    3.4719 C   0  0  0  0  0  0  0  0  0  0  0  0
   -1.6094   12.1271    4.5299 H   0  0  0  0  0  0  0  0  0  0  0  0
   -1.4075    8.3867    1.9935 C   0  0  0  0  0  0  0  0  0  0  0  0
   -2.5899    7.6646    2.1097 C   0  0  0  0  0  0  0  0  0  0  0  0
   -3.2397    7.8016    2.9609 H   0  0  0  0  0  0  0  0  0  0  0  0
   -2.9436    6.7568    1.1263 C   0  0  0  0  0  0  0  0  0  0  0  0
   -3.8606    6.1943    1.2241 H   0  0  0  0  0  0  0  0  0  0  0  0
   -2.1291    6.5680    0.0226 C   0  0  0  0  0  0  0  0  0  0  0  0
   -2.4108    5.8572   -0.7400 H   0  0  0  0  0  0  0  0  0  0  0  0
   -0.9516    7.2885   -0.1001 C   0  0  0  0  0  0  0  0  0  0  0  0
   -0.3131    7.1422   -0.9581 H   0  0  0  0  0  0  0  0  0  0  0  0
   -0.5896    8.1922    0.8812 C   0  0  0  0  0  0  0  0  0  0  0  0
    0.3387    8.7454    0.8043 H   0  0  0  0  0  0  0  0  0  0  0  0
   -1.7752    9.2751    4.7566 C   0  0  0  0  0  0  0  0  0  0  0  0
   -1.6084   10.1156    5.4332 H   0  0  0  0  0  0  0  0  0  0  0  0
   -2.8392    9.2568    4.5037 H   0  0  0  0  0  0  0  0  0  0  0  0
   -1.3416    7.9674    5.4276 C   0  0  0  0  0  0  0  0  0  0  0  0
   -1.0991    7.2265    4.6579 H   0  0  0  0  0  0  0  0  0  0  0  0
   -2.1802    7.5813    6.0132 H   0  0  0  0  0  0  0  0  0  0  0  0
   -0.1397    8.1489    6.3618 C   0  0  0  0  0  0  0  0  0  0  0  0
   -0.1174    7.3717    7.1317 H   0  0  0  0  0  0  0  0  0  0  0  0
   -0.1935    9.1152    6.8694 H   0  0  0  0  0  0  0  0  0  0  0  0
    1.4778    8.0868    5.4869 P   0  0  0  0  0  4  0  0  0  0  0  0
    1.7331    6.3664    4.9760 C   0  0  0  0  0  0  0  0  0  0  0  0
    0.9486    5.2968    5.3899 C   0  0  0  0  0  0  0  0  0  0  0  0
    0.1206    5.4468    6.0664 H   0  0  0  0  0  0  0  0  0  0  0  0
    1.2282    4.0203    4.9311 C   0  0  0  0  0  0  0  0  0  0  0  0
    0.6135    3.1918    5.2515 H   0  0  0  0  0  0  0  0  0  0  0  0
    2.2863    3.8041    4.0651 C   0  0  0  0  0  0  0  0  0  0  0  0
    2.4960    2.8063    3.7094 H   0  0  0  0  0  0  0  0  0  0  0  0
    3.0734    4.8684    3.6520 C   0  0  0  0  0  0  0  0  0  0  0  0
    3.8977    4.7021    2.9751 H   0  0  0  0  0  0  0  0  0  0  0  0
    2.7982    6.1452    4.1021 C   0  0  0  0  0  0  0  0  0  0  0  0
    3.3967    6.9877    3.7774 H   0  0  0  0  0  0  0  0  0  0  0  0
    2.6869    8.3655    6.8072 C   0  0  0  0  0  0  0  0  0  0  0  0
    3.7017    7.4475    7.0606 C   0  0  0  0  0  0  0  0  0  0  0  0
    3.7655    6.5368    6.4832 H   0  0  0  0  0  0  0  0  0  0  0  0
    4.6332    7.7044    8.0502 C   0  0  0  0  0  0  0  0  0  0  0  0
    5.4192    6.9888    8.2418 H   0  0  0  0  0  0  0  0  0  0  0  0
    4.5670    8.8761    8.7849 C   0  0  0  0  0  0  0  0  0  0  0  0
    5.3022    9.0769    9.5499 H   0  0  0  0  0  0  0  0  0  0  0  0
    3.5625    9.7955    8.5296 C   0  0  0  0  0  0  0  0  0  0  0  0
    3.5153   10.7161    9.0920 H   0  0  0  0  0  0  0  0  0  0  0  0
    2.6241    9.5448    7.5467 C   0  0  0  0  0  0  0  0  0  0  0  0
    1.8599   10.2772    7.3329 H   0  0  0  0  0  0  0  0  0  0  0  0
    0.9690   11.1551    5.0534 Cl  0  0  0  0  0  0  0  0  0  0  0  0
    1.7149   11.2154    1.8970 Cl  0  0  0  0  0  0  0  0  0  0  0  0
    3.8013    9.9226    4.0706 Cl  0  0  0  0  0  0  0  0  0  0  0  0
  1 60  1  0  0  0  0
  1 58  1  0  0  0  0
  1 35  1  0  0  0  0
  2  1  1  0  0  0  0
  3  1  1  0  0  0  0
  3 26  1  0  0  0  0
  4  3  1  0  0  0  0
  4 13  1  0  0  0  0
  5  4  2  0  0  0  0
  6  5  1  0  0  0  0
  7  5  1  0  0  0  0
  7  9  2  0  0  0  0
  8  7  1  0  0  0  0
  9 11  1  0  0  0  0
 10  9  1  0  0  0  0
 11 13  2  0  0  0  0
 11 12  1  0  0  0  0
 13 14  1  0  0  0  0
 15 16  1  0  0  0  0
 15  3  1  0  0  0  0
 16 17  1  0  0  0  0
 18 19  1  0  0  0  0
 18 16  2  0  0  0  0
 20 18  1  0  0  0  0
 21 20  1  0  0  0  0
 22 20  2  0  0  0  0
 22 24  1  0  0  0  0
 23 22  1  0  0  0  0
 24 15  2  0  0  0  0
 25 24  1  0  0  0  0
 26 29  1  0  0  0  0
 26 27  1  0  0  0  0
 28 26  1  0  0  0  0
 29 31  1  0  0  0  0
 29 32  1  0  0  0  0
 30 29  1  0  0  0  0
 32 34  1  0  0  0  0
 32 33  1  0  0  0  0
 35 32  1  0  0  0  0
 35 47  1  0  0  0  0
 36 37  1  0  0  0  0
 36 35  1  0  0  0  0
 37 38  1  0  0  0  0
 39 40  1  0  0  0  0
 39 37  2  0  0  0  0
 41 39  1  0  0  0  0
 42 41  1  0  0  0  0
 43 41  2  0  0  0  0
 43 45  1  0  0  0  0
 44 43  1  0  0  0  0
 45 36  2  0  0  0  0
 46 45  1  0  0  0  0
 47 48  2  0  0  0  0
 47 56  1  0  0  0  0
 48 50  1  0  0  0  0
 49 48  1  0  0  0  0
 50 51  1  0  0  0  0
 50 52  2  0  0  0  0
 52 53  1  0  0  0  0
 54 52  1  0  0  0  0
 54 55  1  0  0  0  0
 56 54  2  0  0  0  0
 57 56  1  0  0  0  0
 59  1  1  0  0  0  0
M  END
$$$$
