CSD_code = WOBWEP | q = 0 | S = 0 | Stoichiometry = C8H18I2N2O2Pt | MND = 4
 OpenBabel04212202113D

 33 34  0  0  0  0  0  0  0  0999 V2000
    7.7672    4.2678    4.6729 Pt  0  0  0  0  0  0  0  0  0  0  0  0
    7.5259    2.0259    5.8969 I   0  0  0  0  0  0  0  0  0  0  0  0
    7.0081    5.6542    6.7096 I   0  0  0  0  0  0  0  0  0  0  0  0
    7.7889    6.0666    2.2485 O   0  0  0  0  0  0  0  0  0  0  0  0
    9.7228    3.7948    2.7648 O   0  0  0  0  0  0  0  0  0  0  0  0
    8.0300    6.1468    3.6388 N   0  0  0  0  0  4  0  0  0  0  0  0
    8.3887    3.3470    2.8530 N   0  0  0  0  0  4  0  0  0  0  0  0
    7.7688    7.3446    1.6336 C   0  0  0  0  0  0  0  0  0  0  0  0
    9.1048    8.0627    1.8098 C   0  0  0  0  0  0  0  0  0  0  0  0
    9.4216    8.1481    3.3029 C   0  0  0  0  0  0  0  0  0  0  0  0
    9.3349    6.7473    3.9087 C   0  0  0  0  0  0  0  0  0  0  0  0
   10.2487    3.6692    1.4561 C   0  0  0  0  0  0  0  0  0  0  0  0
   10.2305    2.2169    0.9856 C   0  0  0  0  0  0  0  0  0  0  0  0
    8.8024    1.6840    1.0984 C   0  0  0  0  0  0  0  0  0  0  0  0
    8.3027    1.9276    2.5215 C   0  0  0  0  0  0  0  0  0  0  0  0
    7.3103    6.7640    4.0419 H   0  0  0  0  0  0  0  0  0  0  0  0
    7.8503    3.8685    2.1469 H   0  0  0  0  0  0  0  0  0  0  0  0
    7.5470    7.1471    0.5832 H   0  0  0  0  0  0  0  0  0  0  0  0
    6.9526    7.9445    2.0628 H   0  0  0  0  0  0  0  0  0  0  0  0
    9.8880    7.4974    1.2995 H   0  0  0  0  0  0  0  0  0  0  0  0
    9.0477    9.0545    1.3623 H   0  0  0  0  0  0  0  0  0  0  0  0
   10.4185    8.5578    3.4624 H   0  0  0  0  0  0  0  0  0  0  0  0
    8.7021    8.8061    3.7981 H   0  0  0  0  0  0  0  0  0  0  0  0
    9.4719    6.7835    4.9925 H   0  0  0  0  0  0  0  0  0  0  0  0
   10.0984    6.0942    3.4774 H   0  0  0  0  0  0  0  0  0  0  0  0
    9.6660    4.3010    0.7655 H   0  0  0  0  0  0  0  0  0  0  0  0
   11.2666    4.0579    1.5231 H   0  0  0  0  0  0  0  0  0  0  0  0
   10.5945    2.1583   -0.0401 H   0  0  0  0  0  0  0  0  0  0  0  0
   10.8911    1.6273    1.6236 H   0  0  0  0  0  0  0  0  0  0  0  0
    8.1540    2.1986    0.3822 H   0  0  0  0  0  0  0  0  0  0  0  0
    8.7710    0.6178    0.8764 H   0  0  0  0  0  0  0  0  0  0  0  0
    8.9193    1.3774    3.2363 H   0  0  0  0  0  0  0  0  0  0  0  0
    7.2647    1.6108    2.6414 H   0  0  0  0  0  0  0  0  0  0  0  0
  1  2  1  0  0  0  0
  1  3  1  0  0  0  0
  4  6  1  0  0  0  0
  5  7  1  0  0  0  0
  6 11  1  0  0  0  0
  6 16  1  0  0  0  0
  6  1  1  0  0  0  0
  7  1  1  0  0  0  0
  8  9  1  0  0  0  0
  8 19  1  0  0  0  0
  8  4  1  0  0  0  0
  9 10  1  0  0  0  0
 10 22  1  0  0  0  0
 10 23  1  0  0  0  0
 10 11  1  0  0  0  0
 11 24  1  0  0  0  0
 12 27  1  0  0  0  0
 12  5  1  0  0  0  0
 13 14  1  0  0  0  0
 13 12  1  0  0  0  0
 13 29  1  0  0  0  0
 14 15  1  0  0  0  0
 15 33  1  0  0  0  0
 15  7  1  0  0  0  0
 15 32  1  0  0  0  0
 17  7  1  0  0  0  0
 18  8  1  0  0  0  0
 20  9  1  0  0  0  0
 21  9  1  0  0  0  0
 25 11  1  0  0  0  0
 26 12  1  0  0  0  0
 28 13  1  0  0  0  0
 30 14  1  0  0  0  0
 31 14  1  0  0  0  0
M  END
$$$$
