CSD_code = WOCPOW | q = 0 | S = 0 | Stoichiometry = C17H18AuBrN2O | MND = 2
 OpenBabel04212202113D

 40 42  0  0  1  0  0  0  0  0999 V2000
    0.5525    1.4530    5.0313 Au  0  0  0  0  0  0  0  0  0  0  0  0
   -0.6315    1.3712    2.9935 Br  0  0  0  0  0  0  0  0  0  0  0  0
   -0.6237    3.4696    9.4842 O   0  0  0  0  0  0  0  0  0  0  0  0
    2.7615    0.9959    8.5805 C   0  0  0  0  0  0  0  0  0  0  0  0
   -0.7304    3.5818    8.0857 C   0  0  0  0  0  0  0  0  0  0  0  0
   -1.3446    4.4533    7.8131 H   0  0  0  0  0  0  0  0  0  0  0  0
   -1.2038    2.6822    7.6612 H   0  0  0  0  0  0  0  0  0  0  0  0
    3.2655    2.3434   10.9131 C   0  0  0  0  0  0  0  0  0  0  0  0
    3.4769    2.8473   11.8437 H   0  0  0  0  0  0  0  0  0  0  0  0
    2.1999    2.2626    8.8101 C   0  0  0  0  0  0  0  0  0  0  0  0
    4.7072    0.4095    5.6673 C   0  0  0  0  0  0  0  0  0  0  0  0
    4.0745    1.2294    5.3569 H   0  0  0  0  0  0  0  0  0  0  0  0
    2.6853   -0.6442    6.7092 C   0  0  0  0  0  0  0  0  0  0  0  0
    2.0869   -0.7382    5.7958 H   0  0  0  0  0  0  0  0  0  0  0  0
    2.4418   -1.4783    7.3750 H   0  0  0  0  0  0  0  0  0  0  0  0
    0.6736    3.7485    7.5019 C   0  0  0  0  0  0  0  0  0  0  0  0
    0.5918    3.9499    6.4309 H   0  0  0  0  0  0  0  0  0  0  0  0
    1.1736    4.5826    7.9981 H   0  0  0  0  0  0  0  0  0  0  0  0
    2.4421    2.9534    9.9876 C   0  0  0  0  0  0  0  0  0  0  0  0
    1.9902    3.9122   10.1794 H   0  0  0  0  0  0  0  0  0  0  0  0
    6.8632   -0.6360    5.7468 C   0  0  0  0  0  0  0  0  0  0  0  0
    7.9153   -0.6291    5.5053 H   0  0  0  0  0  0  0  0  0  0  0  0
    6.3184   -1.7013    6.4422 C   0  0  0  0  0  0  0  0  0  0  0  0
    6.9438   -2.5280    6.7442 H   0  0  0  0  0  0  0  0  0  0  0  0
    6.0549    0.4193    5.3587 C   0  0  0  0  0  0  0  0  0  0  0  0
    6.4737    1.2499    4.8109 H   0  0  0  0  0  0  0  0  0  0  0  0
    4.1558   -0.6543    6.3699 C   0  0  0  0  0  0  0  0  0  0  0  0
    4.9701   -1.7090    6.7555 C   0  0  0  0  0  0  0  0  0  0  0  0
    4.5475   -2.5441    7.2962 H   0  0  0  0  0  0  0  0  0  0  0  0
   -1.8630    3.2807   10.1187 C   0  0  0  0  0  0  0  0  0  0  0  0
   -2.5334    4.1296    9.9394 H   0  0  0  0  0  0  0  0  0  0  0  0
   -1.6557    3.1973   11.1831 H   0  0  0  0  0  0  0  0  0  0  0  0
   -2.3530    2.3650    9.7673 H   0  0  0  0  0  0  0  0  0  0  0  0
    3.5927    0.3927    9.5124 C   0  0  0  0  0  0  0  0  0  0  0  0
    4.0355   -0.5732    9.3308 H   0  0  0  0  0  0  0  0  0  0  0  0
    1.4620    2.5603    7.6855 N   0  0  0  0  0  0  0  0  0  0  0  0
    2.3081    0.5931    7.3437 N   0  0  0  0  0  0  0  0  0  0  0  0
    3.8336    1.0908   10.6791 C   0  0  0  0  0  0  0  0  0  0  0  0
    4.4748    0.6568   11.4308 H   0  0  0  0  0  0  0  0  0  0  0  0
    1.5250    1.5436    6.8026 C   0  0  1  0  0  3  0  0  0  0  0  0
  2  1  1  0  0  0  0
  3 30  1  0  0  0  0
  4 10  2  0  0  0  0
  4 34  1  0  0  0  0
  5  3  1  0  0  0  0
  6  5  1  0  0  0  0
  7  5  1  0  0  0  0
  8  9  1  0  0  0  0
 10 19  1  0  0  0  0
 11 27  1  0  0  0  0
 12 11  1  0  0  0  0
 13 37  1  0  0  0  0
 13 15  1  0  0  0  0
 14 13  1  0  0  0  0
 16 36  1  0  0  0  0
 16 18  1  0  0  0  0
 16  5  1  0  0  0  0
 17 16  1  0  0  0  0
 19 20  1  0  0  0  0
 19  8  2  0  0  0  0
 21 23  2  0  0  0  0
 22 21  1  0  0  0  0
 23 24  1  0  0  0  0
 23 28  1  0  0  0  0
 25 11  2  0  0  0  0
 25 21  1  0  0  0  0
 26 25  1  0  0  0  0
 27 13  1  0  0  0  0
 27 28  2  0  0  0  0
 28 29  1  0  0  0  0
 30 32  1  0  0  0  0
 31 30  1  0  0  0  0
 33 30  1  0  0  0  0
 34 38  2  0  0  0  0
 35 34  1  0  0  0  0
 36 10  1  0  0  0  0
 37  4  1  0  0  0  0
 38  8  1  0  0  0  0
 38 39  1  0  0  0  0
 40  1  1  1  0  0  0
 40 37  1  0  0  0  0
 40 36  1  0  0  0  0
M  END
$$$$
