CSD_code = WODGIH | q = 0 | S = 0 | Stoichiometry = C22H17ClN2O3Pt | MND = 6
 OpenBabel04212202113D

 46 51  0  0  1  0  0  0  0  0999 V2000
    0.4204    1.8334    1.7495 C   0  0  0  0  0  0  0  0  0  0  0  0
    0.9169    0.4236    1.8235 C   0  0  0  0  0  0  0  0  0  0  0  0
    0.5808   -0.1343    0.9506 H   0  0  0  0  0  0  0  0  0  0  0  0
    0.5299   -0.0362    2.7329 H   0  0  0  0  0  0  0  0  0  0  0  0
    2.0047    0.4204    1.8771 H   0  0  0  0  0  0  0  0  0  0  0  0
    1.6689    4.3760    2.1402 C   0  0  0  0  0  0  0  0  0  0  0  0
    0.6525    5.2705    1.5233 C   0  0  0  0  0  0  0  0  0  0  0  0
    1.0063    6.1963    0.5650 C   0  0  0  0  0  0  0  0  0  0  0  0
    2.0487    6.2947    0.2993 H   0  0  0  0  0  0  0  0  0  0  0  0
    0.0367    6.9880   -0.0624 C   0  0  0  0  0  0  0  0  0  0  0  0
    0.3437    7.7048   -0.8092 H   0  0  0  0  0  0  0  0  0  0  0  0
   -1.2881    6.8511    0.2559 C   0  0  0  0  0  3  0  0  0  0  0  0
   -2.0399    7.4521   -0.2349 H   0  0  0  0  0  0  0  0  0  0  0  0
   -1.6988    5.9117    1.2248 C   0  0  0  0  0  0  0  0  0  0  0  0
   -3.0466    5.6992    1.5851 C   0  0  0  0  0  0  0  0  0  0  0  0
   -3.8194    6.2847    1.1076 H   0  0  0  0  0  0  0  0  0  0  0  0
   -3.3521    4.7504    2.5237 C   0  0  0  0  0  0  0  0  0  0  0  0
   -4.3720    4.5544    2.8144 H   0  0  0  0  0  0  0  0  0  0  0  0
   -2.3105    4.0151    3.1124 C   0  0  0  0  0  0  0  0  0  0  0  0
   -2.5105    3.2510    3.8541 H   0  0  0  0  0  0  0  0  0  0  0  0
   -0.7164    5.1177    1.8688 C   0  0  0  0  0  0  0  0  0  0  0  0
    2.6080    2.1976    3.8848 C   0  0  2  0  0  0  0  0  0  0  0  0
    2.3847    1.2087    4.3212 H   0  0  0  0  0  0  0  0  0  0  0  0
    3.2018    3.0668    4.9714 C   0  0  0  0  0  0  0  0  0  0  0  0
    4.5111    2.8910    5.3552 C   0  0  0  0  0  0  0  0  0  0  0  0
    5.1137    2.1642    4.8309 H   0  0  0  0  0  0  0  0  0  0  0  0
    5.0619    3.6154    6.4202 C   0  0  0  0  0  0  0  0  0  0  0  0
    6.0916    3.4433    6.6956 H   0  0  0  0  0  0  0  0  0  0  0  0
    4.3017    4.5092    7.1234 C   0  0  0  0  0  0  0  0  0  0  0  0
    4.7100    5.0480    7.9657 H   0  0  0  0  0  0  0  0  0  0  0  0
    2.9646    4.7465    6.7489 C   0  0  0  0  0  0  0  0  0  0  0  0
    2.1267    5.6669    7.4105 C   0  0  0  0  0  0  0  0  0  0  0  0
    2.5067    6.2076    8.2657 H   0  0  0  0  0  0  0  0  0  0  0  0
    0.8503    5.8632    6.9567 C   0  0  0  0  0  0  0  0  0  0  0  0
    0.1785    6.5525    7.4435 H   0  0  0  0  0  0  0  0  0  0  0  0
    0.4217    5.1657    5.8177 C   0  0  0  0  0  0  0  0  0  0  0  0
   -0.5708    5.3322    5.4182 H   0  0  0  0  0  0  0  0  0  0  0  0
    2.4220    4.0412    5.6407 C   0  0  1  0  0  3  0  0  0  0  0  0
   -1.0551    4.2035    2.8025 N   0  0  0  0  0  0  0  0  0  0  0  0
    1.1743    4.3025    5.1865 N   0  0  0  0  0  0  0  0  0  0  0  0
   -0.2529    2.2746    0.8595 O   0  0  0  0  0  0  0  0  0  0  0  0
    2.8581    4.5064    1.9336 O   0  0  0  0  0  0  0  0  0  0  0  0
    3.5097    1.9715    2.8483 O   0  0  0  0  0  0  0  0  0  0  0  0
    3.7159    2.8318    2.4362 H   0  0  0  0  0  0  0  0  0  0  0  0
   -0.5053    1.5767    4.8193 Cl  0  0  0  0  0  0  0  0  0  0  0  0
    0.7931    3.0287    3.3378 Pt  0  0  0  0  0  0  0  0  0  0  0  0
  1  2  1  0  0  0  0
  1 46  1  0  0  0  0
  2  5  1  0  0  0  0
  2  4  1  0  0  0  0
  3  2  1  0  0  0  0
  6 46  1  0  0  0  0
  7 21  2  0  0  0  0
  7  6  1  0  0  0  0
  8  7  1  0  0  0  0
  9  8  1  0  0  0  0
 10 12  1  0  0  0  0
 10  8  2  0  0  0  0
 11 10  1  0  0  0  0
 12 14  1  0  0  0  0
 13 12  1  0  0  0  0
 14 15  2  0  0  0  0
 14 21  1  0  0  0  0
 15 17  1  0  0  0  0
 16 15  1  0  0  0  0
 17 18  1  0  0  0  0
 17 19  2  0  0  0  0
 19 20  1  0  0  0  0
 21 39  1  0  0  0  0
 22 23  1  1  0  0  0
 22 24  1  0  0  0  0
 24 25  2  0  0  0  0
 25 27  1  0  0  0  0
 26 25  1  0  0  0  0
 27 28  1  0  0  0  0
 27 29  2  0  0  0  0
 29 30  1  0  0  0  0
 31 29  1  0  0  0  0
 31 32  2  0  0  0  0
 32 33  1  0  0  0  0
 34 32  1  0  0  0  0
 34 35  1  0  0  0  0
 36 34  2  0  0  0  0
 37 36  1  0  0  0  0
 38 24  1  6  0  0  0
 38 31  1  0  0  0  0
 39 19  1  0  0  0  0
 39 46  1  0  0  0  0
 40 38  1  0  0  0  0
 40 36  1  0  0  0  0
 41  1  2  0  0  0  0
 42  6  2  0  0  0  0
 43 22  1  0  0  0  0
 44 43  1  0  0  0  0
 46 22  1  0  0  0  0
 46 45  1  0  0  0  0
 46 40  1  0  0  0  0
M  END
$$$$
