CSD_code = WODQIP | q = 1 | S = 0 | Stoichiometry = C27H35ClN3Pt(1+) | MND = 4
 OpenBabel04212202113D

 67 71  0  0  0  0  0  0  0  0999 V2000
    1.8088    1.4280    6.1956 Pt  0  0  1  0  0  0  0  0  0  0  0  0
    2.9444    0.1405    4.7851 Cl  0  0  0  0  0  0  0  0  0  0  0  0
    2.0721    0.3373    7.8515 N   0  0  0  0  0  0  0  0  0  0  0  0
    0.8414    2.5271    7.3984 N   0  0  0  0  0  0  0  0  0  0  0  0
    1.2556    2.8482    4.9000 N   0  0  0  0  0  0  0  0  0  0  0  0
    2.7357   -0.8059    8.0023 C   0  0  0  0  0  3  0  0  0  0  0  0
    2.8314   -1.4559    9.2162 C   0  0  0  0  0  0  0  0  0  0  0  0
    2.2203   -0.9241   10.3541 C   0  0  0  0  0  0  0  0  0  0  0  0
    1.5313    0.2747   10.1814 C   0  0  0  0  0  0  0  0  0  0  0  0
    1.4659    0.8875    8.9380 C   0  0  0  0  0  0  0  0  0  0  0  0
    0.7565    2.1501    8.6823 C   0  0  0  0  0  0  0  0  0  0  0  0
    0.0527    2.9414    9.5774 C   0  0  0  0  0  0  0  0  0  0  0  0
   -0.5613    4.1209    9.1407 C   0  0  0  0  0  0  0  0  0  0  0  0
   -0.4412    4.4651    7.7931 C   0  0  0  0  0  0  0  0  0  0  0  0
    0.2734    3.6446    6.9287 C   0  0  0  0  0  0  0  0  0  0  0  0
    0.5154    3.8286    5.4901 C   0  0  0  0  0  0  0  0  0  0  0  0
    0.0457    4.9041    4.7547 C   0  0  0  0  0  0  0  0  0  0  0  0
    0.3144    5.0174    3.3889 C   0  0  0  0  0  0  0  0  0  0  0  0
    1.0710    3.9942    2.8210 C   0  0  0  0  0  0  0  0  0  0  0  0
    1.5164    2.9420    3.6010 C   0  0  0  0  0  0  0  0  0  0  0  0
    2.3230   -1.6380   11.6832 C   0  0  0  0  0  0  0  0  0  0  0  0
    1.7271   -3.0457   11.5300 C   0  0  0  0  0  0  0  0  0  0  0  0
    3.8067   -1.7382   12.0690 C   0  0  0  0  0  0  0  0  0  0  0  0
    1.5744   -0.9098   12.8016 C   0  0  0  0  0  0  0  0  0  0  0  0
   -1.3259    4.9727   10.1347 C   0  0  0  0  0  0  0  0  0  0  0  0
   -2.4649    4.1318   10.7309 C   0  0  0  0  0  0  0  0  0  0  0  0
   -0.3633    5.4162   11.2467 C   0  0  0  0  0  0  0  0  0  0  0  0
   -1.9325    6.2229    9.4936 C   0  0  0  0  0  0  0  0  0  0  0  0
   -0.2009    6.2058    2.6076 C   0  0  0  0  0  0  0  0  0  0  0  0
    0.4010    7.4839    3.2118 C   0  0  0  0  0  0  0  0  0  0  0  0
   -1.7327    6.2453    2.7165 C   0  0  0  0  0  0  0  0  0  0  0  0
    0.1812    6.1379    1.1278 C   0  0  0  0  0  0  0  0  0  0  0  0
    3.2036   -1.2075    7.1124 H   0  0  0  0  0  0  0  0  0  0  0  0
    3.3852   -2.3785    9.2636 H   0  0  0  0  0  0  0  0  0  0  0  0
    1.0371    0.7440   11.0141 H   0  0  0  0  0  0  0  0  0  0  0  0
   -0.0202    2.6457   10.6100 H   0  0  0  0  0  0  0  0  0  0  0  0
   -0.8985    5.3625    7.4169 H   0  0  0  0  0  0  0  0  0  0  0  0
   -0.5348    5.6609    5.2555 H   0  0  0  0  0  0  0  0  0  0  0  0
    1.3245    3.9990    1.7753 H   0  0  0  0  0  0  0  0  0  0  0  0
    2.1063    2.1412    3.1731 H   0  0  0  0  0  0  0  0  0  0  0  0
    0.6857   -2.9879   11.2210 H   0  0  0  0  0  0  0  0  0  0  0  0
    2.2711   -3.6354   10.7983 H   0  0  0  0  0  0  0  0  0  0  0  0
    1.7729   -3.5654   12.4830 H   0  0  0  0  0  0  0  0  0  0  0  0
    3.8997   -2.2405   13.0280 H   0  0  0  0  0  0  0  0  0  0  0  0
    4.3750   -2.3026   11.3356 H   0  0  0  0  0  0  0  0  0  0  0  0
    4.2462   -0.7471   12.1572 H   0  0  0  0  0  0  0  0  0  0  0  0
    1.9826    0.0844   12.9695 H   0  0  0  0  0  0  0  0  0  0  0  0
    0.5115   -0.8354   12.5823 H   0  0  0  0  0  0  0  0  0  0  0  0
    1.6820   -1.4703   13.7264 H   0  0  0  0  0  0  0  0  0  0  0  0
   -3.0421    4.7392   11.4223 H   0  0  0  0  0  0  0  0  0  0  0  0
   -3.1310    3.7811    9.9456 H   0  0  0  0  0  0  0  0  0  0  0  0
   -2.0897    3.2693   11.2742 H   0  0  0  0  0  0  0  0  0  0  0  0
    0.0431    4.5693   11.7921 H   0  0  0  0  0  0  0  0  0  0  0  0
    0.4639    5.9862   10.8295 H   0  0  0  0  0  0  0  0  0  0  0  0
   -0.8916    6.0491   11.9543 H   0  0  0  0  0  0  0  0  0  0  0  0
   -1.1619    6.8685    9.0785 H   0  0  0  0  0  0  0  0  0  0  0  0
   -2.6480    5.9621    8.7171 H   0  0  0  0  0  0  0  0  0  0  0  0
   -2.4633    6.7906   10.2531 H   0  0  0  0  0  0  0  0  0  0  0  0
    1.4873    7.4494    3.1696 H   0  0  0  0  0  0  0  0  0  0  0  0
    0.0644    8.3472    2.6445 H   0  0  0  0  0  0  0  0  0  0  0  0
    0.1004    7.6220    4.2468 H   0  0  0  0  0  0  0  0  0  0  0  0
   -2.1165    7.0775    2.1329 H   0  0  0  0  0  0  0  0  0  0  0  0
   -2.1654    5.3266    2.3271 H   0  0  0  0  0  0  0  0  0  0  0  0
   -2.0630    6.3744    3.7435 H   0  0  0  0  0  0  0  0  0  0  0  0
    1.2606    6.1443    0.9980 H   0  0  0  0  0  0  0  0  0  0  0  0
   -0.2346    5.2524    0.6533 H   0  0  0  0  0  0  0  0  0  0  0  0
   -0.2190    7.0080    0.6142 H   0  0  0  0  0  0  0  0  0  0  0  0
  1  2  1  1  0  0  0
  1  4  1  0  0  0  0
  1  3  1  0  0  0  0
  3  6  1  0  0  0  0
  3 10  1  0  0  0  0
  4 11  1  0  0  0  0
  5 16  1  0  0  0  0
  5  1  1  0  0  0  0
  6  7  1  0  0  0  0
  7 34  1  0  0  0  0
  7  8  2  0  0  0  0
  8 21  1  0  0  0  0
  9  8  1  0  0  0  0
  9 35  1  0  0  0  0
 10  9  2  0  0  0  0
 11 10  1  0  0  0  0
 11 12  2  0  0  0  0
 12 36  1  0  0  0  0
 13 12  1  0  0  0  0
 13 25  1  0  0  0  0
 14 13  2  0  0  0  0
 15  4  1  0  0  0  0
 15 14  1  0  0  0  0
 16 15  2  0  0  0  0
 17 38  1  0  0  0  0
 17 16  1  0  0  0  0
 18 17  2  0  0  0  0
 19 18  1  0  0  0  0
 19 20  2  0  0  0  0
 20  5  1  0  0  0  0
 21 23  1  0  0  0  0
 21 24  1  0  0  0  0
 22 21  1  0  0  0  0
 22 43  1  0  0  0  0
 23 46  1  0  0  0  0
 23 44  1  0  0  0  0
 24 47  1  0  0  0  0
 24 49  1  0  0  0  0
 25 26  1  0  0  0  0
 25 27  1  0  0  0  0
 26 52  1  0  0  0  0
 26 50  1  0  0  0  0
 27 53  1  0  0  0  0
 27 55  1  0  0  0  0
 28 25  1  0  0  0  0
 28 58  1  0  0  0  0
 29 31  1  0  0  0  0
 29 30  1  0  0  0  0
 29 18  1  0  0  0  0
 30 61  1  0  0  0  0
 31 64  1  0  0  0  0
 32 29  1  0  0  0  0
 33  6  1  0  0  0  0
 37 14  1  0  0  0  0
 39 19  1  0  0  0  0
 40 20  1  0  0  0  0
 41 22  1  0  0  0  0
 42 22  1  0  0  0  0
 45 23  1  0  0  0  0
 48 24  1  0  0  0  0
 51 26  1  0  0  0  0
 54 27  1  0  0  0  0
 56 28  1  0  0  0  0
 57 28  1  0  0  0  0
 59 30  1  0  0  0  0
 60 30  1  0  0  0  0
 62 31  1  0  0  0  0
 63 31  1  0  0  0  0
 65 32  1  0  0  0  0
 66 32  1  0  0  0  0
 67 32  1  0  0  0  0
M  END
$$$$
