CSD_code = WOFMEL | q = 1 | S = 0 | Stoichiometry = C23H19ClN3O2RuS2(1+) | MND = 6
 OpenBabel04212202113D

 51 55  0  0  1  0  0  0  0  0999 V2000
    2.7057    3.8004    0.5233 Ru  0  0  0  0  0  0  0  0  0  0  0  0
    4.4790    2.6240   -0.4510 Cl  0  0  0  0  0  0  0  0  0  0  0  0
    3.6257    3.5646    2.7826 S   0  0  0  0  0  0  0  0  0  0  0  0
    1.5810    3.4999   -1.6178 S   0  0  0  0  0  0  0  0  0  0  0  0
    4.3077    6.2026   -0.3137 O   0  0  0  0  0  1  0  0  0  0  0  0
    0.4027    5.2402    1.8023 O   0  0  0  0  0  1  0  0  0  0  0  0
    2.0586    1.9457    0.8782 N   0  0  0  0  0  0  0  0  0  0  0  0
    2.4141    1.9580    4.4495 N   0  0  0  0  0  0  0  0  0  0  0  0
    1.9423    1.0936   -2.6016 N   0  0  0  0  0  0  0  0  0  0  0  0
    3.6345    5.3664    0.0371 C   0  0  0  0  0  2  0  0  0  0  0  0
    1.2669    4.7055    1.2944 C   0  0  0  0  0  2  0  0  0  0  0  0
    2.6357    2.2555    3.1766 C   0  0  2  0  0  3  0  0  0  0  0  0
    1.8287    1.8231   -1.5072 C   0  0  2  0  0  3  0  0  0  0  0  0
    2.1282    1.3949    2.1025 C   0  0  2  0  0  3  0  0  0  0  0  0
    1.8421    0.0437    2.3078 C   0  0  0  0  0  0  0  0  0  0  0  0
    1.4902   -0.7428    1.2238 C   0  0  0  0  0  0  0  0  0  0  0  0
    1.4837   -0.1814   -0.0410 C   0  0  0  0  0  0  0  0  0  0  0  0
    1.7998    1.1714   -0.1901 C   0  0  0  0  0  0  0  0  0  0  0  0
    2.8223    2.8335    5.5304 C   0  0  0  0  0  0  0  0  0  0  0  0
    2.2048    4.2087    5.3808 C   0  0  0  0  0  0  0  0  0  0  0  0
    0.8479    4.3344    5.1059 C   0  0  0  0  0  0  0  0  0  0  0  0
    0.2787    5.5868    4.9617 C   0  0  0  0  0  0  0  0  0  0  0  0
    1.0595    6.7231    5.0931 C   0  0  0  0  0  0  0  0  0  0  0  0
    2.4097    6.6032    5.3745 C   0  0  0  0  0  0  0  0  0  0  0  0
    2.9828    5.3509    5.5117 C   0  0  0  0  0  0  0  0  0  0  0  0
    2.0927    1.6250   -3.9382 C   0  0  0  0  0  0  0  0  0  0  0  0
    3.2621    0.9626   -4.6191 C   0  0  0  0  0  0  0  0  0  0  0  0
    3.1168    0.3373   -5.8498 C   0  0  0  0  0  0  0  0  0  0  0  0
    4.2093   -0.2527   -6.4618 C   0  0  0  0  0  0  0  0  0  0  0  0
    5.4481   -0.2308   -5.8432 C   0  0  0  0  0  0  0  0  0  0  0  0
    5.5963    0.3875   -4.6122 C   0  0  0  0  0  0  0  0  0  0  0  0
    4.5087    0.9838   -4.0006 C   0  0  0  0  0  0  0  0  0  0  0  0
    1.8081    1.1827    4.6793 H   0  0  0  0  0  0  0  0  0  0  0  0
    2.1702    0.1095   -2.5160 H   0  0  0  0  0  0  0  0  0  0  0  0
    1.9258   -0.3967    3.2880 H   0  0  0  0  0  0  0  0  0  0  0  0
    1.2505   -1.7851    1.3601 H   0  0  0  0  0  0  0  0  0  0  0  0
    1.2259   -0.7863   -0.8949 H   0  0  0  0  0  0  0  0  0  0  0  0
    3.9126    2.9234    5.5237 H   0  0  0  0  0  0  0  0  0  0  0  0
    2.5124    2.3720    6.4696 H   0  0  0  0  0  0  0  0  0  0  0  0
    0.2294    3.4524    5.0097 H   0  0  0  0  0  0  0  0  0  0  0  0
   -0.7756    5.6748    4.7496 H   0  0  0  0  0  0  0  0  0  0  0  0
    0.6146    7.6991    4.9785 H   0  0  0  0  0  0  0  0  0  0  0  0
    3.0213    7.4853    5.4817 H   0  0  0  0  0  0  0  0  0  0  0  0
    4.0374    5.2601    5.7224 H   0  0  0  0  0  0  0  0  0  0  0  0
    2.2476    2.7065   -3.8571 H   0  0  0  0  0  0  0  0  0  0  0  0
    1.1692    1.4547   -4.4999 H   0  0  0  0  0  0  0  0  0  0  0  0
    2.1520    0.3214   -6.3351 H   0  0  0  0  0  0  0  0  0  0  0  0
    4.0920   -0.7300   -7.4224 H   0  0  0  0  0  0  0  0  0  0  0  0
    6.2982   -0.6917   -6.3216 H   0  0  0  0  0  0  0  0  0  0  0  0
    6.5610    0.4114   -4.1296 H   0  0  0  0  0  0  0  0  0  0  0  0
    4.6289    1.4769   -3.0465 H   0  0  0  0  0  0  0  0  0  0  0  0
  1  7  1  0  0  0  0
  1 11  1  0  0  0  0
  1  3  1  0  0  0  0
  2  1  1  0  0  0  0
  3 12  1  0  0  0  0
  4 13  1  0  0  0  0
  4  1  1  0  0  0  0
  5 10  1  0  0  0  0
  7 14  1  0  0  0  0
  8 33  1  0  0  0  0
  8 19  1  0  0  0  0
  9 34  1  0  0  0  0
 10  1  1  0  0  0  0
 11  6  1  0  0  0  0
 12  8  1  1  0  0  0
 13  9  1  6  0  0  0
 13 18  1  0  0  0  0
 14 15  1  6  0  0  0
 14 12  1  0  0  0  0
 15 35  1  0  0  0  0
 16 36  1  0  0  0  0
 16 15  2  0  0  0  0
 17 16  1  0  0  0  0
 18 17  2  0  0  0  0
 18  7  1  0  0  0  0
 19 39  1  0  0  0  0
 20 25  1  0  0  0  0
 20 19  1  0  0  0  0
 21 20  2  0  0  0  0
 22 23  2  0  0  0  0
 22 21  1  0  0  0  0
 23 24  1  0  0  0  0
 24 43  1  0  0  0  0
 24 25  2  0  0  0  0
 25 44  1  0  0  0  0
 26 45  1  0  0  0  0
 26  9  1  0  0  0  0
 27 32  1  0  0  0  0
 27 26  1  0  0  0  0
 28 27  2  0  0  0  0
 29 28  1  0  0  0  0
 29 30  2  0  0  0  0
 30 31  1  0  0  0  0
 31 50  1  0  0  0  0
 31 32  2  0  0  0  0
 32 51  1  0  0  0  0
 37 17  1  0  0  0  0
 38 19  1  0  0  0  0
 40 21  1  0  0  0  0
 41 22  1  0  0  0  0
 42 23  1  0  0  0  0
 46 26  1  0  0  0  0
 47 28  1  0  0  0  0
 48 29  1  0  0  0  0
 49 30  1  0  0  0  0
M  END
$$$$
