CSD_code = WOFQEP | q = 1 | S = 0 | Stoichiometry = C24H29ClIrSSe(1+) | MND = 8
 OpenBabel04212202113D

 57 58  0  0  1  0  0  0  0  0999 V2000
    9.2993    0.9913    0.6373 C   0  0  0  0  0  0  0  0  0  0  0  0
   10.1460    1.5189    1.6016 C   0  0  0  0  0  0  0  0  0  0  0  0
    9.9207    1.3950    2.6524 H   0  0  0  0  0  0  0  0  0  0  0  0
   11.2780    2.2111    1.2101 C   0  0  0  0  0  0  0  0  0  0  0  0
   11.9411    2.6193    1.9577 H   0  0  0  0  0  0  0  0  0  0  0  0
   11.5573    2.3846   -0.1372 C   0  0  0  0  0  0  0  0  0  0  0  0
   12.4406    2.9262   -0.4371 H   0  0  0  0  0  0  0  0  0  0  0  0
   10.7044    1.8642   -1.0969 C   0  0  0  0  0  0  0  0  0  0  0  0
   10.9219    1.9983   -2.1450 H   0  0  0  0  0  0  0  0  0  0  0  0
    9.5721    1.1664   -0.7123 C   0  0  0  0  0  0  0  0  0  0  0  0
    8.9022    0.7485   -1.4516 H   0  0  0  0  0  0  0  0  0  0  0  0
    8.4847   -1.2224    2.4321 C   0  0  0  0  0  0  0  0  0  0  0  0
    8.3131   -2.2226    2.0280 H   0  0  0  0  0  0  0  0  0  0  0  0
    9.5554   -1.0099    2.4287 H   0  0  0  0  0  0  0  0  0  0  0  0
    7.8993   -1.1286    3.8238 C   0  0  0  0  0  0  0  0  0  0  0  0
    8.5090   -1.6918    4.5317 H   0  0  0  0  0  0  0  0  0  0  0  0
    6.8689   -1.4855    3.8494 H   0  0  0  0  0  0  0  0  0  0  0  0
    6.9217    0.4759    5.9073 C   0  0  0  0  0  0  0  0  0  0  0  0
    5.5654    0.1975    5.8761 C   0  0  0  0  0  0  0  0  0  0  0  0
    5.0586    0.0538    4.9338 H   0  0  0  0  0  0  0  0  0  0  0  0
    4.8735    0.1052    7.0715 C   0  0  0  0  0  0  0  0  0  0  0  0
    3.8179   -0.1176    7.0569 H   0  0  0  0  0  0  0  0  0  0  0  0
    5.5297    0.2987    8.2769 C   0  0  0  0  0  0  0  0  0  0  0  0
    4.9839    0.2260    9.2045 H   0  0  0  0  0  0  0  0  0  0  0  0
    6.8852    0.5855    8.2937 C   0  0  0  0  0  0  0  0  0  0  0  0
    7.3975    0.7362    9.2309 H   0  0  0  0  0  0  0  0  0  0  0  0
    7.5896    0.6773    7.1055 C   0  0  0  0  0  0  0  0  0  0  0  0
    8.6459    0.8984    7.1062 H   0  0  0  0  0  0  0  0  0  0  0  0
    7.0895    3.7228    2.7472 C   0  0  1  0  0  0  0  0  0  0  0  0
    5.9893    3.4859    3.6670 C   0  0  0  0  0  0  0  0  0  0  0  0
    4.8444    3.1238    2.9076 C   0  0  0  0  0  0  0  0  0  0  0  0
    5.2385    3.0701    1.5212 C   0  0  2  0  0  0  0  0  0  0  0  0
    6.6079    3.5201    1.4287 C   0  0  1  0  0  3  0  0  0  0  0  0
    7.3261    3.8124    0.1582 C   0  0  0  0  0  0  0  0  0  0  0  0
    7.0746    3.0877   -0.6138 H   0  0  0  0  0  0  0  0  0  0  0  0
    8.4038    3.8139    0.2972 H   0  0  0  0  0  0  0  0  0  0  0  0
    7.0270    4.7988   -0.1989 H   0  0  0  0  0  0  0  0  0  0  0  0
    8.4087    4.3028    3.1280 C   0  0  0  0  0  0  0  0  0  0  0  0
    8.3125    5.3831    3.2424 H   0  0  0  0  0  0  0  0  0  0  0  0
    9.1586    4.1072    2.3659 H   0  0  0  0  0  0  0  0  0  0  0  0
    8.7590    3.8958    4.0737 H   0  0  0  0  0  0  0  0  0  0  0  0
    6.0191    3.7847    5.1271 C   0  0  0  0  0  0  0  0  0  0  0  0
    5.3332    3.1467    5.6800 H   0  0  0  0  0  0  0  0  0  0  0  0
    5.7185    4.8214    5.2844 H   0  0  0  0  0  0  0  0  0  0  0  0
    7.0174    3.6581    5.5382 H   0  0  0  0  0  0  0  0  0  0  0  0
    3.4564    2.9221    3.4078 C   0  0  0  0  0  0  0  0  0  0  0  0
    2.8319    3.7561    3.0866 H   0  0  0  0  0  0  0  0  0  0  0  0
    3.4306    2.8675    4.4921 H   0  0  0  0  0  0  0  0  0  0  0  0
    3.0255    2.0089    3.0021 H   0  0  0  0  0  0  0  0  0  0  0  0
    4.3052    2.8702    0.3785 C   0  0  0  0  0  0  0  0  0  0  0  0
    3.8152    3.8159    0.1418 H   0  0  0  0  0  0  0  0  0  0  0  0
    3.5341    2.1461    0.6294 H   0  0  0  0  0  0  0  0  0  0  0  0
    4.8315    2.5281   -0.5089 H   0  0  0  0  0  0  0  0  0  0  0  0
    5.0933   -0.3316    2.4730 Cl  0  0  0  0  0 15  0  0  0  0  0  0
    6.4651    1.6004    2.5988 Ir  0  0  0  0  0  0  0  0  0  0  0  0
    7.8781    0.6172    4.3974 S   0  0  0  0  0  0  0  0  0  0  0  0
    7.6860    0.0441    1.1250 Se  0  0  0  0  0  0  0  0  0  0  0  0
  1 57  1  0  0  0  0
  1  2  1  0  0  0  0
  2  3  1  0  0  0  0
  4  2  2  0  0  0  0
  4  5  1  0  0  0  0
  6  4  1  0  0  0  0
  7  6  1  0  0  0  0
  8 10  1  0  0  0  0
  8  6  2  0  0  0  0
  9  8  1  0  0  0  0
 10  1  2  0  0  0  0
 11 10  1  0  0  0  0
 12 15  1  0  0  0  0
 13 12  1  0  0  0  0
 14 12  1  0  0  0  0
 15 17  1  0  0  0  0
 15 56  1  0  0  0  0
 15 16  1  0  0  0  0
 18 27  1  0  0  0  0
 19 18  2  0  0  0  0
 19 21  1  0  0  0  0
 20 19  1  0  0  0  0
 21 23  2  0  0  0  0
 22 21  1  0  0  0  0
 23 25  1  0  0  0  0
 23 24  1  0  0  0  0
 25 26  1  0  0  0  0
 27 28  1  0  0  0  0
 27 25  2  0  0  0  0
 29 38  1  1  0  0  0
 29 30  1  0  0  0  0
 30 42  1  0  0  0  0
 31 46  1  0  0  0  0
 31 30  2  0  0  0  0
 32 50  1  6  0  0  0
 32 55  1  0  0  0  0
 32 31  1  0  0  0  0
 33 34  1  6  0  0  0
 33 32  1  0  0  0  0
 33 29  1  0  0  0  0
 34 36  1  0  0  0  0
 35 34  1  0  0  0  0
 37 34  1  0  0  0  0
 38 39  1  0  0  0  0
 38 41  1  0  0  0  0
 40 38  1  0  0  0  0
 42 44  1  0  0  0  0
 42 45  1  0  0  0  0
 42 43  1  0  0  0  0
 46 48  1  0  0  0  0
 47 46  1  0  0  0  0
 49 46  1  0  0  0  0
 50 52  1  0  0  0  0
 51 50  1  0  0  0  0
 53 50  1  0  0  0  0
 55 29  1  0  0  0  0
 56 18  1  0  0  0  0
 57 12  1  0  0  0  0
M  END
$$$$
