CSD_code = WOGCAX | q = 0 | S = 0 | Stoichiometry = C28H33Cl2N2OV | MND = 5
 OpenBabel04212202113D

 67 70  0  0  0  0  0  0  0  0999 V2000
    3.1676   -0.4949   14.1316 V   0  0  0  0  0  0  0  0  0  0  0  0
    4.1769   -2.2553   14.5765 Cl  0  0  0  0  0  0  0  0  0  0  0  0
    1.3330   -1.3962   13.5460 Cl  0  0  0  0  0  0  0  0  0  0  0  0
    2.5753    0.8327   14.9230 O   0  0  0  0  0  0  0  0  0  0  0  0
    3.7564   -0.0320   12.7078 N   0  0  0  0  0  2  0  0  0  0  0  0
    5.0660    0.5184   15.4827 N   0  0  0  0  0  0  0  0  0  0  0  0
    4.1837    0.3188   11.4948 C   0  0  0  0  0  0  0  0  0  0  0  0
    4.3586    1.6846   11.1626 C   0  0  0  0  0  0  0  0  0  0  0  0
    4.8269    2.0173    9.9049 C   0  0  0  0  0  0  0  0  0  0  0  0
    5.1142    1.0358    8.9695 C   0  0  0  0  0  0  0  0  0  0  0  0
    4.9281   -0.3010    9.2851 C   0  0  0  0  0  0  0  0  0  0  0  0
    4.4692   -0.6822   10.5326 C   0  0  0  0  0  0  0  0  0  0  0  0
    4.0346    2.7243   12.1886 C   0  0  0  0  0  0  0  0  0  0  0  0
    4.2560   -2.1160   10.8962 C   0  0  0  0  0  0  0  0  0  0  0  0
    2.6428    2.0676   15.3043 C   0  0  0  0  0  0  0  0  0  0  0  0
    3.8409    2.5465   15.8877 C   0  0  0  0  0  0  0  0  0  0  0  0
    3.9050    3.8731   16.3243 C   0  0  0  0  0  0  0  0  0  0  0  0
    2.8280    4.7145   16.1639 C   0  0  0  0  0  0  0  0  0  0  0  0
    1.6570    4.2438   15.5756 C   0  0  0  0  0  0  0  0  0  0  0  0
    1.5402    2.9359   15.1497 C   0  0  0  0  0  0  0  0  0  0  0  0
    4.9542    1.6494   16.0619 C   0  0  0  0  0  3  0  0  0  0  0  0
    0.2946    2.3882   14.5240 C   0  0  0  0  0  0  0  0  0  0  0  0
    6.1382   -0.3222   15.8119 C   0  0  0  0  0  0  0  0  0  0  0  0
    7.1430   -0.5385   14.8574 C   0  0  0  0  0  0  0  0  0  0  0  0
    8.2009   -1.3714   15.1817 C   0  0  0  0  0  0  0  0  0  0  0  0
    8.2570   -1.9967   16.4142 C   0  0  0  0  0  0  0  0  0  0  0  0
    7.2437   -1.8056   17.3323 C   0  0  0  0  0  0  0  0  0  0  0  0
    6.1713   -0.9686   17.0555 C   0  0  0  0  0  0  0  0  0  0  0  0
    7.0520    0.1715   13.5283 C   0  0  0  0  0  0  0  0  0  0  0  0
    7.6462   -0.6361   12.3759 C   0  0  0  0  0  0  0  0  0  0  0  0
    7.7219    1.5465   13.6145 C   0  0  0  0  0  0  0  0  0  0  0  0
    5.0495   -0.8260   18.0611 C   0  0  0  0  0  0  0  0  0  0  0  0
    4.4075   -2.1880   18.3396 C   0  0  0  0  0  0  0  0  0  0  0  0
    5.5513   -0.1842   19.3569 C   0  0  0  0  0  0  0  0  0  0  0  0
    4.9663    3.0582    9.6503 H   0  0  0  0  0  0  0  0  0  0  0  0
    5.4790    1.3135    7.9920 H   0  0  0  0  0  0  0  0  0  0  0  0
    5.1460   -1.0605    8.5482 H   0  0  0  0  0  0  0  0  0  0  0  0
    4.6631    2.5941   13.0715 H   0  0  0  0  0  0  0  0  0  0  0  0
    4.1833    3.7249   11.7907 H   0  0  0  0  0  0  0  0  0  0  0  0
    2.9957    2.6167   12.5073 H   0  0  0  0  0  0  0  0  0  0  0  0
    4.9103   -2.3916   11.7251 H   0  0  0  0  0  0  0  0  0  0  0  0
    3.2276   -2.2668   11.2323 H   0  0  0  0  0  0  0  0  0  0  0  0
    4.4572   -2.7667   10.0492 H   0  0  0  0  0  0  0  0  0  0  0  0
    4.8190    4.2311   16.7759 H   0  0  0  0  0  0  0  0  0  0  0  0
    2.8868    5.7402   16.4931 H   0  0  0  0  0  0  0  0  0  0  0  0
    0.8185    4.9132   15.4491 H   0  0  0  0  0  0  0  0  0  0  0  0
    5.7379    1.9961   16.7502 H   0  0  0  0  0  0  0  0  0  0  0  0
   -0.2546    1.7814   15.2465 H   0  0  0  0  0  0  0  0  0  0  0  0
   -0.3550    3.1896   14.1820 H   0  0  0  0  0  0  0  0  0  0  0  0
    0.5499    1.7396   13.6817 H   0  0  0  0  0  0  0  0  0  0  0  0
    8.9909   -1.5369   14.4668 H   0  0  0  0  0  0  0  0  0  0  0  0
    9.0883   -2.6426   16.6551 H   0  0  0  0  0  0  0  0  0  0  0  0
    7.2879   -2.3146   18.2832 H   0  0  0  0  0  0  0  0  0  0  0  0
    5.9842    0.3191   13.3220 H   0  0  0  0  0  0  0  0  0  0  0  0
    7.3457   -0.1938   11.4283 H   0  0  0  0  0  0  0  0  0  0  0  0
    8.7330   -0.6462   12.4163 H   0  0  0  0  0  0  0  0  0  0  0  0
    7.2828   -1.6601   12.4077 H   0  0  0  0  0  0  0  0  0  0  0  0
    7.6371    2.0620   12.6603 H   0  0  0  0  0  0  0  0  0  0  0  0
    7.2517    2.1597   14.3810 H   0  0  0  0  0  0  0  0  0  0  0  0
    8.7768    1.4389   13.8606 H   0  0  0  0  0  0  0  0  0  0  0  0
    4.2693   -0.1767   17.6440 H   0  0  0  0  0  0  0  0  0  0  0  0
    3.5481   -2.0691   18.9972 H   0  0  0  0  0  0  0  0  0  0  0  0
    4.0745   -2.6418   17.4078 H   0  0  0  0  0  0  0  0  0  0  0  0
    5.1124   -2.8645   18.8164 H   0  0  0  0  0  0  0  0  0  0  0  0
    6.3070   -0.8075   19.8286 H   0  0  0  0  0  0  0  0  0  0  0  0
    5.9898    0.7925   19.1597 H   0  0  0  0  0  0  0  0  0  0  0  0
    4.7270   -0.0564   20.0558 H   0  0  0  0  0  0  0  0  0  0  0  0
  1  2  1  0  0  0  0
  1  4  1  0  0  0  0
  1  6  1  0  0  0  0
  3  1  1  0  0  0  0
  4 15  1  0  0  0  0
  5  1  1  0  0  0  0
  6 23  1  0  0  0  0
  6 21  1  0  0  0  0
  7  5  1  0  0  0  0
  8  7  1  0  0  0  0
  8 13  1  0  0  0  0
  9  8  2  0  0  0  0
 10 11  2  0  0  0  0
 10  9  1  0  0  0  0
 11 12  1  0  0  0  0
 12 14  1  0  0  0  0
 12  7  2  0  0  0  0
 13 40  1  0  0  0  0
 13 38  1  0  0  0  0
 14 42  1  0  0  0  0
 14 41  1  0  0  0  0
 15 16  1  0  0  0  0
 16 21  1  0  0  0  0
 16 17  2  0  0  0  0
 17 44  1  0  0  0  0
 18 17  1  0  0  0  0
 18 45  1  0  0  0  0
 19 18  2  0  0  0  0
 20 15  2  0  0  0  0
 20 19  1  0  0  0  0
 21 47  1  0  0  0  0
 22 20  1  0  0  0  0
 22 48  1  0  0  0  0
 23 28  1  0  0  0  0
 24 25  1  0  0  0  0
 24 23  2  0  0  0  0
 25 26  2  0  0  0  0
 26 52  1  0  0  0  0
 26 27  1  0  0  0  0
 27 53  1  0  0  0  0
 28 27  2  0  0  0  0
 28 32  1  0  0  0  0
 29 31  1  0  0  0  0
 29 24  1  0  0  0  0
 30 57  1  0  0  0  0
 30 56  1  0  0  0  0
 30 29  1  0  0  0  0
 31 60  1  0  0  0  0
 31 59  1  0  0  0  0
 32 33  1  0  0  0  0
 32 34  1  0  0  0  0
 33 64  1  0  0  0  0
 33 62  1  0  0  0  0
 34 65  1  0  0  0  0
 34 67  1  0  0  0  0
 35  9  1  0  0  0  0
 36 10  1  0  0  0  0
 37 11  1  0  0  0  0
 39 13  1  0  0  0  0
 43 14  1  0  0  0  0
 46 19  1  0  0  0  0
 49 22  1  0  0  0  0
 50 22  1  0  0  0  0
 51 25  1  0  0  0  0
 54 29  1  0  0  0  0
 55 30  1  0  0  0  0
 58 31  1  0  0  0  0
 61 32  1  0  0  0  0
 63 33  1  0  0  0  0
 66 34  1  0  0  0  0
M  END
$$$$
