CSD_code = WOGSAO | q = 0 | S = 0 | Stoichiometry = C17H14ClN5O2PdS | MND = 4
 OpenBabel04212202113D

 41 45  0  0  1  0  0  0  0  0999 V2000
    4.4685    0.3358    4.2304 Pd  0  0  1  0  0  0  0  0  0  0  0  0
    2.7506    1.0629    3.0728 Cl  0  0  0  0  0  0  0  0  0  0  0  0
    5.7181    2.1250    3.7279 S   0  0  0  0  0  0  0  0  0  0  0  0
    3.1619   -3.3447    5.8921 O   0  0  0  0  0  0  0  0  0  0  0  0
    3.2963   -1.3826    4.7680 O   0  0  0  0  0  0  0  0  0  0  0  0
    3.9600   -4.1138    6.6481 N   0  0  0  0  0  2  0  0  0  0  0  0
    5.1199   -3.5092    6.7224 N   0  0  0  0  0  0  0  0  0  0  0  0
    6.0670   -0.2642    5.2923 N   0  0  0  0  0  0  0  0  0  0  0  0
    7.1459    0.5275    5.3528 N   0  0  0  0  0  0  0  0  0  0  0  0
    8.1281    2.5167    4.6450 N   0  0  0  0  0  0  0  0  0  0  0  0
    7.9533    3.3324    4.0708 H   0  0  0  0  0  0  0  0  0  0  0  0
    5.1427   -2.3303    6.0461 C   0  0  0  0  0  0  0  0  0  0  0  0
    3.8239   -2.2341    5.4794 C   0  0  1  0  0  3  0  0  0  0  0  0
    6.1694   -1.3733    5.9917 C   0  0  0  0  0  0  0  0  0  0  0  0
    7.0810   -1.5319    6.5608 H   0  0  0  0  0  0  0  0  0  0  0  0
    7.0974    1.6439    4.6725 C   0  0  0  0  0  0  0  0  0  0  0  0
    9.3710    2.4823    5.2676 C   0  0  0  0  0  0  0  0  0  0  0  0
    9.7743    1.4504    6.1107 C   0  0  0  0  0  0  0  0  0  0  0  0
    9.0981    0.6339    6.2962 H   0  0  0  0  0  0  0  0  0  0  0  0
   11.0268    1.4896    6.6951 C   0  0  0  0  0  0  0  0  0  0  0  0
   11.3310    0.6859    7.3493 H   0  0  0  0  0  0  0  0  0  0  0  0
   11.8896    2.5449    6.4518 C   0  0  0  0  0  0  0  0  0  0  0  0
   12.8655    2.5678    6.9121 H   0  0  0  0  0  0  0  0  0  0  0  0
   11.4907    3.5729    5.6127 C   0  0  0  0  0  0  0  0  0  0  0  0
   12.1552    4.4007    5.4159 H   0  0  0  0  0  0  0  0  0  0  0  0
   10.2421    3.5452    5.0241 C   0  0  0  0  0  0  0  0  0  0  0  0
    9.9328    4.3486    4.3705 H   0  0  0  0  0  0  0  0  0  0  0  0
    6.1556   -4.1202    7.4529 C   0  0  0  0  0  0  0  0  0  0  0  0
    7.4631   -4.1100    6.9804 C   0  0  0  0  0  0  0  0  0  0  0  0
    7.6985   -3.6573    6.0300 H   0  0  0  0  0  0  0  0  0  0  0  0
    8.4538   -4.7243    7.7211 C   0  0  0  0  0  0  0  0  0  0  0  0
    9.4689   -4.7178    7.3535 H   0  0  0  0  0  0  0  0  0  0  0  0
    8.1649   -5.3601    8.9249 C   0  0  0  0  0  0  0  0  0  0  0  0
    6.8458   -5.3815    9.3666 C   0  0  0  0  0  0  0  0  0  0  0  0
    6.6011   -5.8813   10.2915 H   0  0  0  0  0  0  0  0  0  0  0  0
    5.8424   -4.7716    8.6404 C   0  0  0  0  0  0  0  0  0  0  0  0
    4.8187   -4.7881    8.9780 H   0  0  0  0  0  0  0  0  0  0  0  0
    9.2482   -6.0339    9.7040 C   0  0  0  0  0  0  0  0  0  0  0  0
    8.9576   -6.1670   10.7425 H   0  0  0  0  0  0  0  0  0  0  0  0
   10.1702   -5.4588    9.6626 H   0  0  0  0  0  0  0  0  0  0  0  0
    9.4496   -7.0176    9.2793 H   0  0  0  0  0  0  0  0  0  0  0  0
  1  2  1  6  0  0  0
  1  5  1  0  0  0  0
  1  8  1  0  0  0  0
  3  1  1  0  0  0  0
  3 16  1  0  0  0  0
  4  6  1  0  0  0  0
  6  7  1  0  0  0  0
  7 28  1  0  0  0  0
  8  9  1  0  0  0  0
  8 14  1  0  0  0  0
 10 16  1  0  0  0  0
 10 17  1  0  0  0  0
 11 10  1  0  0  0  0
 12  7  1  0  0  0  0
 13  5  1  1  0  0  0
 13  4  1  0  0  0  0
 13 12  1  0  0  0  0
 14 12  2  0  0  0  0
 14 15  1  0  0  0  0
 16  9  2  0  0  0  0
 17 18  1  0  0  0  0
 18 19  1  0  0  0  0
 18 20  2  0  0  0  0
 20 21  1  0  0  0  0
 22 20  1  0  0  0  0
 22 23  1  0  0  0  0
 24 22  2  0  0  0  0
 25 24  1  0  0  0  0
 26 17  2  0  0  0  0
 26 24  1  0  0  0  0
 27 26  1  0  0  0  0
 28 36  1  0  0  0  0
 29 28  2  0  0  0  0
 29 31  1  0  0  0  0
 30 29  1  0  0  0  0
 31 33  2  0  0  0  0
 32 31  1  0  0  0  0
 33 34  1  0  0  0  0
 33 38  1  0  0  0  0
 34 35  1  0  0  0  0
 36 37  1  0  0  0  0
 36 34  2  0  0  0  0
 38 39  1  0  0  0  0
 40 38  1  0  0  0  0
 41 38  1  0  0  0  0
M  END
$$$$
