CSD_code = WOGWAQ | q = 0 | S = 0 | Stoichiometry = C23H38ClNSi2Ti | MND = 8
 OpenBabel04212202113D

 66 68  0  0  1  0  0  0  0  0999 V2000
    1.3237   12.4181   12.3530 Ti  0  0  2  0  0  0  0  0  0  0  0  0
    3.8144   12.1585   10.8845 Si  0  0  0  0  0  0  0  0  0  0  0  0
   -0.0240   12.1408   15.3556 Si  0  0  0  0  0  0  0  0  0  0  0  0
    0.4716   14.3964   12.7188 Cl  0  0  0  0  0  0  0  0  0  0  0  0
    3.1653   12.7357   12.3880 N   0  0  0  0  0  0  0  0  0  0  0  0
    2.0616   11.6300   10.3604 C   0  0  2  0  0  0  0  0  0  0  0  0
    1.0667   12.6131   10.0795 C   0  0  2  0  0  3  0  0  0  0  0  0
   -0.1843   12.1441   10.5412 C   0  0  0  0  0  0  0  0  0  0  0  0
    0.0163   10.8612   11.1246 C   0  0  0  0  0  0  0  0  0  0  0  0
    1.3966   10.5504   11.0200 C   0  0  1  0  0  3  0  0  0  0  0  0
    1.2889   13.9088    9.3541 C   0  0  0  0  0  0  0  0  0  0  0  0
    1.6351   14.6926   10.0345 H   0  0  0  0  0  0  0  0  0  0  0  0
    0.3625   14.2485    8.8914 H   0  0  0  0  0  0  0  0  0  0  0  0
    2.0376   13.7796    8.5746 H   0  0  0  0  0  0  0  0  0  0  0  0
   -1.5096   12.8194   10.3250 C   0  0  0  0  0  0  0  0  0  0  0  0
   -1.4740   13.8649   10.6387 H   0  0  0  0  0  0  0  0  0  0  0  0
   -2.2985   12.3179   10.8835 H   0  0  0  0  0  0  0  0  0  0  0  0
   -1.7777   12.7936    9.2656 H   0  0  0  0  0  0  0  0  0  0  0  0
   -1.0853    9.9476   11.5862 C   0  0  0  0  0  0  0  0  0  0  0  0
   -1.7343   10.4412   12.3112 H   0  0  0  0  0  0  0  0  0  0  0  0
   -0.6816    9.0496   12.0504 H   0  0  0  0  0  0  0  0  0  0  0  0
   -1.6999    9.6427   10.7355 H   0  0  0  0  0  0  0  0  0  0  0  0
    2.0332    9.2334   11.3680 C   0  0  0  0  0  0  0  0  0  0  0  0
    2.8521    9.0309   10.6813 H   0  0  0  0  0  0  0  0  0  0  0  0
    1.3104    8.4222   11.2809 H   0  0  0  0  0  0  0  0  0  0  0  0
    2.4322    9.2277   12.3852 H   0  0  0  0  0  0  0  0  0  0  0  0
    4.6444   13.4118    9.6965 C   0  0  0  0  0  0  0  0  0  0  0  0
    4.5882   13.0714    8.6676 H   0  0  0  0  0  0  0  0  0  0  0  0
    5.6942   13.5208    9.9464 H   0  0  0  0  0  0  0  0  0  0  0  0
    4.1967   14.3973    9.7536 H   0  0  0  0  0  0  0  0  0  0  0  0
    5.0833   10.7286   11.0621 C   0  0  0  0  0  0  0  0  0  0  0  0
    6.0774   11.1344   11.2199 H   0  0  0  0  0  0  0  0  0  0  0  0
    5.1243   10.1292   10.1590 H   0  0  0  0  0  0  0  0  0  0  0  0
    4.8566   10.0701   11.8937 H   0  0  0  0  0  0  0  0  0  0  0  0
    3.8538   13.4922   13.4200 C   0  0  2  0  0  0  0  0  0  0  0  0
    3.0856   13.9029   14.1036 H   0  0  0  0  0  0  0  0  0  0  0  0
    4.5736   14.6623   12.7787 C   0  0  0  0  0  0  0  0  0  0  0  0
    5.9483   14.7064   12.5904 C   0  0  0  0  0  0  0  0  0  0  0  0
    6.5770   13.9073   12.9501 H   0  0  0  0  0  0  0  0  0  0  0  0
    6.5354   15.7790   11.9390 C   0  0  0  0  0  0  0  0  0  0  0  0
    7.6074   15.8000   11.8038 H   0  0  0  0  0  0  0  0  0  0  0  0
    5.7590   16.8184   11.4603 C   0  0  0  0  0  0  0  0  0  0  0  0
    6.2198   17.6520   10.9510 H   0  0  0  0  0  0  0  0  0  0  0  0
    4.3860   16.7830   11.6414 C   0  0  0  0  0  0  0  0  0  0  0  0
    3.7708   17.5916   11.2740 H   0  0  0  0  0  0  0  0  0  0  0  0
    3.8011   15.7155   12.2965 C   0  0  0  0  0  0  0  0  0  0  0  0
    2.7289   15.6914   12.4415 H   0  0  0  0  0  0  0  0  0  0  0  0
    4.7755   12.5871   14.2468 C   0  0  0  0  0  0  0  0  0  0  0  0
    5.3150   13.1720   14.9883 H   0  0  0  0  0  0  0  0  0  0  0  0
    5.4814   12.0763   13.5977 H   0  0  0  0  0  0  0  0  0  0  0  0
    4.1774   11.8356   14.7597 H   0  0  0  0  0  0  0  0  0  0  0  0
    1.0884   11.3015   14.0775 C   0  0  0  0  0  0  0  0  0  0  0  0
    0.6593   10.3225   13.8333 H   0  0  0  0  0  0  0  0  0  0  0  0
    2.0737   11.1070   14.5233 H   0  0  0  0  0  0  0  0  0  0  0  0
   -0.3911   10.9933   16.8513 C   0  0  0  0  0  0  0  0  0  0  0  0
   -1.0935   11.4547   17.5373 H   0  0  0  0  0  0  0  0  0  0  0  0
    0.5121   10.7703   17.4097 H   0  0  0  0  0  0  0  0  0  0  0  0
   -0.8196   10.0486   16.5320 H   0  0  0  0  0  0  0  0  0  0  0  0
   -1.7233   12.5293   14.5480 C   0  0  0  0  0  0  0  0  0  0  0  0
   -2.2213   13.3482   15.0577 H   0  0  0  0  0  0  0  0  0  0  0  0
   -2.3868   11.6697   14.5933 H   0  0  0  0  0  0  0  0  0  0  0  0
   -1.6080   12.8167   13.5032 H   0  0  0  0  0  0  0  0  0  0  0  0
    0.8109   13.7054   16.0851 C   0  0  0  0  0  0  0  0  0  0  0  0
    1.8131   13.4805   16.4421 H   0  0  0  0  0  0  0  0  0  0  0  0
    0.2453   14.0928   16.9272 H   0  0  0  0  0  0  0  0  0  0  0  0
    0.8890   14.5000   15.3487 H   0  0  0  0  0  0  0  0  0  0  0  0
  1  5  1  0  0  0  0
  1  4  1  6  0  0  0
  1 52  1  0  0  0  0
  2 31  1  0  0  0  0
  2  5  1  0  0  0  0
  3 63  1  0  0  0  0
  3 55  1  0  0  0  0
  5 35  1  0  0  0  0
  6  2  1  6  0  0  0
  6 10  1  0  0  0  0
  6  1  1  0  0  0  0
  7 11  1  6  0  0  0
  7  6  1  0  0  0  0
  7  8  1  0  0  0  0
  8  9  2  0  0  0  0
  9 19  1  0  0  0  0
 10  9  1  0  0  0  0
 10 23  1  6  0  0  0
 11 12  1  0  0  0  0
 13 11  1  0  0  0  0
 14 11  1  0  0  0  0
 15  8  1  0  0  0  0
 15 16  1  0  0  0  0
 15 17  1  0  0  0  0
 18 15  1  0  0  0  0
 19 21  1  0  0  0  0
 19 20  1  0  0  0  0
 22 19  1  0  0  0  0
 23 26  1  0  0  0  0
 24 23  1  0  0  0  0
 25 23  1  0  0  0  0
 27 30  1  0  0  0  0
 27 29  1  0  0  0  0
 27  2  1  0  0  0  0
 28 27  1  0  0  0  0
 31 32  1  0  0  0  0
 31 34  1  0  0  0  0
 33 31  1  0  0  0  0
 35 36  1  1  0  0  0
 35 48  1  0  0  0  0
 37 35  1  0  0  0  0
 38 37  1  0  0  0  0
 38 39  1  0  0  0  0
 40 38  2  0  0  0  0
 41 40  1  0  0  0  0
 42 44  2  0  0  0  0
 42 40  1  0  0  0  0
 43 42  1  0  0  0  0
 44 46  1  0  0  0  0
 45 44  1  0  0  0  0
 46 47  1  0  0  0  0
 46 37  2  0  0  0  0
 48 51  1  0  0  0  0
 48 49  1  0  0  0  0
 50 48  1  0  0  0  0
 52 54  1  0  0  0  0
 52  3  1  0  0  0  0
 53 52  1  0  0  0  0
 55 57  1  0  0  0  0
 55 56  1  0  0  0  0
 58 55  1  0  0  0  0
 59 61  1  0  0  0  0
 59 60  1  0  0  0  0
 59  3  1  0  0  0  0
 62 59  1  0  0  0  0
 63 64  1  0  0  0  0
 63 65  1  0  0  0  0
 66 63  1  0  0  0  0
M  END
$$$$
