CSD_code = WOGXOH | q = 0 | S = 0 | Stoichiometry = C15H15ClN4PtS | MND = 4
 OpenBabel04212202113D

 37 40  0  0  0  0  0  0  0  0999 V2000
    5.4000    6.7075    2.6279 Pt  0  0  1  0  0  0  0  0  0  0  0  0
    5.6784    5.3011    4.3336 Cl  0  0  0  0  0  0  0  0  0  0  0  0
    4.3633    5.2589    1.1624 S   0  0  0  0  0  0  0  0  0  0  0  0
    5.1914    7.9975    1.2083 N   0  0  0  0  0  0  0  0  0  0  0  0
    6.2621    8.3163    3.5454 N   0  0  0  0  0  0  0  0  0  0  0  0
    6.8092    8.3920    4.7502 C   0  0  0  0  0  0  0  0  0  0  0  0
    6.7946    7.4809    5.3350 H   0  0  0  0  0  0  0  0  0  0  0  0
    7.3651    9.5628    5.2369 C   0  0  0  0  0  0  0  0  0  0  0  0
    7.7991    9.5856    6.2227 H   0  0  0  0  0  0  0  0  0  0  0  0
    7.3502   10.6942    4.4292 C   0  0  0  0  0  0  0  0  0  0  0  0
    7.7786   11.6215    4.7783 H   0  0  0  0  0  0  0  0  0  0  0  0
    6.7820   10.6191    3.1736 C   0  0  0  0  0  0  0  0  0  0  0  0
    6.7615   11.4801    2.5262 H   0  0  0  0  0  0  0  0  0  0  0  0
    6.2309    9.4087    2.7373 C   0  0  0  0  0  0  0  0  0  0  0  0
    5.6175    9.2175    1.4483 C   0  0  0  0  0  0  0  0  0  0  0  0
    5.4806   10.3287    0.4564 C   0  0  0  0  0  0  0  0  0  0  0  0
    4.8511    9.9963   -0.3635 H   0  0  0  0  0  0  0  0  0  0  0  0
    6.4556   10.6129    0.0613 H   0  0  0  0  0  0  0  0  0  0  0  0
    5.0272   11.2023    0.9209 H   0  0  0  0  0  0  0  0  0  0  0  0
    4.6297    7.7029    0.0365 N   0  0  0  0  0  0  0  0  0  0  0  0
    4.2161    6.4660   -0.0909 C   0  0  0  0  0  0  0  0  0  0  0  0
    3.6247    6.0140   -1.2130 N   0  0  0  0  0  0  0  0  0  0  0  0
    3.3246    5.0483   -1.1505 H   0  0  0  0  0  0  0  0  0  0  0  0
    3.3483    6.6464   -2.4212 C   0  0  0  0  0  0  0  0  0  0  0  0
    3.7807    7.9334   -2.7169 C   0  0  0  0  0  0  0  0  0  0  0  0
    4.3597    8.4669   -1.9831 H   0  0  0  0  0  0  0  0  0  0  0  0
    3.4805    8.5203   -3.9378 C   0  0  0  0  0  0  0  0  0  0  0  0
    2.7422    7.8041   -4.8710 C   0  0  0  0  0  0  0  0  0  0  0  0
    2.5029    8.2510   -5.8244 H   0  0  0  0  0  0  0  0  0  0  0  0
    2.3162    6.5175   -4.5860 C   0  0  0  0  0  0  0  0  0  0  0  0
    1.7478    5.9641   -5.3184 H   0  0  0  0  0  0  0  0  0  0  0  0
    2.6142    5.9349   -3.3706 C   0  0  0  0  0  0  0  0  0  0  0  0
    2.2818    4.9306   -3.1508 H   0  0  0  0  0  0  0  0  0  0  0  0
    3.9388    9.9184   -4.2234 C   0  0  0  0  0  0  0  0  0  0  0  0
    4.9395   10.0835   -3.8303 H   0  0  0  0  0  0  0  0  0  0  0  0
    3.2686   10.6338   -3.7462 H   0  0  0  0  0  0  0  0  0  0  0  0
    3.9411   10.1169   -5.2920 H   0  0  0  0  0  0  0  0  0  0  0  0
  1  5  1  0  0  0  0
  1  2  1  1  0  0  0
  3  1  1  0  0  0  0
  4 15  1  0  0  0  0
  4  1  1  0  0  0  0
  5  6  1  0  0  0  0
  6  8  2  0  0  0  0
  6  7  1  0  0  0  0
  8  9  1  0  0  0  0
 10 11  1  0  0  0  0
 10  8  1  0  0  0  0
 12 10  2  0  0  0  0
 13 12  1  0  0  0  0
 14 12  1  0  0  0  0
 14  5  1  0  0  0  0
 15 14  2  0  0  0  0
 16 19  1  0  0  0  0
 16 15  1  0  0  0  0
 17 16  1  0  0  0  0
 18 16  1  0  0  0  0
 20  4  1  0  0  0  0
 21 20  2  0  0  0  0
 21  3  1  0  0  0  0
 22 23  1  0  0  0  0
 22 21  1  0  0  0  0
 24 22  1  0  0  0  0
 25 24  1  0  0  0  0
 25 26  1  0  0  0  0
 27 25  2  0  0  0  0
 28 30  2  0  0  0  0
 28 27  1  0  0  0  0
 29 28  1  0  0  0  0
 30 32  1  0  0  0  0
 31 30  1  0  0  0  0
 32 33  1  0  0  0  0
 32 24  2  0  0  0  0
 34 27  1  0  0  0  0
 34 35  1  0  0  0  0
 34 36  1  0  0  0  0
 37 34  1  0  0  0  0
M  END
$$$$
