CSD_code = WOGXEX | q = 0 | S = 0 | Stoichiometry = C15H15ClN4PtS | MND = 4
 OpenBabel04212202113D

 37 40  0  0  0  0  0  0  0  0999 V2000
    1.5289   12.2879    2.8277 Pt  0  0  1  0  0  0  0  0  0  0  0  0
    1.3782   10.4854    1.5255 Cl  0  0  0  0  0  0  0  0  0  0  0  0
    1.0417   13.8939    1.2443 S   0  0  0  0  0  0  0  0  0  0  0  0
    2.0064   11.2685    4.5329 N   0  0  0  0  0  0  0  0  0  0  0  0
    1.4979   15.0497    3.6465 N   0  0  0  0  0  0  0  0  0  0  0  0
    1.7019   13.7896    4.0268 N   0  0  0  0  0  0  0  0  0  0  0  0
    0.9447   18.6499    0.0861 C   0  0  0  0  0  0  0  0  0  0  0  0
    0.9718   19.6263   -0.3900 H   0  0  0  0  0  0  0  0  0  0  0  0
    0.0633   18.1232   -0.2822 H   0  0  0  0  0  0  0  0  0  0  0  0
    1.8320   18.0978   -0.2232 H   0  0  0  0  0  0  0  0  0  0  0  0
    0.9167   17.6866    2.4271 C   0  0  0  0  0  0  0  0  0  0  0  0
    0.9580   16.4216    1.8450 N   0  0  0  0  0  0  0  0  0  0  0  0
    0.7909   16.3925    0.8475 H   0  0  0  0  0  0  0  0  0  0  0  0
    2.2192   12.1256    5.5661 C   0  0  0  0  0  0  0  0  0  0  0  0
    2.2940   14.5968    6.2790 C   0  0  0  0  0  0  0  0  0  0  0  0
    2.2711   15.5636    5.7844 H   0  0  0  0  0  0  0  0  0  0  0  0
    3.2621   14.4650    6.7587 H   0  0  0  0  0  0  0  0  0  0  0  0
    1.5211   14.5733    7.0468 H   0  0  0  0  0  0  0  0  0  0  0  0
    2.4563    9.4129    5.9424 C   0  0  0  0  0  0  0  0  0  0  0  0
    2.5415    8.3445    6.0513 H   0  0  0  0  0  0  0  0  0  0  0  0
    2.6764   10.2671    7.0169 C   0  0  0  0  0  0  0  0  0  0  0  0
    2.9371    9.8715    7.9868 H   0  0  0  0  0  0  0  0  0  0  0  0
    2.0628   13.5245    5.2623 C   0  0  0  0  0  0  0  0  0  0  0  0
    1.1827   15.2101    2.3852 C   0  0  0  0  0  0  0  0  0  0  0  0
    2.5574   11.6295    6.8305 C   0  0  0  0  0  0  0  0  0  0  0  0
    2.7189   12.3140    7.6468 H   0  0  0  0  0  0  0  0  0  0  0  0
    2.1212    9.9608    4.7160 C   0  0  0  0  0  0  0  0  0  0  0  0
    1.9382    9.3434    3.8456 H   0  0  0  0  0  0  0  0  0  0  0  0
    0.8983   18.8050    1.5784 C   0  0  0  0  0  0  0  0  0  0  0  0
    0.8690   17.8600    3.8065 C   0  0  0  0  0  0  0  0  0  0  0  0
    0.8687   16.9879    4.4367 H   0  0  0  0  0  0  0  0  0  0  0  0
    0.8134   19.1292    4.3501 C   0  0  0  0  0  0  0  0  0  0  0  0
    0.7754   19.2497    5.4222 H   0  0  0  0  0  0  0  0  0  0  0  0
    0.8406   20.0663    2.1496 C   0  0  0  0  0  0  0  0  0  0  0  0
    0.8285   20.9327    1.5044 H   0  0  0  0  0  0  0  0  0  0  0  0
    0.8003   20.2378    3.5229 C   0  0  0  0  0  0  0  0  0  0  0  0
    0.7568   21.2315    3.9417 H   0  0  0  0  0  0  0  0  0  0  0  0
  1  2  1  6  0  0  0
  1  6  1  0  0  0  0
  1  4  1  0  0  0  0
  3 24  1  0  0  0  0
  3  1  1  0  0  0  0
  4 27  1  0  0  0  0
  4 14  1  0  0  0  0
  5  6  1  0  0  0  0
  6 23  1  0  0  0  0
  7 29  1  0  0  0  0
  8  7  1  0  0  0  0
  9  7  1  0  0  0  0
 10  7  1  0  0  0  0
 11 30  1  0  0  0  0
 12 24  1  0  0  0  0
 12 11  1  0  0  0  0
 13 12  1  0  0  0  0
 14 25  1  0  0  0  0
 15 17  1  0  0  0  0
 15 18  1  0  0  0  0
 16 15  1  0  0  0  0
 19 20  1  0  0  0  0
 19 21  1  0  0  0  0
 21 22  1  0  0  0  0
 23 14  2  0  0  0  0
 23 15  1  0  0  0  0
 24  5  2  0  0  0  0
 25 21  2  0  0  0  0
 25 26  1  0  0  0  0
 27 19  2  0  0  0  0
 28 27  1  0  0  0  0
 29 34  1  0  0  0  0
 29 11  2  0  0  0  0
 30 32  2  0  0  0  0
 30 31  1  0  0  0  0
 32 33  1  0  0  0  0
 34 36  2  0  0  0  0
 35 34  1  0  0  0  0
 36 37  1  0  0  0  0
 36 32  1  0  0  0  0
M  END
$$$$
