CSD_code = WOHMUC | q = 0 | S = 0 | Stoichiometry = C15H18Cl2SiTi | MND = 12
 OpenBabel04212202113D

 37 40  0  0  1  0  0  0  0  0999 V2000
   -0.0231    2.6869    2.0745 Ti  0  0  0  0  0  0  0  0  0  0  0  0
    0.3013    2.9448   -0.0836 Cl  0  0  0  0  0  0  0  0  0  0  0  0
   -2.0856    1.9471    1.7656 Cl  0  0  0  0  0  0  0  0  0  0  0  0
    2.8448    3.6996    2.8116 Si  0  0  0  0  0  0  0  0  0  0  0  0
    1.1102    4.4261    3.0547 C   0  0  2  0  0  3  0  0  0  0  0  0
    0.1594    3.8460    3.9633 C   0  0  1  0  0  0  0  0  0  0  0  0
   -1.1330    4.1952    3.5150 C   0  0  0  0  0  0  0  0  0  0  0  0
   -1.0004    4.9614    2.3356 C   0  0  0  0  0  0  0  0  0  0  0  0
    0.3702    5.1005    2.0594 C   0  0  0  0  0  3  0  0  0  0  0  0
    2.0074    2.0002    2.9019 C   0  0  1  0  0  3  0  0  0  0  0  0
    0.9443    1.7199    3.8276 C   0  0  2  0  0  0  0  0  0  0  0  0
    0.1677    0.6718    3.2877 C   0  0  0  0  0  3  0  0  0  0  0  0
    0.7173    0.3134    2.0364 C   0  0  0  0  0  0  0  0  0  0  0  0
    1.8404    1.1257    1.8062 C   0  0  0  0  0  0  0  0  0  0  0  0
    0.4918    2.6963    4.9036 C   0  0  0  0  0  0  0  0  0  0  0  0
    1.5526    3.0202    5.9555 C   0  0  0  0  0  0  0  0  0  0  0  0
   -0.7618    2.1880    5.6252 C   0  0  0  0  0  0  0  0  0  0  0  0
    4.2492    4.1485    4.0292 C   0  0  0  0  0  0  0  0  0  0  0  0
    3.4825    4.0425    1.0492 C   0  0  0  0  0  0  0  0  0  0  0  0
   -2.0713    4.0021    4.0167 H   0  0  0  0  0  0  0  0  0  0  0  0
   -1.8133    5.4217    1.7885 H   0  0  0  0  0  0  0  0  0  0  0  0
    0.7931    5.6817    1.2509 H   0  0  0  0  0  0  0  0  0  0  0  0
   -0.6517    0.1537    3.7669 H   0  0  0  0  0  0  0  0  0  0  0  0
    0.3746   -0.4976    1.4064 H   0  0  0  0  0  0  0  0  0  0  0  0
    2.5063    1.0524    0.9569 H   0  0  0  0  0  0  0  0  0  0  0  0
    1.7676    2.1307    6.5450 H   0  0  0  0  0  0  0  0  0  0  0  0
    1.1835    3.7976    6.6219 H   0  0  0  0  0  0  0  0  0  0  0  0
    2.4732    3.3626    5.5016 H   0  0  0  0  0  0  0  0  0  0  0  0
   -1.5564    1.9419    4.9208 H   0  0  0  0  0  0  0  0  0  0  0  0
   -0.5197    1.2975    6.2023 H   0  0  0  0  0  0  0  0  0  0  0  0
   -1.1271    2.9502    6.3109 H   0  0  0  0  0  0  0  0  0  0  0  0
    3.9632    4.9311    4.7237 H   0  0  0  0  0  0  0  0  0  0  0  0
    4.5908    3.2931    4.6020 H   0  0  0  0  0  0  0  0  0  0  0  0
    5.0967    4.5152    3.4608 H   0  0  0  0  0  0  0  0  0  0  0  0
    3.7558    5.0873    0.9361 H   0  0  0  0  0  0  0  0  0  0  0  0
    2.7351    3.8053    0.2963 H   0  0  0  0  0  0  0  0  0  0  0  0
    4.3707    3.4535    0.8411 H   0  0  0  0  0  0  0  0  0  0  0  0
  1 11  1  0  0  0  0
  1  6  1  0  0  0  0
  2  1  1  0  0  0  0
  3  1  1  0  0  0  0
  4 10  1  0  0  0  0
  4  5  1  0  0  0  0
  4 18  1  0  0  0  0
  5  9  1  6  0  0  0
  5  6  1  0  0  0  0
  6  7  1  1  0  0  0
  6 15  1  0  0  0  0
  7 20  1  0  0  0  0
  8  7  2  0  0  0  0
  9  8  1  0  0  0  0
 10 14  1  6  0  0  0
 10 11  1  0  0  0  0
 11 12  1  1  0  0  0
 11 15  1  0  0  0  0
 12 23  1  0  0  0  0
 13 12  1  0  0  0  0
 14 13  2  0  0  0  0
 15 17  1  0  0  0  0
 15 16  1  0  0  0  0
 16 26  1  0  0  0  0
 16 27  1  0  0  0  0
 17 30  1  0  0  0  0
 17 31  1  0  0  0  0
 18 33  1  0  0  0  0
 18 32  1  0  0  0  0
 19  4  1  0  0  0  0
 21  8  1  0  0  0  0
 22  9  1  0  0  0  0
 24 13  1  0  0  0  0
 25 14  1  0  0  0  0
 28 16  1  0  0  0  0
 29 17  1  0  0  0  0
 34 18  1  0  0  0  0
 35 19  1  0  0  0  0
 36 19  1  0  0  0  0
 37 19  1  0  0  0  0
M  END
$$$$
