CSD_code = WOJBOP | q = 1 | S = 0 | Stoichiometry = C17H14ClF2N2Ru(1+) | MND = 9
 OpenBabel04212202113D

 37 40  0  0  1  0  0  0  0  0999 V2000
    3.0609    2.2038    2.9384 Ru  0  0  2  0  0  0  0  0  0  0  0  0
    0.8345    2.4008    3.6007 Cl  0  0  0  0  0 15  0  0  0  0  0  0
    3.8073    0.3859    7.8077 F   0  0  0  0  0  0  0  0  0  0  0  0
    2.4459    7.1699    1.3442 F   0  0  0  0  0  0  0  0  0  0  0  0
    3.4311    2.3656    4.8724 N   0  0  0  0  0  0  0  0  0  0  0  0
    3.0680    4.1682    3.1550 N   0  0  0  0  0  0  0  0  0  0  0  0
    3.5390    1.3173    5.6836 C   0  0  0  0  0  3  0  0  0  0  0  0
    3.4816    0.3252    5.2552 H   0  0  0  0  0  0  0  0  0  0  0  0
    3.6945    1.4706    7.0518 C   0  0  0  0  0  0  0  0  0  0  0  0
    3.7326    2.7382    7.6225 C   0  0  0  0  0  0  0  0  0  0  0  0
    3.8479    2.8549    8.6879 H   0  0  0  0  0  0  0  0  0  0  0  0
    3.5973    3.8185    6.7743 C   0  0  0  0  0  0  0  0  0  0  0  0
    3.6000    4.8188    7.1737 H   0  0  0  0  0  0  0  0  0  0  0  0
    3.4424    3.6126    5.4025 C   0  0  0  0  0  0  0  0  0  0  0  0
    3.2355    4.6560    4.4082 C   0  0  2  0  0  3  0  0  0  0  0  0
    3.1652    6.0250    4.6710 C   0  0  0  0  0  0  0  0  0  0  0  0
    3.3012    6.3902    5.6752 H   0  0  0  0  0  0  0  0  0  0  0  0
    2.9078    6.9115    3.6449 C   0  0  0  0  0  0  0  0  0  0  0  0
    2.8413    7.9751    3.8077 H   0  0  0  0  0  0  0  0  0  0  0  0
    2.7121    6.3786    2.3754 C   0  0  0  0  0  0  0  0  0  0  0  0
    2.7928    5.0115    2.1643 C   0  0  0  0  0  0  0  0  0  0  0  0
    2.6060    4.6061    1.1784 H   0  0  0  0  0  0  0  0  0  0  0  0
    2.3119    0.4662    1.4776 C   0  0  0  0  0  0  0  0  0  0  0  0
    2.6869    1.6059    0.7164 C   0  0  0  0  0  0  0  0  0  0  0  0
    1.9990    1.9850   -0.0318 H   0  0  0  0  0  0  0  0  0  0  0  0
    3.9813    2.1438    0.8168 C   0  0  2  0  0  0  0  0  0  0  0  0
    4.2904    2.9348    0.1412 H   0  0  0  0  0  0  0  0  0  0  0  0
    4.9248    1.5889    1.7081 C   0  0  0  0  0  3  0  0  0  0  0  0
    5.9491    1.9410    1.7134 H   0  0  0  0  0  0  0  0  0  0  0  0
    4.5371    0.5025    2.5158 C   0  0  2  0  0  0  0  0  0  0  0  0
    5.2723    0.0239    3.1548 H   0  0  0  0  0  0  0  0  0  0  0  0
    3.2469   -0.0610    2.3928 C   0  0  0  0  0  3  0  0  0  0  0  0
    3.0029   -0.9701    2.9321 H   0  0  0  0  0  0  0  0  0  0  0  0
    0.9722   -0.1578    1.2914 C   0  0  0  0  0  0  0  0  0  0  0  0
    0.9517   -1.1747    1.6751 H   0  0  0  0  0  0  0  0  0  0  0  0
    0.6903   -0.1590    0.2402 H   0  0  0  0  0  0  0  0  0  0  0  0
    0.2221    0.4232    1.8344 H   0  0  0  0  0  0  0  0  0  0  0  0
  1  6  1  1  0  0  0
  1  5  1  0  0  0  0
  4 20  1  0  0  0  0
  5 14  1  0  0  0  0
  5  7  1  0  0  0  0
  6 15  1  0  0  0  0
  7  9  1  0  0  0  0
  8  7  1  0  0  0  0
  9 10  2  0  0  0  0
  9  3  1  0  0  0  0
 10 11  1  0  0  0  0
 12 13  1  0  0  0  0
 12 10  1  0  0  0  0
 14 12  2  0  0  0  0
 15 16  1  1  0  0  0
 15 14  1  0  0  0  0
 16 17  1  0  0  0  0
 18 19  1  0  0  0  0
 18 16  2  0  0  0  0
 20 18  1  0  0  0  0
 21 20  2  0  0  0  0
 21  6  1  0  0  0  0
 22 21  1  0  0  0  0
 23 32  1  0  0  0  0
 24 26  1  0  0  0  0
 24 23  2  0  0  0  0
 25 24  1  0  0  0  0
 26 27  1  6  0  0  0
 26 28  1  0  0  0  0
 26  1  1  0  0  0  0
 28 29  1  0  0  0  0
 28 30  1  0  0  0  0
 30  1  1  0  0  0  0
 30 31  1  1  0  0  0
 32 30  1  0  0  0  0
 32 33  1  0  0  0  0
 34 23  1  0  0  0  0
 34 35  1  0  0  0  0
 34 37  1  0  0  0  0
 36 34  1  0  0  0  0
M  END
$$$$
