CSD_code = WOKBAZ | q = 0 | S = 0 | Stoichiometry = C18H38Cl2N4P2Pt | MND = 4
 OpenBabel04212202113D

 65 68  0  0  0  0  0  0  0  0999 V2000
   -3.6493   -8.1579    1.4154 Pt  0  0  0  0  0  0  0  0  0  0  0  0
   -2.5433   -7.0676    3.1085 Cl  0  0  0  0  0  0  0  0  0  0  0  0
   -1.6282   -9.0131    0.7217 Cl  0  0  0  0  0  0  0  0  0  0  0  0
   -5.5872   -7.3816    2.3848 P   0  0  0  0  0  4  0  0  0  0  0  0
   -5.7057   -6.1778    3.5706 N   0  0  0  0  0  0  0  0  0  0  0  0
   -5.1900   -6.4554    4.9201 C   0  0  0  0  0  0  0  0  0  0  0  0
   -6.0467   -6.5791    5.5948 H   0  0  0  0  0  0  0  0  0  0  0  0
   -4.5859   -7.3628    4.9424 H   0  0  0  0  0  0  0  0  0  0  0  0
   -4.3632   -5.2349    5.3136 C   0  0  0  0  0  0  0  0  0  0  0  0
   -4.3775   -5.0543    6.3866 H   0  0  0  0  0  0  0  0  0  0  0  0
   -3.3348   -5.3769    4.9831 H   0  0  0  0  0  0  0  0  0  0  0  0
   -5.0157   -4.1191    4.5061 C   0  0  0  0  0  0  0  0  0  0  0  0
   -4.3706   -3.2525    4.3797 H   0  0  0  0  0  0  0  0  0  0  0  0
   -5.9483   -3.8036    4.9779 H   0  0  0  0  0  0  0  0  0  0  0  0
   -5.3065   -4.8175    3.1841 C   0  0  0  0  0  0  0  0  0  0  0  0
   -6.1142   -4.3378    2.6269 H   0  0  0  0  0  0  0  0  0  0  0  0
   -4.4019   -4.8363    2.5646 H   0  0  0  0  0  0  0  0  0  0  0  0
   -6.2870   -8.7267    3.0710 N   0  0  0  0  0  0  0  0  0  0  0  0
   -5.4610   -9.8147    3.5932 C   0  0  0  0  0  0  0  0  0  0  0  0
   -4.8563   -9.5049    4.4543 H   0  0  0  0  0  0  0  0  0  0  0  0
   -4.7834  -10.1747    2.8087 H   0  0  0  0  0  0  0  0  0  0  0  0
   -6.4954  -10.8372    4.0413 C   0  0  0  0  0  0  0  0  0  0  0  0
   -6.0898  -11.5655    4.7398 H   0  0  0  0  0  0  0  0  0  0  0  0
   -6.9108  -11.3602    3.1793 H   0  0  0  0  0  0  0  0  0  0  0  0
   -7.5564   -9.9355    4.6716 C   0  0  0  0  0  0  0  0  0  0  0  0
   -8.5272  -10.4196    4.7578 H   0  0  0  0  0  0  0  0  0  0  0  0
   -7.2311   -9.6267    5.6655 H   0  0  0  0  0  0  0  0  0  0  0  0
   -7.5937   -8.7300    3.7287 C   0  0  0  0  0  0  0  0  0  0  0  0
   -7.7833   -7.7953    4.2622 H   0  0  0  0  0  0  0  0  0  0  0  0
   -8.3758   -8.8579    2.9709 H   0  0  0  0  0  0  0  0  0  0  0  0
   -6.9264   -6.7524    1.2920 C   0  0  0  0  0  0  0  0  0  0  0  0
   -6.6052   -5.8177    0.8406 H   0  0  0  0  0  0  0  0  0  0  0  0
   -7.8220   -6.5747    1.8827 H   0  0  0  0  0  0  0  0  0  0  0  0
   -7.1234   -7.4681    0.4995 H   0  0  0  0  0  0  0  0  0  0  0  0
   -4.6223   -9.2459   -0.3573 P   0  0  0  0  0  4  0  0  0  0  0  0
   -3.8484  -10.3284   -1.4001 N   0  0  0  0  0  0  0  0  0  0  0  0
   -2.7400   -9.8133   -2.2215 C   0  0  0  0  0  0  0  0  0  0  0  0
   -3.0959   -9.7110   -3.2535 H   0  0  0  0  0  0  0  0  0  0  0  0
   -2.3956   -8.8430   -1.8586 H   0  0  0  0  0  0  0  0  0  0  0  0
   -1.6275  -10.8543   -2.1311 C   0  0  0  0  0  0  0  0  0  0  0  0
   -1.0401  -10.9108   -3.0454 H   0  0  0  0  0  0  0  0  0  0  0  0
   -0.9739  -10.6087   -1.2949 H   0  0  0  0  0  0  0  0  0  0  0  0
   -2.3940  -12.1360   -1.8283 C   0  0  0  0  0  0  0  0  0  0  0  0
   -1.7703  -12.9115   -1.3893 H   0  0  0  0  0  0  0  0  0  0  0  0
   -2.8609  -12.5246   -2.7354 H   0  0  0  0  0  0  0  0  0  0  0  0
   -3.4603  -11.6395   -0.8612 C   0  0  0  0  0  0  0  0  0  0  0  0
   -4.3294  -12.2993   -0.8244 H   0  0  0  0  0  0  0  0  0  0  0  0
   -3.0322  -11.5431    0.1432 H   0  0  0  0  0  0  0  0  0  0  0  0
   -5.3139   -8.0943   -1.3583 N   0  0  0  0  0  0  0  0  0  0  0  0
   -4.7483   -6.7565   -1.4542 C   0  0  0  0  0  0  0  0  0  0  0  0
   -3.9580   -6.6202   -0.7039 H   0  0  0  0  0  0  0  0  0  0  0  0
   -5.5390   -6.0179   -1.2745 H   0  0  0  0  0  0  0  0  0  0  0  0
   -4.2623   -6.6394   -2.8958 C   0  0  0  0  0  0  0  0  0  0  0  0
   -4.1823   -5.6045   -3.2224 H   0  0  0  0  0  0  0  0  0  0  0  0
   -3.2897   -7.1163   -3.0062 H   0  0  0  0  0  0  0  0  0  0  0  0
   -5.3362   -7.4132   -3.6659 C   0  0  0  0  0  0  0  0  0  0  0  0
   -4.9348   -7.8909   -4.5575 H   0  0  0  0  0  0  0  0  0  0  0  0
   -6.1340   -6.7369   -3.9733 H   0  0  0  0  0  0  0  0  0  0  0  0
   -5.8799   -8.4442   -2.6585 C   0  0  0  0  0  0  0  0  0  0  0  0
   -6.9736   -8.3933   -2.6086 H   0  0  0  0  0  0  0  0  0  0  0  0
   -5.5971   -9.4650   -2.9216 H   0  0  0  0  0  0  0  0  0  0  0  0
   -6.0765  -10.2947    0.0541 C   0  0  0  0  0  0  0  0  0  0  0  0
   -5.7645  -11.1443    0.6559 H   0  0  0  0  0  0  0  0  0  0  0  0
   -6.5401  -10.6506   -0.8638 H   0  0  0  0  0  0  0  0  0  0  0  0
   -6.7843   -9.7058    0.6306 H   0  0  0  0  0  0  0  0  0  0  0  0
  1  4  1  0  0  0  0
  1  2  1  0  0  0  0
  3  1  1  0  0  0  0
  4 18  1  0  0  0  0
  4  5  1  0  0  0  0
  5  6  1  0  0  0  0
  6  8  1  0  0  0  0
  6  9  1  0  0  0  0
  6  7  1  0  0  0  0
  9 10  1  0  0  0  0
 11  9  1  0  0  0  0
 12 14  1  0  0  0  0
 12  9  1  0  0  0  0
 13 12  1  0  0  0  0
 15  5  1  0  0  0  0
 15 12  1  0  0  0  0
 16 15  1  0  0  0  0
 17 15  1  0  0  0  0
 18 19  1  0  0  0  0
 18 28  1  0  0  0  0
 19 22  1  0  0  0  0
 19 20  1  0  0  0  0
 21 19  1  0  0  0  0
 22 25  1  0  0  0  0
 22 23  1  0  0  0  0
 24 22  1  0  0  0  0
 25 26  1  0  0  0  0
 25 27  1  0  0  0  0
 28 29  1  0  0  0  0
 28 25  1  0  0  0  0
 30 28  1  0  0  0  0
 31 33  1  0  0  0  0
 31  4  1  0  0  0  0
 32 31  1  0  0  0  0
 34 31  1  0  0  0  0
 35 62  1  0  0  0  0
 35  1  1  0  0  0  0
 36 46  1  0  0  0  0
 36 35  1  0  0  0  0
 37 40  1  0  0  0  0
 37 39  1  0  0  0  0
 37 36  1  0  0  0  0
 38 37  1  0  0  0  0
 40 43  1  0  0  0  0
 40 42  1  0  0  0  0
 41 40  1  0  0  0  0
 43 44  1  0  0  0  0
 43 46  1  0  0  0  0
 45 43  1  0  0  0  0
 46 47  1  0  0  0  0
 46 48  1  0  0  0  0
 49 35  1  0  0  0  0
 50 49  1  0  0  0  0
 50 52  1  0  0  0  0
 50 51  1  0  0  0  0
 53 50  1  0  0  0  0
 54 53  1  0  0  0  0
 55 53  1  0  0  0  0
 56 53  1  0  0  0  0
 56 59  1  0  0  0  0
 57 56  1  0  0  0  0
 58 56  1  0  0  0  0
 59 60  1  0  0  0  0
 59 49  1  0  0  0  0
 61 59  1  0  0  0  0
 62 65  1  0  0  0  0
 62 63  1  0  0  0  0
 64 62  1  0  0  0  0
M  END
$$$$
