CSD_code = WOKDEF | q = 0 | S = 0 | Stoichiometry = C12H26Cl3N3Zr | MND = 6
 OpenBabel04212202113D

 45 47  0  0  1  0  0  0  0  0999 V2000
    7.7686    0.7794   14.6227 Zr  0  0  0  0  0  0  0  0  0  0  0  0
    6.7785    1.6769   12.6758 Cl  0  0  0  0  0  0  0  0  0  0  0  0
    5.8936    1.3215   15.9433 Cl  0  0  0  0  0  0  0  0  0  0  0  0
    6.8876   -1.3816   14.3038 Cl  0  0  0  0  0  0  0  0  0  0  0  0
    8.9010    0.5869   16.2567 N   0  0  2  0  0  0  0  0  0  0  0  0
    9.7496   -0.1615   13.7453 N   0  0  1  0  0  4  0  0  0  0  0  0
    9.1939    2.6999   14.5054 N   0  0  1  0  0  4  0  0  0  0  0  0
    9.1682    1.8714   16.8446 C   0  0  0  0  0  0  0  0  0  0  0  0
    9.8578    2.8227   15.8206 C   0  0  0  0  0  0  0  0  0  0  0  0
   10.1240    2.3059   13.4332 C   0  0  0  0  0  0  0  0  0  0  0  0
   10.7468    0.9105   13.6020 C   0  0  0  0  0  0  0  0  0  0  0  0
   10.0858   -1.0544   14.8776 C   0  0  0  0  0  0  0  0  0  0  0  0
   10.0227   -0.3186   16.2317 C   0  0  0  0  0  0  0  0  0  0  0  0
    8.4864    3.9502   14.1103 C   0  0  0  0  0  0  0  0  0  0  0  0
    7.3624    4.2710   15.0918 C   0  0  0  0  0  0  0  0  0  0  0  0
    9.4043    5.1674   13.9325 C   0  0  0  0  0  0  0  0  0  0  0  0
    9.5867   -0.9807   12.5080 C   0  0  0  0  0  0  0  0  0  0  0  0
    9.2497   -0.1235   11.2901 C   0  0  0  0  0  0  0  0  0  0  0  0
   10.7994   -1.8667   12.1874 C   0  0  0  0  0  0  0  0  0  0  0  0
    8.2059    2.3076   17.1473 H   0  0  0  0  0  0  0  0  0  0  0  0
    9.8060    1.7941   17.7413 H   0  0  0  0  0  0  0  0  0  0  0  0
    9.8123    3.8472   16.1951 H   0  0  0  0  0  0  0  0  0  0  0  0
   10.9159    2.5587   15.7322 H   0  0  0  0  0  0  0  0  0  0  0  0
    9.5588    2.3340   12.4953 H   0  0  0  0  0  0  0  0  0  0  0  0
   10.9599    3.0204   13.3596 H   0  0  0  0  0  0  0  0  0  0  0  0
   11.3861    0.7368   12.7286 H   0  0  0  0  0  0  0  0  0  0  0  0
   11.4037    0.9077   14.4753 H   0  0  0  0  0  0  0  0  0  0  0  0
    9.3411   -1.8568   14.8858 H   0  0  0  0  0  0  0  0  0  0  0  0
   11.0873   -1.4895   14.7558 H   0  0  0  0  0  0  0  0  0  0  0  0
    9.9278   -1.0872   17.0215 H   0  0  0  0  0  0  0  0  0  0  0  0
   10.9747    0.2076   16.4270 H   0  0  0  0  0  0  0  0  0  0  0  0
    8.0210    3.7410   13.1395 H   0  0  0  0  0  0  0  0  0  0  0  0
    6.7100    3.4038   15.2219 H   0  0  0  0  0  0  0  0  0  0  0  0
    6.7624    5.0842   14.6895 H   0  0  0  0  0  0  0  0  0  0  0  0
    7.7405    4.5838   16.0632 H   0  0  0  0  0  0  0  0  0  0  0  0
    8.7900    6.0249   13.6723 H   0  0  0  0  0  0  0  0  0  0  0  0
    9.9473    5.4140   14.8419 H   0  0  0  0  0  0  0  0  0  0  0  0
   10.1201    5.0219   13.1277 H   0  0  0  0  0  0  0  0  0  0  0  0
    8.7258   -1.6343   12.7014 H   0  0  0  0  0  0  0  0  0  0  0  0
    8.9619   -0.7807   10.4730 H   0  0  0  0  0  0  0  0  0  0  0  0
    8.4050    0.5312   11.4968 H   0  0  0  0  0  0  0  0  0  0  0  0
   10.1001    0.4664   10.9528 H   0  0  0  0  0  0  0  0  0  0  0  0
   11.7253   -1.2959   12.1512 H   0  0  0  0  0  0  0  0  0  0  0  0
   10.9132   -2.6738   12.9049 H   0  0  0  0  0  0  0  0  0  0  0  0
   10.6510   -2.3178   11.2103 H   0  0  0  0  0  0  0  0  0  0  0  0
  1  3  1  0  0  0  0
  1  5  1  0  0  0  0
  2  1  1  0  0  0  0
  4  1  1  0  0  0  0
  5 13  1  6  0  0  0
  5  8  1  0  0  0  0
  6 17  1  6  0  0  0
  6  1  1  0  0  0  0
  6 12  1  0  0  0  0
  7 14  1  6  0  0  0
  7  1  1  0  0  0  0
  7  9  1  0  0  0  0
  8 20  1  0  0  0  0
  8 21  1  0  0  0  0
  9 22  1  0  0  0  0
  9  8  1  0  0  0  0
 10 11  1  0  0  0  0
 10  7  1  0  0  0  0
 11  6  1  0  0  0  0
 11 27  1  0  0  0  0
 12 28  1  0  0  0  0
 12 13  1  0  0  0  0
 13 31  1  0  0  0  0
 13 30  1  0  0  0  0
 14 15  1  0  0  0  0
 15 33  1  0  0  0  0
 15 35  1  0  0  0  0
 16 14  1  0  0  0  0
 16 37  1  0  0  0  0
 17 39  1  0  0  0  0
 18 41  1  0  0  0  0
 18 17  1  0  0  0  0
 19 17  1  0  0  0  0
 19 44  1  0  0  0  0
 23  9  1  0  0  0  0
 24 10  1  0  0  0  0
 25 10  1  0  0  0  0
 26 11  1  0  0  0  0
 29 12  1  0  0  0  0
 32 14  1  0  0  0  0
 34 15  1  0  0  0  0
 36 16  1  0  0  0  0
 38 16  1  0  0  0  0
 40 18  1  0  0  0  0
 42 18  1  0  0  0  0
 43 19  1  0  0  0  0
 45 19  1  0  0  0  0
M  END
$$$$
