CSD_code = WOKMOZ | q = 0 | S = 0 | Stoichiometry = C26H36ClPPtS | MND = 4
 OpenBabel04212202113D

 66 69  0  0  0  0  0  0  0  0999 V2000
    2.6746    7.5023    5.0177 Pt  0  0  1  0  0  0  0  0  0  0  0  0
    3.4966    9.5708    5.5653 Cl  0  0  0  0  0  0  0  0  0  0  0  0
    4.7224    6.4378    6.1798 S   0  0  1  0  0  3  0  0  0  0  0  0
    1.8845    5.3740    4.8484 P   0  0  0  0  0  4  0  0  0  0  0  0
    5.1839    3.6566    6.5804 C   0  0  0  0  0  0  0  0  0  0  0  0
    6.1266    3.5012    6.0550 H   0  0  0  0  0  0  0  0  0  0  0  0
    5.4288    3.9002    7.6170 H   0  0  0  0  0  0  0  0  0  0  0  0
    4.3321    4.7334    5.9760 C   0  0  0  0  0  0  0  0  0  0  0  0
    3.1225    4.2526    5.5799 C   0  0  0  0  0  0  0  0  0  0  0  0
    3.0682    2.8259    5.9051 C   0  0  0  0  0  0  0  0  0  0  0  0
    2.0678    1.8693    5.7903 C   0  0  0  0  0  0  0  0  0  0  0  0
    1.0958    2.1095    5.3953 H   0  0  0  0  0  0  0  0  0  0  0  0
    2.3210    0.5738    6.2090 C   0  0  0  0  0  0  0  0  0  0  0  0
    1.5427   -0.1698    6.1209 H   0  0  0  0  0  0  0  0  0  0  0  0
    3.5503    0.2159    6.7399 C   0  0  0  0  0  0  0  0  0  0  0  0
    3.7244   -0.8017    7.0554 H   0  0  0  0  0  0  0  0  0  0  0  0
    4.5499    1.1657    6.8846 C   0  0  0  0  0  0  0  0  0  0  0  0
    5.5037    0.9017    7.3173 H   0  0  0  0  0  0  0  0  0  0  0  0
    4.2964    2.4599    6.4838 C   0  0  0  0  0  0  0  0  0  0  0  0
    1.4992    4.7076    3.1526 C   0  0  0  0  0  0  0  0  0  0  0  0
    0.7424    5.4099    2.7831 H   0  0  0  0  0  0  0  0  0  0  0  0
    2.7550    4.8942    2.3062 C   0  0  0  0  0  0  0  0  0  0  0  0
    3.5526    4.2391    2.6564 H   0  0  0  0  0  0  0  0  0  0  0  0
    3.0877    5.9301    2.3609 H   0  0  0  0  0  0  0  0  0  0  0  0
    2.5502    4.6604    1.2636 H   0  0  0  0  0  0  0  0  0  0  0  0
    0.9607    3.2901    3.0230 C   0  0  0  0  0  0  0  0  0  0  0  0
    0.6671    3.1170    1.9881 H   0  0  0  0  0  0  0  0  0  0  0  0
    0.0839    3.1332    3.6472 H   0  0  0  0  0  0  0  0  0  0  0  0
    1.7233    2.5591    3.2800 H   0  0  0  0  0  0  0  0  0  0  0  0
    0.4290    5.0272    5.9542 C   0  0  0  0  0  0  0  0  0  0  0  0
    0.3356    3.9472    6.1018 H   0  0  0  0  0  0  0  0  0  0  0  0
    0.7687    5.6908    7.2877 C   0  0  0  0  0  0  0  0  0  0  0  0
    1.0172    6.7444    7.1216 H   0  0  0  0  0  0  0  0  0  0  0  0
    1.6254    5.2058    7.7549 H   0  0  0  0  0  0  0  0  0  0  0  0
   -0.0741    5.6384    7.9741 H   0  0  0  0  0  0  0  0  0  0  0  0
   -0.8742    5.5777    5.3896 C   0  0  0  0  0  0  0  0  0  0  0  0
   -1.7002    5.3291    6.0546 H   0  0  0  0  0  0  0  0  0  0  0  0
   -1.0914    5.1655    4.4063 H   0  0  0  0  0  0  0  0  0  0  0  0
   -0.8182    6.6602    5.3099 H   0  0  0  0  0  0  0  0  0  0  0  0
    6.1593    6.8508    5.0424 C   0  0  0  0  0  0  0  0  0  0  0  0
    6.6518    8.1940    5.5633 C   0  0  0  0  0  0  0  0  0  0  0  0
    7.0404    8.0957    6.5751 H   0  0  0  0  0  0  0  0  0  0  0  0
    5.8386    8.9184    5.5733 H   0  0  0  0  0  0  0  0  0  0  0  0
    7.4437    8.5727    4.9201 H   0  0  0  0  0  0  0  0  0  0  0  0
    7.2547    5.8023    5.1384 C   0  0  0  0  0  0  0  0  0  0  0  0
    8.1443    6.1770    4.6339 H   0  0  0  0  0  0  0  0  0  0  0  0
    6.9619    4.8765    4.6473 H   0  0  0  0  0  0  0  0  0  0  0  0
    7.5152    5.6001    6.1752 H   0  0  0  0  0  0  0  0  0  0  0  0
    5.6162    6.9653    3.6290 C   0  0  0  0  0  0  0  0  0  0  0  0
    6.3735    7.3838    2.9682 H   0  0  0  0  0  0  0  0  0  0  0  0
    4.7461    7.6310    3.6165 H   0  0  0  0  0  0  0  0  0  0  0  0
    5.3244    5.9894    3.2445 H   0  0  0  0  0  0  0  0  0  0  0  0
    1.1814    8.4850    3.9401 C   0  0  0  0  0  0  0  0  0  0  0  0
    0.1789    8.1172    4.1763 H   0  0  0  0  0  0  0  0  0  0  0  0
    1.2517    9.5394    4.2223 H   0  0  0  0  0  0  0  0  0  0  0  0
    1.4859    8.3127    2.5035 C   0  0  0  0  0  0  0  0  0  0  0  0
    0.6186    7.6359    1.6446 C   0  0  0  0  0  0  0  0  0  0  0  0
   -0.3251    7.2676    2.0257 H   0  0  0  0  0  0  0  0  0  0  0  0
    0.9317    7.4597    0.3091 C   0  0  0  0  0  0  0  0  0  0  0  0
    0.2453    6.9323   -0.3390 H   0  0  0  0  0  0  0  0  0  0  0  0
    2.1156    7.9625   -0.2021 C   0  0  0  0  0  0  0  0  0  0  0  0
    2.3618    7.8204   -1.2443 H   0  0  0  0  0  0  0  0  0  0  0  0
    2.9728    8.6682    0.6286 C   0  0  0  0  0  0  0  0  0  0  0  0
    3.8871    9.0841    0.2294 H   0  0  0  0  0  0  0  0  0  0  0  0
    2.6595    8.8480    1.9607 C   0  0  0  0  0  0  0  0  0  0  0  0
    3.3150    9.4202    2.6031 H   0  0  0  0  0  0  0  0  0  0  0  0
  1  2  1  1  0  0  0
  1  3  1  0  0  0  0
  3 40  1  6  0  0  0
  4  1  1  0  0  0  0
  4  9  1  0  0  0  0
  4 30  1  0  0  0  0
  5  7  1  0  0  0  0
  6  5  1  0  0  0  0
  8  3  1  0  0  0  0
  8  5  1  0  0  0  0
  9 10  1  0  0  0  0
  9  8  2  0  0  0  0
 10 19  1  0  0  0  0
 11 10  2  0  0  0  0
 11 13  1  0  0  0  0
 12 11  1  0  0  0  0
 13 15  2  0  0  0  0
 14 13  1  0  0  0  0
 15 17  1  0  0  0  0
 15 16  1  0  0  0  0
 17 18  1  0  0  0  0
 19  5  1  0  0  0  0
 19 17  2  0  0  0  0
 20  4  1  0  0  0  0
 21 20  1  0  0  0  0
 22 24  1  0  0  0  0
 22 23  1  0  0  0  0
 22 20  1  0  0  0  0
 25 22  1  0  0  0  0
 26 20  1  0  0  0  0
 26 29  1  0  0  0  0
 26 28  1  0  0  0  0
 27 26  1  0  0  0  0
 30 31  1  0  0  0  0
 30 32  1  0  0  0  0
 32 34  1  0  0  0  0
 32 35  1  0  0  0  0
 33 32  1  0  0  0  0
 36 30  1  0  0  0  0
 36 37  1  0  0  0  0
 38 36  1  0  0  0  0
 39 36  1  0  0  0  0
 40 45  1  0  0  0  0
 40 41  1  0  0  0  0
 41 43  1  0  0  0  0
 41 42  1  0  0  0  0
 44 41  1  0  0  0  0
 45 48  1  0  0  0  0
 46 45  1  0  0  0  0
 47 45  1  0  0  0  0
 49 40  1  0  0  0  0
 50 49  1  0  0  0  0
 51 49  1  0  0  0  0
 52 49  1  0  0  0  0
 53 54  1  0  0  0  0
 53 55  1  0  0  0  0
 53  1  1  0  0  0  0
 56 53  1  0  0  0  0
 57 58  1  0  0  0  0
 57 56  2  0  0  0  0
 59 57  1  0  0  0  0
 60 59  1  0  0  0  0
 61 59  2  0  0  0  0
 61 63  1  0  0  0  0
 62 61  1  0  0  0  0
 63 65  2  0  0  0  0
 64 63  1  0  0  0  0
 65 56  1  0  0  0  0
 65 66  1  0  0  0  0
M  END
$$$$
