CSD_code = WOKPEU | q = 0 | S = 0 | Stoichiometry = C15H10ClN2O4Re | MND = 6
 OpenBabel04212202113D

 33 36  0  0  1  0  0  0  0  0999 V2000
    5.8762    7.1712    8.2722 Re  0  0  0  0  0  0  0  0  0  0  0  0
    6.6527    6.9296   10.4987 Cl  0  0  0  0  0  0  0  0  0  0  0  0
    4.9219    4.2367    8.2370 O   0  0  0  0  0  1  0  0  0  0  0  0
    8.7626    6.3244    7.5838 O   0  0  0  0  0  1  0  0  0  0  0  0
    4.8742    7.8531    5.4288 O   0  0  0  0  0  1  0  0  0  0  0  0
    3.3572    9.2522   10.8412 O   0  0  0  0  0  0  0  0  0  0  0  0
    6.2920    9.3302    8.7843 N   0  0  0  0  0  0  0  0  0  0  0  0
    4.1241    7.8384    9.2900 N   0  0  2  0  0  0  0  0  0  0  0  0
    5.2966    5.3166    8.1861 C   0  0  0  0  0  2  0  0  0  0  0  0
    7.6761    6.6442    7.7445 C   0  0  0  0  0  2  0  0  0  0  0  0
    5.2467    7.5764    6.4808 C   0  0  0  0  0  2  0  0  0  0  0  0
    7.3667   10.0939    8.4785 C   0  0  1  0  0  3  0  0  0  0  0  0
    8.1868    9.7551    7.3812 C   0  0  0  0  0  0  0  0  0  0  0  0
    7.9149    8.8974    6.7817 H   0  0  0  0  0  0  0  0  0  0  0  0
    9.2882   10.5061    7.0778 C   0  0  0  0  0  0  0  0  0  0  0  0
    9.9074   10.2346    6.2366 H   0  0  0  0  0  0  0  0  0  0  0  0
    9.6255   11.6297    7.8487 C   0  0  0  0  0  0  0  0  0  0  0  0
   10.5067   12.2011    7.5995 H   0  0  0  0  0  0  0  0  0  0  0  0
    8.8359   12.0022    8.9009 C   0  0  0  0  0  0  0  0  0  0  0  0
    9.0740   12.8742    9.4923 H   0  0  0  0  0  0  0  0  0  0  0  0
    7.6865   11.2595    9.2345 C   0  0  0  0  0  0  0  0  0  0  0  0
    6.8294   11.6305   10.2919 C   0  0  0  0  0  0  0  0  0  0  0  0
    7.0635   12.5019   10.8854 H   0  0  0  0  0  0  0  0  0  0  0  0
    5.7118   10.8860   10.5372 C   0  0  0  0  0  0  0  0  0  0  0  0
    5.0088   11.1291   11.3174 H   0  0  0  0  0  0  0  0  0  0  0  0
    5.4854    9.7363    9.7591 C   0  0  0  0  0  0  0  0  0  0  0  0
    4.3137    8.9068    9.9732 C   0  0  1  0  0  3  0  0  0  0  0  0
    2.3587    8.2287   10.7819 C   0  0  0  0  0  0  0  0  0  0  0  0
    1.4084    8.6959   10.5114 H   0  0  0  0  0  0  0  0  0  0  0  0
    2.2718    7.7769   11.7729 H   0  0  0  0  0  0  0  0  0  0  0  0
    2.8766    7.2416    9.7124 C   0  0  0  0  0  0  0  0  0  0  0  0
    3.0691    6.2437   10.1170 H   0  0  0  0  0  0  0  0  0  0  0  0
    2.2059    7.1423    8.8542 H   0  0  0  0  0  0  0  0  0  0  0  0
  1  7  1  0  0  0  0
  1  8  1  0  0  0  0
  1  2  1  0  0  0  0
  4 10  1  0  0  0  0
  5 11  1  0  0  0  0
  7 26  1  0  0  0  0
  8 31  1  1  0  0  0
  8 27  1  0  0  0  0
  9  3  1  0  0  0  0
  9  1  1  0  0  0  0
 10  1  1  0  0  0  0
 11  1  1  0  0  0  0
 12 13  1  6  0  0  0
 12  7  1  0  0  0  0
 12 21  1  0  0  0  0
 14 13  1  0  0  0  0
 15 13  2  0  0  0  0
 15 17  1  0  0  0  0
 16 15  1  0  0  0  0
 17 19  2  0  0  0  0
 18 17  1  0  0  0  0
 19 21  1  0  0  0  0
 19 20  1  0  0  0  0
 21 22  2  0  0  0  0
 22 24  1  0  0  0  0
 22 23  1  0  0  0  0
 24 25  1  0  0  0  0
 26 24  2  0  0  0  0
 27 26  1  6  0  0  0
 27  6  1  0  0  0  0
 28  6  1  0  0  0  0
 28 30  1  0  0  0  0
 29 28  1  0  0  0  0
 31 32  1  0  0  0  0
 31 28  1  0  0  0  0
 33 31  1  0  0  0  0
M  END
$$$$
