CSD_code = WOLNIX | q = 0 | S = 0 | Stoichiometry = C18H24Cl2N4O2RuS2 | MND = 6
 OpenBabel04212202113D

 53 56  0  0  0  0  0  0  0  0999 V2000
   -1.4618    5.3020    9.2213 Ru  0  0  0  0  0  0  0  0  0  0  0  0
   -0.7426    4.9336   11.4461 Cl  0  0  0  0  0  0  0  0  0  0  0  0
    0.0244    2.9282    8.1564 C   0  0  0  0  0  3  0  0  0  0  0  0
   -0.9460    2.4526    8.2364 H   0  0  0  0  0  0  0  0  0  0  0  0
    2.3585    2.8903    7.6369 C   0  0  0  0  0  0  0  0  0  0  0  0
    3.2416    2.3763    7.2900 H   0  0  0  0  0  0  0  0  0  0  0  0
   -0.0154    7.9073    9.5632 N   0  0  0  0  0  2  0  0  0  0  0  0
    1.2651    4.8436    8.4612 C   0  0  0  0  0  0  0  0  0  0  0  0
   -3.1401    6.5033   10.1487 S   0  0  0  0  0  0  0  0  0  0  0  0
   -2.1231    5.7304    7.0900 S   0  0  0  0  0  0  0  0  0  0  0  0
   -2.9715    3.5174    9.2170 Cl  0  0  0  0  0  0  0  0  0  0  0  0
    1.1363    2.2374    7.7054 C   0  0  0  0  0  0  0  0  0  0  0  0
    1.0410    1.2040    7.4146 H   0  0  0  0  0  0  0  0  0  0  0  0
   -0.0757    6.6793    9.1888 N   0  0  0  0  0  0  0  0  0  0  0  0
   -4.0277    7.1489    9.1807 O   0  0  0  0  0  1  0  0  0  0  0  0
   -1.1469    5.2170    6.1328 O   0  0  0  0  0  1  0  0  0  0  0  0
    0.0833    4.2001    8.5253 N   0  0  0  0  0  0  0  0  0  0  0  0
    1.2578    8.2847    9.5239 N   0  0  0  0  0  0  0  0  0  0  0  0
    2.4254    4.2170    8.0232 C   0  0  0  0  0  0  0  0  0  0  0  0
    3.3519    4.7680    7.9900 H   0  0  0  0  0  0  0  0  0  0  0  0
    1.1727    6.2207    8.8852 C   0  0  0  0  0  0  0  0  0  0  0  0
    2.0406    7.2688    9.1127 C   0  0  0  0  0  0  0  0  0  0  0  0
    3.1029    7.3542    9.0292 H   0  0  0  0  0  0  0  0  0  0  0  0
    1.6625    9.5550   10.0564 C   0  0  0  0  0  0  0  0  0  0  0  0
    0.7718   10.1907   10.0699 H   0  0  0  0  0  0  0  0  0  0  0  0
    2.4129   10.0043    9.4002 H   0  0  0  0  0  0  0  0  0  0  0  0
    2.2120    9.3983   11.4589 C   0  0  0  0  0  0  0  0  0  0  0  0
    3.3056   10.1492   11.8660 C   0  0  0  0  0  0  0  0  0  0  0  0
    3.7670   10.8440   11.1785 H   0  0  0  0  0  0  0  0  0  0  0  0
    2.1302    8.3670   13.6267 C   0  0  0  0  0  0  0  0  0  0  0  0
    1.6709    7.6641   14.3042 H   0  0  0  0  0  0  0  0  0  0  0  0
    3.8039   10.0145   13.1502 C   0  0  0  0  0  0  0  0  0  0  0  0
    4.6538   10.6043   13.4591 H   0  0  0  0  0  0  0  0  0  0  0  0
    3.2186    9.1212   14.0312 C   0  0  0  0  0  0  0  0  0  0  0  0
    3.6122    9.0120   15.0304 H   0  0  0  0  0  0  0  0  0  0  0  0
   -4.1894    5.5912   11.3108 C   0  0  0  0  0  0  0  0  0  0  0  0
   -4.9051    6.2773   11.7482 H   0  0  0  0  0  0  0  0  0  0  0  0
   -3.5301    5.1543   12.0539 H   0  0  0  0  0  0  0  0  0  0  0  0
   -4.6927    4.8067   10.7544 H   0  0  0  0  0  0  0  0  0  0  0  0
    1.6239    8.5059   12.3466 C   0  0  0  0  0  0  0  0  0  0  0  0
    0.7758    7.9088   12.0448 H   0  0  0  0  0  0  0  0  0  0  0  0
   -2.6071    7.7975   11.3098 C   0  0  0  0  0  0  0  0  0  0  0  0
   -2.0122    8.5115   10.7520 H   0  0  0  0  0  0  0  0  0  0  0  0
   -2.0028    7.3041   12.0631 H   0  0  0  0  0  0  0  0  0  0  0  0
   -3.4817    8.2718   11.7384 H   0  0  0  0  0  0  0  0  0  0  0  0
   -3.7686    5.1972    6.5549 C   0  0  0  0  0  0  0  0  0  0  0  0
   -3.8735    5.4057    5.4970 H   0  0  0  0  0  0  0  0  0  0  0  0
   -4.4825    5.7466    7.1583 H   0  0  0  0  0  0  0  0  0  0  0  0
   -3.8468    4.1332    6.7543 H   0  0  0  0  0  0  0  0  0  0  0  0
   -2.3052    7.5025    6.7029 C   0  0  0  0  0  0  0  0  0  0  0  0
   -2.5747    7.6004    5.6582 H   0  0  0  0  0  0  0  0  0  0  0  0
   -1.3506    7.9828    6.8902 H   0  0  0  0  0  0  0  0  0  0  0  0
   -3.0717    7.8983    7.3587 H   0  0  0  0  0  0  0  0  0  0  0  0
  1  9  1  0  0  0  0
  1  2  1  0  0  0  0
  3  4  1  0  0  0  0
  3 17  1  0  0  0  0
  5 12  2  0  0  0  0
  5 19  1  0  0  0  0
  6  5  1  0  0  0  0
  8 17  1  0  0  0  0
  8 21  1  0  0  0  0
  9 42  1  0  0  0  0
  9 36  1  0  0  0  0
 10  1  1  0  0  0  0
 11  1  1  0  0  0  0
 12  3  1  0  0  0  0
 13 12  1  0  0  0  0
 14  1  1  0  0  0  0
 14  7  1  0  0  0  0
 15  9  1  0  0  0  0
 16 10  1  0  0  0  0
 17  1  1  0  0  0  0
 18  7  1  0  0  0  0
 18 24  1  0  0  0  0
 19  8  2  0  0  0  0
 20 19  1  0  0  0  0
 21 22  2  0  0  0  0
 21 14  1  0  0  0  0
 22 18  1  0  0  0  0
 23 22  1  0  0  0  0
 24 25  1  0  0  0  0
 24 27  1  0  0  0  0
 26 24  1  0  0  0  0
 27 28  2  0  0  0  0
 27 40  1  0  0  0  0
 28 32  1  0  0  0  0
 29 28  1  0  0  0  0
 30 34  1  0  0  0  0
 30 31  1  0  0  0  0
 32 33  1  0  0  0  0
 32 34  2  0  0  0  0
 34 35  1  0  0  0  0
 36 37  1  0  0  0  0
 36 38  1  0  0  0  0
 39 36  1  0  0  0  0
 40 30  2  0  0  0  0
 41 40  1  0  0  0  0
 42 45  1  0  0  0  0
 42 44  1  0  0  0  0
 43 42  1  0  0  0  0
 46 49  1  0  0  0  0
 46 10  1  0  0  0  0
 46 48  1  0  0  0  0
 47 46  1  0  0  0  0
 50 52  1  0  0  0  0
 50 10  1  0  0  0  0
 50 53  1  0  0  0  0
 51 50  1  0  0  0  0
M  END
$$$$
