CSD_code = WOLQUL | q = 0 | S = 0 | Stoichiometry = C25H37ClN2O2RuS | MND = 9
 OpenBabel04212202113D

 69 71  0  0  1  0  0  0  0  0999 V2000
    6.8054    4.0935   14.3457 Ru  0  0  0  0  0  0  0  0  0  0  0  0
    5.8113    4.5310   12.3004 Cl  0  0  0  0  0 15  0  0  0  0  0  0
    6.0125    6.9495   15.0646 S   0  0  0  0  0  0  0  0  0  0  0  0
    7.2185    6.1039   14.4412 N   0  0  0  0  0  0  0  0  0  0  0  0
    8.6071    4.0817   13.1579 N   0  0  0  0  0  4  0  0  0  0  0  0
    8.9471    3.1189   13.1158 H   0  0  0  0  0  0  0  0  0  0  0  0
    8.2329    4.3078   12.2263 H   0  0  0  0  0  0  0  0  0  0  0  0
    4.8436    6.1048   14.9996 O   0  0  0  0  0  0  0  0  0  0  0  0
    6.3378    7.5027   16.3665 O   0  0  0  0  0  0  0  0  0  0  0  0
    8.5349    6.6467   14.5813 C   0  0  2  0  0  0  0  0  0  0  0  0
    8.4272    7.7081   14.8267 H   0  0  0  0  0  0  0  0  0  0  0  0
    9.3633    6.4464   13.2879 C   0  0  0  0  0  0  0  0  0  0  0  0
    9.7686    4.9546   13.4312 C   0  0  1  0  0  0  0  0  0  0  0  0
   10.1348    4.8130   14.9211 C   0  0  0  0  0  0  0  0  0  0  0  0
   11.2088    4.9378   15.0574 H   0  0  0  0  0  0  0  0  0  0  0  0
    9.8730    3.8155   15.2747 H   0  0  0  0  0  0  0  0  0  0  0  0
    9.3538    5.9090   15.6635 C   0  0  0  0  0  0  0  0  0  0  0  0
   10.0255    6.6026   16.1663 H   0  0  0  0  0  0  0  0  0  0  0  0
    8.6714    5.5043   16.4085 H   0  0  0  0  0  0  0  0  0  0  0  0
   10.5905    7.3628   13.3176 C   0  0  0  0  0  0  0  0  0  0  0  0
   11.2661    7.1170   14.1306 H   0  0  0  0  0  0  0  0  0  0  0  0
   10.2636    8.3915   13.4497 H   0  0  0  0  0  0  0  0  0  0  0  0
   11.1340    7.3042   12.3778 H   0  0  0  0  0  0  0  0  0  0  0  0
    8.5612    6.7659   12.0285 C   0  0  0  0  0  0  0  0  0  0  0  0
    9.1023    6.4582   11.1359 H   0  0  0  0  0  0  0  0  0  0  0  0
    8.3969    7.8396   11.9733 H   0  0  0  0  0  0  0  0  0  0  0  0
    7.5839    6.2897   12.0468 H   0  0  0  0  0  0  0  0  0  0  0  0
   10.9063    4.5152   12.5084 C   0  0  0  0  0  0  0  0  0  0  0  0
   10.6185    4.6302   11.4660 H   0  0  0  0  0  0  0  0  0  0  0  0
   11.1496    3.4683   12.6862 H   0  0  0  0  0  0  0  0  0  0  0  0
   11.8027    5.1000   12.6854 H   0  0  0  0  0  0  0  0  0  0  0  0
    5.8089    8.3190   13.9301 C   0  0  0  0  0  0  0  0  0  0  0  0
    5.2882    8.0677   12.6756 C   0  0  0  0  0  0  0  0  0  0  0  0
    4.9674    7.0679   12.4313 H   0  0  0  0  0  0  0  0  0  0  0  0
    5.1935    9.1007   11.7609 C   0  0  0  0  0  0  0  0  0  0  0  0
    4.7865    8.9099   10.7787 H   0  0  0  0  0  0  0  0  0  0  0  0
    5.6222   10.3830   12.0900 C   0  0  0  0  0  0  0  0  0  0  0  0
    6.1437   10.6135   13.3583 C   0  0  0  0  0  0  0  0  0  0  0  0
    6.4774   11.6063   13.6258 H   0  0  0  0  0  0  0  0  0  0  0  0
    6.2386    9.5839   14.2788 C   0  0  0  0  0  0  0  0  0  0  0  0
    6.6304    9.7444   15.2715 H   0  0  0  0  0  0  0  0  0  0  0  0
    5.4998   11.5036   11.1018 C   0  0  0  0  0  0  0  0  0  0  0  0
    5.5717   11.1312   10.0828 H   0  0  0  0  0  0  0  0  0  0  0  0
    6.2729   12.2514   11.2626 H   0  0  0  0  0  0  0  0  0  0  0  0
    4.5312   11.9915   11.2142 H   0  0  0  0  0  0  0  0  0  0  0  0
    6.0519    1.9601   14.5702 C   0  0  2  0  0  3  0  0  0  0  0  0
    7.2694    2.1520   15.2726 C   0  0  2  0  0  0  0  0  0  0  0  0
    8.1117    1.4939   15.0674 H   0  0  0  0  0  0  0  0  0  0  0  0
    7.3490    3.0205   16.3921 C   0  0  0  0  0  0  0  0  0  0  0  0
    8.2534    3.0378   16.9903 H   0  0  0  0  0  0  0  0  0  0  0  0
    6.2383    3.7769   16.7852 C   0  0  0  0  0  0  0  0  0  0  0  0
    5.0299    3.6126   16.0679 C   0  0  0  0  0  0  0  0  0  0  0  0
    4.1535    4.1612   16.3830 H   0  0  0  0  0  0  0  0  0  0  0  0
    4.9461    2.7363   14.9855 C   0  0  0  0  0  0  0  0  0  0  0  0
    3.9908    2.5989   14.4901 H   0  0  0  0  0  0  0  0  0  0  0  0
    5.8905    0.8755   13.5274 C   0  0  0  0  0  0  0  0  0  0  0  0
    4.8878    0.9718   13.0982 H   0  0  0  0  0  0  0  0  0  0  0  0
    6.8972    1.0297   12.3853 C   0  0  0  0  0  0  0  0  0  0  0  0
    6.7987    2.0240   11.9488 H   0  0  0  0  0  0  0  0  0  0  0  0
    6.6966    0.2920   11.6122 H   0  0  0  0  0  0  0  0  0  0  0  0
    7.9166    0.8787   12.7377 H   0  0  0  0  0  0  0  0  0  0  0  0
    6.0030   -0.5036   14.1851 C   0  0  0  0  0  0  0  0  0  0  0  0
    6.9968   -0.6563   14.6012 H   0  0  0  0  0  0  0  0  0  0  0  0
    5.8162   -1.2831   13.4504 H   0  0  0  0  0  0  0  0  0  0  0  0
    5.2758   -0.6046   14.9881 H   0  0  0  0  0  0  0  0  0  0  0  0
    6.2836    4.6911   17.9674 C   0  0  0  0  0  0  0  0  0  0  0  0
    5.4237    4.5187   18.6129 H   0  0  0  0  0  0  0  0  0  0  0  0
    6.2346    5.7295   17.6266 H   0  0  0  0  0  0  0  0  0  0  0  0
    7.1975    4.5529   18.5427 H   0  0  0  0  0  0  0  0  0  0  0  0
  1  4  1  0  0  0  0
  1 47  1  0  0  0  0
  3  9  2  0  0  0  0
  4 10  1  0  0  0  0
  4  3  1  0  0  0  0
  5 13  1  0  0  0  0
  5  1  1  0  0  0  0
  6  5  1  0  0  0  0
  7  5  1  0  0  0  0
  8  3  2  0  0  0  0
 10 11  1  1  0  0  0
 10 17  1  0  0  0  0
 12 20  1  0  0  0  0
 12 13  1  0  0  0  0
 12 10  1  0  0  0  0
 13 28  1  6  0  0  0
 13 14  1  0  0  0  0
 14 15  1  0  0  0  0
 14 16  1  0  0  0  0
 14 17  1  0  0  0  0
 17 18  1  0  0  0  0
 17 19  1  0  0  0  0
 20 22  1  0  0  0  0
 20 21  1  0  0  0  0
 23 20  1  0  0  0  0
 24 27  1  0  0  0  0
 24 12  1  0  0  0  0
 25 24  1  0  0  0  0
 26 24  1  0  0  0  0
 28 31  1  0  0  0  0
 28 30  1  0  0  0  0
 29 28  1  0  0  0  0
 32 40  1  0  0  0  0
 32  3  1  0  0  0  0
 33 32  2  0  0  0  0
 34 33  1  0  0  0  0
 35 37  2  0  0  0  0
 35 33  1  0  0  0  0
 36 35  1  0  0  0  0
 37 38  1  0  0  0  0
 38 39  1  0  0  0  0
 38 40  2  0  0  0  0
 40 41  1  0  0  0  0
 42 45  1  0  0  0  0
 42 44  1  0  0  0  0
 42 37  1  0  0  0  0
 43 42  1  0  0  0  0
 46 56  1  1  0  0  0
 46 54  1  0  0  0  0
 46 47  1  0  0  0  0
 47 48  1  6  0  0  0
 47 49  1  0  0  0  0
 49 51  2  0  0  0  0
 49 50  1  0  0  0  0
 51 66  1  0  0  0  0
 52 53  1  0  0  0  0
 52 51  1  0  0  0  0
 54 52  2  0  0  0  0
 55 54  1  0  0  0  0
 56 62  1  0  0  0  0
 57 56  1  0  0  0  0
 58 61  1  0  0  0  0
 58 56  1  0  0  0  0
 59 58  1  0  0  0  0
 60 58  1  0  0  0  0
 62 63  1  0  0  0  0
 62 65  1  0  0  0  0
 64 62  1  0  0  0  0
 66 69  1  0  0  0  0
 66 67  1  0  0  0  0
 68 66  1  0  0  0  0
M  END
$$$$
