CSD_code = WOLRAQ | q = 0 | S = 0 | Stoichiometry = C14H9ClN3O3Re | MND = 6
 OpenBabel04212202113D

 31 33  0  0  0  0  0  0  0  0999 V2000
   11.6065    1.8227    3.0391 Re  0  0  0  0  0  0  0  0  0  0  0  0
   10.0161    2.0283    4.8147 Cl  0  0  0  0  0  0  0  0  0  0  0  0
   12.8128    5.3699    5.0498 C   0  0  0  0  0  0  0  0  0  0  0  0
   13.8356    5.8603    5.8359 C   0  0  0  0  0  0  0  0  0  0  0  0
   15.1120    5.3296    5.7309 C   0  0  0  0  0  0  0  0  0  0  0  0
   15.3642    4.3021    4.8335 C   0  0  0  0  0  0  0  0  0  0  0  0
   14.3465    3.7902    4.0546 C   0  0  0  0  0  0  0  0  0  0  0  0
   13.0575    4.3192    4.1617 C   0  0  0  0  0  0  0  0  0  0  0  0
   12.0149    3.7932    3.3922 N   0  0  0  0  0  0  0  0  0  0  0  0
   11.1317    4.6653    3.0788 N   0  0  0  0  0  0  0  0  0  0  0  0
   10.0842    4.1968    2.3492 C   0  0  0  0  0  0  0  0  0  0  0  0
    9.0562    5.0742    1.9869 C   0  0  0  0  0  0  0  0  0  0  0  0
    8.0071    4.5911    1.2378 C   0  0  0  0  0  0  0  0  0  0  0  0
    8.0190    3.2527    0.8560 C   0  0  0  0  0  0  0  0  0  0  0  0
    9.0726    2.4488    1.2500 C   0  0  0  0  0  0  0  0  0  0  0  0
   10.0860    2.8943    1.9826 N   0  0  0  0  0  0  0  0  0  0  0  0
   12.8016    1.6244    1.5141 C   0  0  0  0  0  2  0  0  0  0  0  0
   13.5059    1.5412    0.6109 O   0  0  0  0  0  1  0  0  0  0  0  0
   12.8892    1.1396    4.3461 C   0  0  0  0  0  2  0  0  0  0  0  0
   13.5676    0.8016    5.1995 O   0  0  0  0  0  1  0  0  0  0  0  0
   10.7067    0.0739    2.8952 C   0  0  0  0  0  2  0  0  0  0  0  0
   10.0257   -0.8367    2.9350 O   0  0  0  0  0  1  0  0  0  0  0  0
   11.8093    5.7592    5.1305 H   0  0  0  0  0  0  0  0  0  0  0  0
   13.6365    6.6573    6.5363 H   0  0  0  0  0  0  0  0  0  0  0  0
   15.9094    5.7147    6.3481 H   0  0  0  0  0  0  0  0  0  0  0  0
   16.3599    3.8959    4.7425 H   0  0  0  0  0  0  0  0  0  0  0  0
   14.5416    3.0021    3.3398 H   0  0  0  0  0  0  0  0  0  0  0  0
    9.1127    6.0976    2.3190 H   0  0  0  0  0  0  0  0  0  0  0  0
    7.1908    5.2366    0.9524 H   0  0  0  0  0  0  0  0  0  0  0  0
    7.2184    2.8351    0.2675 H   0  0  0  0  0  0  0  0  0  0  0  0
    9.1047    1.4041    0.9685 H   0  0  0  0  0  0  0  0  0  0  0  0
  1  9  1  0  0  0  0
  1 19  1  0  0  0  0
  1  2  1  0  0  0  0
  3 23  1  0  0  0  0
  3  4  1  0  0  0  0
  4 24  1  0  0  0  0
  5  4  2  0  0  0  0
  5 25  1  0  0  0  0
  6  5  1  0  0  0  0
  7  8  1  0  0  0  0
  7  6  2  0  0  0  0
  8  3  2  0  0  0  0
  9  8  1  0  0  0  0
 10  9  1  0  0  0  0
 11 10  2  0  0  0  0
 12 28  1  0  0  0  0
 12 11  1  0  0  0  0
 13 12  2  0  0  0  0
 14 13  1  0  0  0  0
 14 15  2  0  0  0  0
 15 16  1  0  0  0  0
 16 11  1  0  0  0  0
 16  1  1  0  0  0  0
 17  1  1  0  0  0  0
 18 17  1  0  0  0  0
 19 20  1  0  0  0  0
 21 22  1  0  0  0  0
 21  1  1  0  0  0  0
 26  6  1  0  0  0  0
 27  7  1  0  0  0  0
 29 13  1  0  0  0  0
 30 14  1  0  0  0  0
 31 15  1  0  0  0  0
M  END
$$$$
