CSD_code = WOMKAK | q = 0 | S = 0 | Stoichiometry = C26H26Br2Cl2N4Pd | MND = 4
 OpenBabel04212202113D

 61 64  0  0  1  0  0  0  0  0999 V2000
    9.4671    4.9204    7.0585 Pd  0  0  0  0  0  0  0  0  0  0  0  0
   11.9063    5.3530    8.9841 Br  0  0  0  0  0  0  0  0  0  0  0  0
    7.1747    5.1368    4.9277 Br  0  0  0  0  0  0  0  0  0  0  0  0
    8.9725    2.7773    7.7425 Cl  0  0  0  0  0  0  0  0  0  0  0  0
    9.9644    7.0715    6.3703 Cl  0  0  0  0  0  0  0  0  0  0  0  0
    9.1990    5.6344    8.9043 N   0  0  0  0  0  0  0  0  0  0  0  0
    6.9304    5.5487    8.6008 N   0  0  0  0  0  0  0  0  0  0  0  0
    9.7578    4.3116    5.1800 N   0  0  0  0  0  0  0  0  0  0  0  0
   11.8241    3.5161    5.7653 N   0  0  0  0  0  0  0  0  0  0  0  0
   10.2497    5.9798    9.6339 C   0  0  1  0  0  3  0  0  0  0  0  0
   10.1948    6.7239   10.7881 C   0  0  0  0  0  0  0  0  0  0  0  0
    8.9331    7.1561   11.1954 C   0  0  0  0  0  0  0  0  0  0  0  0
    7.8212    6.7964   10.4755 C   0  0  0  0  0  0  0  0  0  0  0  0
    7.9672    5.9990    9.3206 C   0  0  0  0  0  0  0  0  0  0  0  0
    5.5713    6.0286    8.7367 C   0  0  2  0  0  0  0  0  0  0  0  0
    4.6712    5.2508    7.7802 C   0  0  0  0  0  0  0  0  0  0  0  0
    5.4939    7.5145    8.4458 C   0  0  0  0  0  0  0  0  0  0  0  0
    6.3428    8.0963    7.5131 C   0  0  0  0  0  0  0  0  0  0  0  0
    6.2628    9.4514    7.2485 C   0  0  0  0  0  0  0  0  0  0  0  0
    5.3314   10.2365    7.9065 C   0  0  0  0  0  0  0  0  0  0  0  0
    4.4777    9.6606    8.8316 C   0  0  0  0  0  0  0  0  0  0  0  0
    4.5611    8.3061    9.1013 C   0  0  0  0  0  0  0  0  0  0  0  0
    8.8449    4.5718    4.2557 C   0  0  1  0  0  3  0  0  0  0  0  0
    9.0397    4.4460    2.9012 C   0  0  0  0  0  0  0  0  0  0  0  0
   10.3058    4.0347    2.4862 C   0  0  0  0  0  0  0  0  0  0  0  0
   11.2678    3.7356    3.4182 C   0  0  0  0  0  0  0  0  0  0  0  0
   10.9679    3.8558    4.7919 C   0  0  0  0  0  0  0  0  0  0  0  0
   13.2318    3.2480    5.5613 C   0  0  2  0  0  0  0  0  0  0  0  0
   13.8611    2.8586    6.8965 C   0  0  0  0  0  0  0  0  0  0  0  0
   13.9314    4.4618    4.9815 C   0  0  0  0  0  0  0  0  0  0  0  0
   15.0133    4.3035    4.1266 C   0  0  0  0  0  0  0  0  0  0  0  0
   15.6622    5.4090    3.6056 C   0  0  0  0  0  0  0  0  0  0  0  0
   15.2305    6.6833    3.9315 C   0  0  0  0  0  0  0  0  0  0  0  0
   14.1526    6.8469    4.7845 C   0  0  0  0  0  0  0  0  0  0  0  0
   13.5074    5.7427    5.3107 C   0  0  0  0  0  0  0  0  0  0  0  0
    7.1478    4.9428    7.8037 H   0  0  0  0  0  0  0  0  0  0  0  0
   11.4890    3.6060    6.7295 H   0  0  0  0  0  0  0  0  0  0  0  0
   11.0907    6.9682   11.3324 H   0  0  0  0  0  0  0  0  0  0  0  0
    8.8368    7.7673   12.0789 H   0  0  0  0  0  0  0  0  0  0  0  0
    6.8412    7.1248   10.7732 H   0  0  0  0  0  0  0  0  0  0  0  0
    5.2341    5.8409    9.7668 H   0  0  0  0  0  0  0  0  0  0  0  0
    4.7706    4.1823    7.9534 H   0  0  0  0  0  0  0  0  0  0  0  0
    4.9363    5.4711    6.7488 H   0  0  0  0  0  0  0  0  0  0  0  0
    3.6349    5.5365    7.9382 H   0  0  0  0  0  0  0  0  0  0  0  0
    7.0789    7.4978    6.9944 H   0  0  0  0  0  0  0  0  0  0  0  0
    6.9340    9.8925    6.5275 H   0  0  0  0  0  0  0  0  0  0  0  0
    5.2712   11.2949    7.7006 H   0  0  0  0  0  0  0  0  0  0  0  0
    3.7490   10.2675    9.3488 H   0  0  0  0  0  0  0  0  0  0  0  0
    3.8970    7.8592    9.8287 H   0  0  0  0  0  0  0  0  0  0  0  0
    8.2505    4.6734    2.2056 H   0  0  0  0  0  0  0  0  0  0  0  0
   10.5213    3.9478    1.4329 H   0  0  0  0  0  0  0  0  0  0  0  0
   12.2513    3.4228    3.1151 H   0  0  0  0  0  0  0  0  0  0  0  0
   13.3316    2.4019    4.8657 H   0  0  0  0  0  0  0  0  0  0  0  0
   13.3226    2.0242    7.3385 H   0  0  0  0  0  0  0  0  0  0  0  0
   13.8391    3.7011    7.5839 H   0  0  0  0  0  0  0  0  0  0  0  0
   14.8960    2.5663    6.7430 H   0  0  0  0  0  0  0  0  0  0  0  0
   15.3489    3.3089    3.8662 H   0  0  0  0  0  0  0  0  0  0  0  0
   16.5022    5.2746    2.9401 H   0  0  0  0  0  0  0  0  0  0  0  0
   15.7330    7.5461    3.5200 H   0  0  0  0  0  0  0  0  0  0  0  0
   13.8071    7.8364    5.0423 H   0  0  0  0  0  0  0  0  0  0  0  0
   12.6645    5.8874    5.9722 H   0  0  0  0  0  0  0  0  0  0  0  0
  1  4  1  0  0  0  0
  1  6  1  0  0  0  0
  5  1  1  0  0  0  0
  6 14  1  0  0  0  0
  6 10  1  0  0  0  0
  7 15  1  0  0  0  0
  7 14  1  0  0  0  0
  8  1  1  0  0  0  0
  9 37  1  0  0  0  0
 10  2  1  1  0  0  0
 10 11  1  0  0  0  0
 11 12  2  0  0  0  0
 11 38  1  0  0  0  0
 12 39  1  0  0  0  0
 13 40  1  0  0  0  0
 13 12  1  0  0  0  0
 14 13  2  0  0  0  0
 15 41  1  1  0  0  0
 16 44  1  0  0  0  0
 16 42  1  0  0  0  0
 16 15  1  0  0  0  0
 17 15  1  0  0  0  0
 17 22  1  0  0  0  0
 18 17  2  0  0  0  0
 19 18  1  0  0  0  0
 19 20  2  0  0  0  0
 20 21  1  0  0  0  0
 21 22  2  0  0  0  0
 21 48  1  0  0  0  0
 22 49  1  0  0  0  0
 23  3  1  1  0  0  0
 23  8  1  0  0  0  0
 24 23  1  0  0  0  0
 25 24  2  0  0  0  0
 25 26  1  0  0  0  0
 26 27  2  0  0  0  0
 27  8  1  0  0  0  0
 27  9  1  0  0  0  0
 28 53  1  6  0  0  0
 28  9  1  0  0  0  0
 28 29  1  0  0  0  0
 29 54  1  0  0  0  0
 29 55  1  0  0  0  0
 30 35  1  0  0  0  0
 30 28  1  0  0  0  0
 31 30  2  0  0  0  0
 32 33  2  0  0  0  0
 32 31  1  0  0  0  0
 33 34  1  0  0  0  0
 34 60  1  0  0  0  0
 34 35  2  0  0  0  0
 35 61  1  0  0  0  0
 36  7  1  0  0  0  0
 43 16  1  0  0  0  0
 45 18  1  0  0  0  0
 46 19  1  0  0  0  0
 47 20  1  0  0  0  0
 50 24  1  0  0  0  0
 51 25  1  0  0  0  0
 52 26  1  0  0  0  0
 56 29  1  0  0  0  0
 57 31  1  0  0  0  0
 58 32  1  0  0  0  0
 59 33  1  0  0  0  0
M  END
$$$$
