CSD_code = WOMTEX | q = 0 | S = 0 | Stoichiometry = C29H22I2O3P2W | MND = 7
 OpenBabel04212202113D

 59 63  0  0  0  0  0  0  0  0999 V2000
    2.7253   10.0814    1.0050 W   0  0  0  0  0  0  0  0  0  0  0  0
    5.3458    9.1401    0.6782 I   0  0  0  0  0  0  0  0  0  0  0  0
    2.4187    8.3145    3.1664 I   0  0  0  0  0 15  0  0  0  0  0  0
    3.6605   11.8342   -0.4465 P   0  0  0  0  0  4  0  0  0  0  0  0
    4.8938   12.8396    0.4275 C   0  0  0  0  0  0  0  0  0  0  0  0
    5.5200   13.5070   -0.1560 H   0  0  0  0  0  0  0  0  0  0  0  0
    4.9137   12.7958    1.7580 C   0  0  0  0  0  0  0  0  0  0  0  0
    5.5978   13.3928    2.3535 H   0  0  0  0  0  0  0  0  0  0  0  0
    3.7990   11.6512    2.6327 P   0  0  0  0  0  4  0  0  0  0  0  0
    0.9184   10.7911    1.4374 C   0  0  0  0  0  0  0  0  0  0  0  0
   -0.1007   11.2800    1.7684 O   0  0  0  0  0  0  0  0  0  0  0  0
    1.2393   10.5446   -0.2199 C   0  0  0  0  0  0  0  0  0  0  0  0
    0.4556   10.7816   -1.0755 O   0  0  0  0  0  0  0  0  0  0  0  0
    2.0768    8.6417   -0.2344 C   0  0  0  0  0  2  0  0  0  0  0  0
    1.6791    7.9010   -1.0245 O   0  0  0  0  0  1  0  0  0  0  0  0
    2.5521   13.1981   -0.9406 C   0  0  0  0  0  0  0  0  0  0  0  0
    1.7050   13.7053    0.0417 C   0  0  0  0  0  0  0  0  0  0  0  0
    1.7267   13.2874    1.0439 H   0  0  0  0  0  0  0  0  0  0  0  0
    0.8347   14.7355   -0.2539 C   0  0  0  0  0  0  0  0  0  0  0  0
    0.1752   15.1157    0.5116 H   0  0  0  0  0  0  0  0  0  0  0  0
    0.8059   15.2658   -1.5345 C   0  0  0  0  0  0  0  0  0  0  0  0
    0.1177   16.0629   -1.7716 H   0  0  0  0  0  0  0  0  0  0  0  0
    1.6566   14.7735   -2.5099 C   0  0  0  0  0  0  0  0  0  0  0  0
    1.6352   15.1883   -3.5066 H   0  0  0  0  0  0  0  0  0  0  0  0
    2.5350   13.7444   -2.2183 C   0  0  0  0  0  0  0  0  0  0  0  0
    3.1955   13.3609   -2.9833 H   0  0  0  0  0  0  0  0  0  0  0  0
    4.4200   11.3056   -1.9997 C   0  0  0  0  0  0  0  0  0  0  0  0
    5.7884   11.3582   -2.2380 C   0  0  0  0  0  0  0  0  0  0  0  0
    6.4578   11.7697   -1.4964 H   0  0  0  0  0  0  0  0  0  0  0  0
    6.2938   10.8454   -3.4195 C   0  0  0  0  0  0  0  0  0  0  0  0
    7.3567   10.8797   -3.6030 H   0  0  0  0  0  0  0  0  0  0  0  0
    5.4447   10.2744   -4.3527 C   0  0  0  0  0  0  0  0  0  0  0  0
    5.8467    9.8684   -5.2684 H   0  0  0  0  0  0  0  0  0  0  0  0
    4.0812   10.2061   -4.1086 C   0  0  0  0  0  0  0  0  0  0  0  0
    3.4215    9.7477   -4.8296 H   0  0  0  0  0  0  0  0  0  0  0  0
    3.5667   10.7136   -2.9315 C   0  0  0  0  0  0  0  0  0  0  0  0
    2.5028   10.6579   -2.7290 H   0  0  0  0  0  0  0  0  0  0  0  0
    4.8881   11.1090    3.9889 C   0  0  0  0  0  0  0  0  0  0  0  0
    6.2486   10.9418    3.7386 C   0  0  0  0  0  0  0  0  0  0  0  0
    6.6602   11.1693    2.7649 H   0  0  0  0  0  0  0  0  0  0  0  0
    7.0777   10.4582    4.7329 C   0  0  0  0  0  0  0  0  0  0  0  0
    8.1284   10.3219    4.5277 H   0  0  0  0  0  0  0  0  0  0  0  0
    6.5588   10.1343    5.9752 C   0  0  0  0  0  0  0  0  0  0  0  0
    7.2070    9.7458    6.7459 H   0  0  0  0  0  0  0  0  0  0  0  0
    5.2067   10.2988    6.2256 C   0  0  0  0  0  0  0  0  0  0  0  0
    4.7964   10.0390    7.1893 H   0  0  0  0  0  0  0  0  0  0  0  0
    4.3687   10.7817    5.2381 C   0  0  0  0  0  0  0  0  0  0  0  0
    3.3145   10.8951    5.4422 H   0  0  0  0  0  0  0  0  0  0  0  0
    2.6532   12.7844    3.4839 C   0  0  0  0  0  0  0  0  0  0  0  0
    2.7995   14.1679    3.4551 C   0  0  0  0  0  0  0  0  0  0  0  0
    3.6268   14.6195    2.9256 H   0  0  0  0  0  0  0  0  0  0  0  0
    1.8696   14.9719    4.0894 C   0  0  0  0  0  0  0  0  0  0  0  0
    1.9849   16.0454    4.0586 H   0  0  0  0  0  0  0  0  0  0  0  0
    0.7953   14.4063    4.7560 C   0  0  0  0  0  0  0  0  0  0  0  0
    0.0712   15.0394    5.2461 H   0  0  0  0  0  0  0  0  0  0  0  0
    0.6448   13.0295    4.7855 C   0  0  0  0  0  0  0  0  0  0  0  0
   -0.1957   12.5836    5.2949 H   0  0  0  0  0  0  0  0  0  0  0  0
    1.5648   12.2192    4.1469 C   0  0  0  0  0  0  0  0  0  0  0  0
    1.4254   11.1454    4.1555 H   0  0  0  0  0  0  0  0  0  0  0  0
  1 10  1  0  0  0  0
  1  9  1  0  0  0  0
  2  1  1  0  0  0  0
  4  5  1  0  0  0  0
  4  1  1  0  0  0  0
  5  7  2  0  0  0  0
  6  5  1  0  0  0  0
  7  8  1  0  0  0  0
  7  9  1  0  0  0  0
  9 49  1  0  0  0  0
  9 38  1  0  0  0  0
 10 11  2  0  0  0  0
 12  1  1  0  0  0  0
 12 10  1  0  0  0  0
 13 12  2  0  0  0  0
 14  1  1  0  0  0  0
 15 14  1  0  0  0  0
 16  4  1  0  0  0  0
 16 17  1  0  0  0  0
 17 18  1  0  0  0  0
 19 17  2  0  0  0  0
 19 20  1  0  0  0  0
 21 19  1  0  0  0  0
 22 21  1  0  0  0  0
 23 25  1  0  0  0  0
 23 21  2  0  0  0  0
 24 23  1  0  0  0  0
 25 16  2  0  0  0  0
 26 25  1  0  0  0  0
 27  4  1  0  0  0  0
 28 27  1  0  0  0  0
 28 29  1  0  0  0  0
 30 28  2  0  0  0  0
 31 30  1  0  0  0  0
 32 34  2  0  0  0  0
 32 30  1  0  0  0  0
 33 32  1  0  0  0  0
 34 36  1  0  0  0  0
 35 34  1  0  0  0  0
 36 37  1  0  0  0  0
 36 27  2  0  0  0  0
 38 47  1  0  0  0  0
 39 38  2  0  0  0  0
 39 41  1  0  0  0  0
 40 39  1  0  0  0  0
 41 43  2  0  0  0  0
 42 41  1  0  0  0  0
 43 45  1  0  0  0  0
 43 44  1  0  0  0  0
 45 46  1  0  0  0  0
 47 48  1  0  0  0  0
 47 45  2  0  0  0  0
 49 58  1  0  0  0  0
 50 49  2  0  0  0  0
 50 52  1  0  0  0  0
 51 50  1  0  0  0  0
 52 54  2  0  0  0  0
 53 52  1  0  0  0  0
 54 56  1  0  0  0  0
 54 55  1  0  0  0  0
 56 57  1  0  0  0  0
 58 59  1  0  0  0  0
 58 56  2  0  0  0  0
M  END
$$$$
