CSD_code = WOMTAT | q = 0 | S = 0 | Stoichiometry = C29H22I2MoO3P2 | MND = 7
 OpenBabel04212202113D

 59 62  0  0  0  0  0  0  0  0999 V2000
    2.6395   10.1690    1.0210 Mo  0  0  0  0  0  0  0  0  0  0  0  0
    5.2802    9.1923    0.6237 I   0  0  0  0  0  0  0  0  0  0  0  0
    2.3374    8.4230    3.2486 I   0  0  0  0  0 15  0  0  0  0  0  0
    3.6373   11.8375   -0.4127 P   0  0  0  0  0  4  0  0  0  0  0  0
    4.8560   12.8480    0.4567 C   0  0  0  0  0  0  0  0  0  0  0  0
    5.4759   13.5168   -0.1331 H   0  0  0  0  0  0  0  0  0  0  0  0
    4.8634   12.8129    1.7863 C   0  0  0  0  0  0  0  0  0  0  0  0
    5.5386   13.4125    2.3906 H   0  0  0  0  0  0  0  0  0  0  0  0
    3.7410   11.6710    2.6394 P   0  0  0  0  0  4  0  0  0  0  0  0
    0.8999   10.8718    1.5441 C   0  0  0  0  0  2  0  0  0  0  0  0
   -0.1406   11.3093    1.7729 O   0  0  0  0  0  1  0  0  0  0  0  0
    1.3468   10.5056   -0.3753 C   0  0  0  0  0  2  0  0  0  0  0  0
    0.5446   10.6915   -1.1954 O   0  0  0  0  0  1  0  0  0  0  0  0
    2.0685    8.6259   -0.0586 C   0  0  0  0  0  2  0  0  0  0  0  0
    1.7489    7.7610   -0.7362 O   0  0  0  0  0  1  0  0  0  0  0  0
    2.5460   13.2049   -0.9292 C   0  0  0  0  0  0  0  0  0  0  0  0
    1.7036   13.7383    0.0428 C   0  0  0  0  0  0  0  0  0  0  0  0
    1.7157   13.3313    1.0496 H   0  0  0  0  0  0  0  0  0  0  0  0
    0.8562   14.7841   -0.2647 C   0  0  0  0  0  0  0  0  0  0  0  0
    0.2026   15.1856    0.4953 H   0  0  0  0  0  0  0  0  0  0  0  0
    0.8456   15.3065   -1.5487 C   0  0  0  0  0  0  0  0  0  0  0  0
    0.1764   16.1168   -1.7952 H   0  0  0  0  0  0  0  0  0  0  0  0
    1.6940   14.7913   -2.5142 C   0  0  0  0  0  0  0  0  0  0  0  0
    1.6904   15.2019   -3.5129 H   0  0  0  0  0  0  0  0  0  0  0  0
    2.5503   13.7474   -2.2094 C   0  0  0  0  0  0  0  0  0  0  0  0
    3.2114   13.3512   -2.9674 H   0  0  0  0  0  0  0  0  0  0  0  0
    4.4120   11.3228   -1.9609 C   0  0  0  0  0  0  0  0  0  0  0  0
    5.7833   11.4069   -2.1774 C   0  0  0  0  0  0  0  0  0  0  0  0
    6.4344   11.8083   -1.4140 H   0  0  0  0  0  0  0  0  0  0  0  0
    6.3188   10.9336   -3.3615 C   0  0  0  0  0  0  0  0  0  0  0  0
    7.3840   10.9923   -3.5252 H   0  0  0  0  0  0  0  0  0  0  0  0
    5.4972   10.3706   -4.3239 C   0  0  0  0  0  0  0  0  0  0  0  0
    5.9219    9.9942   -5.2420 H   0  0  0  0  0  0  0  0  0  0  0  0
    4.1318   10.2750   -4.1052 C   0  0  0  0  0  0  0  0  0  0  0  0
    3.4914    9.8255   -4.8492 H   0  0  0  0  0  0  0  0  0  0  0  0
    3.5873   10.7460   -2.9256 C   0  0  0  0  0  0  0  0  0  0  0  0
    2.5202   10.6706   -2.7526 H   0  0  0  0  0  0  0  0  0  0  0  0
    4.8319   11.1112    3.9823 C   0  0  0  0  0  0  0  0  0  0  0  0
    6.1847   10.9191    3.7076 C   0  0  0  0  0  0  0  0  0  0  0  0
    6.5806   11.1301    2.7232 H   0  0  0  0  0  0  0  0  0  0  0  0
    7.0257   10.4332    4.6906 C   0  0  0  0  0  0  0  0  0  0  0  0
    8.0697   10.2758    4.4660 H   0  0  0  0  0  0  0  0  0  0  0  0
    6.5273   10.1362    5.9479 C   0  0  0  0  0  0  0  0  0  0  0  0
    7.1843    9.7467    6.7107 H   0  0  0  0  0  0  0  0  0  0  0  0
    5.1844   10.3316    6.2244 C   0  0  0  0  0  0  0  0  0  0  0  0
    4.7906   10.0963    7.2014 H   0  0  0  0  0  0  0  0  0  0  0  0
    4.3340   10.8153    5.2477 C   0  0  0  0  0  0  0  0  0  0  0  0
    3.2872   10.9534    5.4739 H   0  0  0  0  0  0  0  0  0  0  0  0
    2.6148   12.8085    3.5040 C   0  0  0  0  0  0  0  0  0  0  0  0
    2.7619   14.1918    3.4547 C   0  0  0  0  0  0  0  0  0  0  0  0
    3.5767   14.6362    2.9003 H   0  0  0  0  0  0  0  0  0  0  0  0
    1.8485   15.0068    4.0990 C   0  0  0  0  0  0  0  0  0  0  0  0
    1.9659   16.0795    4.0511 H   0  0  0  0  0  0  0  0  0  0  0  0
    0.7882   14.4535    4.7973 C   0  0  0  0  0  0  0  0  0  0  0  0
    0.0775   15.0946    5.2966 H   0  0  0  0  0  0  0  0  0  0  0  0
    0.6356   13.0775    4.8468 C   0  0  0  0  0  0  0  0  0  0  0  0
   -0.1933   12.6402    5.3823 H   0  0  0  0  0  0  0  0  0  0  0  0
    1.5394   12.2566    4.1986 C   0  0  0  0  0  0  0  0  0  0  0  0
    1.3981   11.1833    4.2272 H   0  0  0  0  0  0  0  0  0  0  0  0
  1 10  1  0  0  0  0
  1  9  1  0  0  0  0
  2  1  1  0  0  0  0
  4  5  1  0  0  0  0
  4  1  1  0  0  0  0
  5  7  2  0  0  0  0
  6  5  1  0  0  0  0
  7  8  1  0  0  0  0
  7  9  1  0  0  0  0
  9 49  1  0  0  0  0
  9 38  1  0  0  0  0
 10 11  1  0  0  0  0
 12  1  1  0  0  0  0
 13 12  1  0  0  0  0
 14  1  1  0  0  0  0
 15 14  1  0  0  0  0
 16  4  1  0  0  0  0
 16 17  1  0  0  0  0
 17 18  1  0  0  0  0
 19 17  2  0  0  0  0
 19 20  1  0  0  0  0
 21 19  1  0  0  0  0
 22 21  1  0  0  0  0
 23 25  1  0  0  0  0
 23 21  2  0  0  0  0
 24 23  1  0  0  0  0
 25 16  2  0  0  0  0
 26 25  1  0  0  0  0
 27  4  1  0  0  0  0
 28 27  1  0  0  0  0
 28 29  1  0  0  0  0
 30 28  2  0  0  0  0
 31 30  1  0  0  0  0
 32 34  2  0  0  0  0
 32 30  1  0  0  0  0
 33 32  1  0  0  0  0
 34 36  1  0  0  0  0
 35 34  1  0  0  0  0
 36 37  1  0  0  0  0
 36 27  2  0  0  0  0
 38 47  1  0  0  0  0
 39 38  2  0  0  0  0
 39 41  1  0  0  0  0
 40 39  1  0  0  0  0
 41 43  2  0  0  0  0
 42 41  1  0  0  0  0
 43 45  1  0  0  0  0
 43 44  1  0  0  0  0
 45 46  1  0  0  0  0
 47 48  1  0  0  0  0
 47 45  2  0  0  0  0
 49 58  1  0  0  0  0
 50 49  2  0  0  0  0
 50 52  1  0  0  0  0
 51 50  1  0  0  0  0
 52 54  2  0  0  0  0
 53 52  1  0  0  0  0
 54 56  1  0  0  0  0
 54 55  1  0  0  0  0
 56 57  1  0  0  0  0
 58 59  1  0  0  0  0
 58 56  2  0  0  0  0
M  END
$$$$
