CSD_code = WONQUO | q = 0 | S = 0 | Stoichiometry = C12H12AuCl4N | MND = 4
 OpenBabel04212202113D

 30 31  0  0  1  0  0  0  0  0999 V2000
    2.6824    4.7368    6.5441 Au  0  0  0  0  0  0  0  0  0  0  0  0
    4.8432    5.5005    6.4502 Cl  0  0  0  0  0  0  0  0  0  0  0  0
    3.0567    3.0081    5.1164 Cl  0  0  0  0  0  0  0  0  0  0  0  0
    0.4263    4.4690    6.4597 Cl  0  0  0  0  0  0  0  0  0  0  0  0
    2.4956    7.4035   10.2698 Cl  0  0  0  0  0  0  0  0  0  0  0  0
    2.3964    6.2559    7.8721 C   0  0  0  0  0  0  0  0  0  0  0  0
    2.2048    7.4817    7.1910 C   0  0  1  0  0  3  0  0  0  0  0  0
    3.0812    8.0014    6.3811 N   0  0  0  0  0  0  0  0  0  0  0  0
    3.9683    7.5180    6.1976 H   0  0  0  0  0  0  0  0  0  0  0  0
    2.6073    9.1581    5.6564 C   0  0  0  0  0  0  0  0  0  0  0  0
    2.4032    8.8763    4.6181 H   0  0  0  0  0  0  0  0  0  0  0  0
    3.3644    9.9434    5.6578 H   0  0  0  0  0  0  0  0  0  0  0  0
    1.3282    9.5492    6.4133 C   0  0  0  0  0  0  0  0  0  0  0  0
    1.5400   10.3561    7.1141 H   0  0  0  0  0  0  0  0  0  0  0  0
    0.5412    9.8774    5.7399 H   0  0  0  0  0  0  0  0  0  0  0  0
    0.9433    8.2770    7.1829 C   0  0  0  0  0  0  0  0  0  0  0  0
    0.5810    8.4675    8.1916 H   0  0  0  0  0  0  0  0  0  0  0  0
    0.1803    7.6838    6.6699 H   0  0  0  0  0  0  0  0  0  0  0  0
    2.4836    6.0410    9.1805 C   0  0  1  0  0  3  0  0  0  0  0  0
    2.7085    4.7430    9.8180 C   0  0  0  0  0  0  0  0  0  0  0  0
    3.7811    4.5790   10.6922 C   0  0  0  0  0  0  0  0  0  0  0  0
    4.4284    5.4166   10.9066 H   0  0  0  0  0  0  0  0  0  0  0  0
    4.0311    3.3434   11.2581 C   0  0  0  0  0  0  0  0  0  0  0  0
    4.8725    3.2205   11.9234 H   0  0  0  0  0  0  0  0  0  0  0  0
    3.2073    2.2671   10.9713 C   0  0  0  0  0  0  0  0  0  0  0  0
    3.4066    1.3019   11.4121 H   0  0  0  0  0  0  0  0  0  0  0  0
    2.1241    2.4321   10.1236 C   0  0  0  0  0  0  0  0  0  0  0  0
    1.4708    1.6001    9.9091 H   0  0  0  0  0  0  0  0  0  0  0  0
    1.8716    3.6622    9.5444 C   0  0  0  0  0  0  0  0  0  0  0  0
    1.0115    3.7971    8.9082 H   0  0  0  0  0  0  0  0  0  0  0  0
  1  6  2  0  0  0  0
  2  1  1  0  0  0  0
  3  1  1  0  0  0  0
  4  1  1  0  0  0  0
  6 19  1  0  0  0  0
  7  6  1  6  0  0  0
  8  7  1  0  0  0  0
  9  8  1  0  0  0  0
 10 12  1  0  0  0  0
 10  8  1  0  0  0  0
 10 13  1  0  0  0  0
 11 10  1  0  0  0  0
 13 14  1  0  0  0  0
 13 16  1  0  0  0  0
 15 13  1  0  0  0  0
 16  7  1  0  0  0  0
 16 17  1  0  0  0  0
 18 16  1  0  0  0  0
 19 20  1  0  0  0  0
 19  5  1  6  0  0  0
 20 21  1  0  0  0  0
 21 22  1  0  0  0  0
 21 23  2  0  0  0  0
 23 24  1  0  0  0  0
 25 23  1  0  0  0  0
 25 26  1  0  0  0  0
 27 25  2  0  0  0  0
 28 27  1  0  0  0  0
 29 20  2  0  0  0  0
 29 27  1  0  0  0  0
 30 29  1  0  0  0  0
M  END
$$$$
