CSD_code = WONREZ | q = 1 | S = 0 | Stoichiometry = C24H22AuCl2N2(1+) | MND = 4
 OpenBabel04212202113D

 51 54  0  0  1  0  0  0  0  0999 V2000
    3.7889    4.7236   -0.0006 Au  0  0  0  0  0  0  0  0  0  0  0  0
    1.4937    4.7732   -0.1091 Cl  0  0  0  0  0  0  0  0  0  0  0  0
    3.6505    3.7456    1.6870 N   0  0  0  0  0  0  0  0  0  0  0  0
    2.9525    4.2570    2.8540 C   0  0  0  0  0  0  0  0  0  0  0  0
    1.8831    4.2924    2.6218 H   0  0  0  0  0  0  0  0  0  0  0  0
    3.2927    5.2716    3.0690 H   0  0  0  0  0  0  0  0  0  0  0  0
    3.2793    3.2603    3.9750 C   0  0  0  0  0  0  0  0  0  0  0  0
    2.4227    3.0821    4.6194 H   0  0  0  0  0  0  0  0  0  0  0  0
    4.0990    3.6377    4.5857 H   0  0  0  0  0  0  0  0  0  0  0  0
    3.7196    1.9992    3.2203 C   0  0  0  0  0  0  0  0  0  0  0  0
    4.5612    1.4832    3.6807 H   0  0  0  0  0  0  0  0  0  0  0  0
    2.9056    1.2771    3.1097 H   0  0  0  0  0  0  0  0  0  0  0  0
    4.0651    2.5305    1.8673 C   0  0  1  0  0  3  0  0  0  0  0  0
    4.7462    1.8100    0.9029 C   0  0  0  0  0  0  0  0  0  0  0  0
    5.3910    1.1873    0.0820 C   0  0  0  0  0  0  0  0  0  0  0  0
    6.1424    0.5088   -0.8822 C   0  0  0  0  0  0  0  0  0  0  0  0
    6.4441   -0.8502   -0.7256 C   0  0  0  0  0  0  0  0  0  0  0  0
    6.0835   -1.3785    0.1439 H   0  0  0  0  0  0  0  0  0  0  0  0
    7.1949   -1.4966   -1.6861 C   0  0  0  0  0  0  0  0  0  0  0  0
    7.4283   -2.5436   -1.5697 H   0  0  0  0  0  0  0  0  0  0  0  0
    7.6527   -0.8033   -2.7982 C   0  0  0  0  0  0  0  0  0  0  0  0
    8.2419   -1.3143   -3.5440 H   0  0  0  0  0  0  0  0  0  0  0  0
    7.3601    0.5451   -2.9548 C   0  0  0  0  0  0  0  0  0  0  0  0
    7.7246    1.0786   -3.8193 H   0  0  0  0  0  0  0  0  0  0  0  0
    6.6068    1.2052   -2.0068 C   0  0  0  0  0  0  0  0  0  0  0  0
    6.3815    2.2569   -2.1049 H   0  0  0  0  0  0  0  0  0  0  0  0
    6.0844    4.6751    0.1069 Cl  0  0  0  0  0  0  0  0  0  0  0  0
    3.9273    5.7019   -1.6881 N   0  0  0  0  0  0  0  0  0  0  0  0
    4.6244    5.1905   -2.8556 C   0  0  0  0  0  0  0  0  0  0  0  0
    5.6940    5.1554   -2.6241 H   0  0  0  0  0  0  0  0  0  0  0  0
    4.2843    4.1758   -3.0702 H   0  0  0  0  0  0  0  0  0  0  0  0
    4.2966    6.1871   -3.9763 C   0  0  0  0  0  0  0  0  0  0  0  0
    5.1525    6.3652   -4.6216 H   0  0  0  0  0  0  0  0  0  0  0  0
    3.4762    5.8097   -4.5862 H   0  0  0  0  0  0  0  0  0  0  0  0
    3.8571    7.4483   -3.2214 C   0  0  0  0  0  0  0  0  0  0  0  0
    3.0152    7.9642   -3.6810 H   0  0  0  0  0  0  0  0  0  0  0  0
    4.6712    8.1704   -3.1117 H   0  0  0  0  0  0  0  0  0  0  0  0
    3.5127    6.9171   -1.8680 C   0  0  2  0  0  3  0  0  0  0  0  0
    2.8332    7.6381   -0.9029 C   0  0  0  0  0  0  0  0  0  0  0  0
    2.1898    8.2612   -0.0812 C   0  0  0  0  0  0  0  0  0  0  0  0
    1.4408    8.9419    0.8832 C   0  0  0  0  0  0  0  0  0  0  0  0
    1.1404   10.3011    0.7246 C   0  0  0  0  0  0  0  0  0  0  0  0
    1.4998   10.8272   -0.1467 H   0  0  0  0  0  0  0  0  0  0  0  0
    0.3926   10.9502    1.6855 C   0  0  0  0  0  0  0  0  0  0  0  0
    0.1602   11.9973    1.5676 H   0  0  0  0  0  0  0  0  0  0  0  0
   -0.0636   10.2597    2.8000 C   0  0  0  0  0  0  0  0  0  0  0  0
   -0.6506   10.7729    3.5461 H   0  0  0  0  0  0  0  0  0  0  0  0
    0.2276    8.9112    2.9585 C   0  0  0  0  0  0  0  0  0  0  0  0
   -0.1357    8.3799    3.8249 H   0  0  0  0  0  0  0  0  0  0  0  0
    0.9780    8.2483    2.0101 C   0  0  0  0  0  0  0  0  0  0  0  0
    1.2022    7.1966    2.1098 H   0  0  0  0  0  0  0  0  0  0  0  0
  1 27  1  0  0  0  0
  1  3  1  0  0  0  0
  2  1  1  0  0  0  0
  3 13  1  0  0  0  0
  3  4  1  0  0  0  0
  4  6  1  0  0  0  0
  4  7  1  0  0  0  0
  5  4  1  0  0  0  0
  7  9  1  0  0  0  0
  7  8  1  0  0  0  0
 10 11  1  0  0  0  0
 10  7  1  0  0  0  0
 12 10  1  0  0  0  0
 13 14  1  6  0  0  0
 13 10  1  0  0  0  0
 15 14  3  0  0  0  0
 16 17  1  0  0  0  0
 16 15  1  0  0  0  0
 17 18  1  0  0  0  0
 19 20  1  0  0  0  0
 19 17  2  0  0  0  0
 21 19  1  0  0  0  0
 22 21  1  0  0  0  0
 23 21  2  0  0  0  0
 23 25  1  0  0  0  0
 24 23  1  0  0  0  0
 25 16  2  0  0  0  0
 26 25  1  0  0  0  0
 28  1  1  0  0  0  0
 29 30  1  0  0  0  0
 29 28  1  0  0  0  0
 31 29  1  0  0  0  0
 32 35  1  0  0  0  0
 32 29  1  0  0  0  0
 33 32  1  0  0  0  0
 34 32  1  0  0  0  0
 35 37  1  0  0  0  0
 35 38  1  0  0  0  0
 36 35  1  0  0  0  0
 38 28  1  0  0  0  0
 38 39  1  1  0  0  0
 39 40  3  0  0  0  0
 40 41  1  0  0  0  0
 41 50  1  0  0  0  0
 42 41  2  0  0  0  0
 42 44  1  0  0  0  0
 43 42  1  0  0  0  0
 44 46  2  0  0  0  0
 45 44  1  0  0  0  0
 46 48  1  0  0  0  0
 46 47  1  0  0  0  0
 48 49  1  0  0  0  0
 50 51  1  0  0  0  0
 50 48  2  0  0  0  0
M  END
$$$$
