CSD_code = WONROJ | q = 0 | S = 0 | Stoichiometry = C13H13AuCl3NO | MND = 4
 OpenBabel04212202113D

 32 34  0  0  1  0  0  0  0  0999 V2000
   16.4328   17.3883    2.0956 Au  0  0  0  0  0  0  0  0  0  0  0  0
   17.8288   19.1608    1.7400 Cl  0  0  0  0  0  0  0  0  0  0  0  0
   18.1222   16.0337    1.2155 Cl  0  0  0  0  0  0  0  0  0  0  0  0
   12.3421   15.6493    2.9789 Cl  0  0  0  0  0  0  0  0  0  0  0  0
   14.1244   22.0032    3.4982 O   0  0  0  0  0  0  0  0  0  0  0  0
   16.2299   13.9570    1.8518 N   0  0  0  0  0  0  0  0  0  0  0  0
   17.0019   14.5160    1.4232 H   0  0  0  0  0  0  0  0  0  0  0  0
   16.3018   12.5294    2.0368 C   0  0  0  0  0  0  0  0  0  0  0  0
   17.3262   12.2340    2.2655 H   0  0  0  0  0  0  0  0  0  0  0  0
   15.9985   12.0284    1.1110 H   0  0  0  0  0  0  0  0  0  0  0  0
   15.3179   12.2667    3.1821 C   0  0  0  0  0  0  0  0  0  0  0  0
   15.8481   12.2491    4.1342 H   0  0  0  0  0  0  0  0  0  0  0  0
   14.7850   11.3266    3.0666 H   0  0  0  0  0  0  0  0  0  0  0  0
   14.3829   13.4803    3.1242 C   0  0  0  0  0  0  0  0  0  0  0  0
   13.5100   13.2729    2.5012 H   0  0  0  0  0  0  0  0  0  0  0  0
   14.0325   13.7962    4.1041 H   0  0  0  0  0  0  0  0  0  0  0  0
   15.2224   14.5344    2.4447 C   0  0  1  0  0  3  0  0  0  0  0  0
   15.0153   15.9309    2.4791 C   0  0  0  0  0  0  0  0  0  0  0  0
   13.8270   16.5115    2.8138 C   0  0  0  0  0  0  0  0  0  0  0  0
   13.7717   17.9290    2.9889 C   0  0  0  0  0  0  0  0  0  0  0  0
   14.9903   18.5944    2.7536 C   0  0  2  0  0  3  0  0  0  0  0  0
   15.0585   19.9497    2.9312 C   0  0  0  0  0  0  0  0  0  0  0  0
   15.9725   20.4945    2.7579 H   0  0  0  0  0  0  0  0  0  0  0  0
   13.9310   20.6812    3.3470 C   0  0  0  0  0  0  0  0  0  0  0  0
   12.7234   20.0180    3.5695 C   0  0  0  0  0  0  0  0  0  0  0  0
   11.8417   20.5567    3.8785 H   0  0  0  0  0  0  0  0  0  0  0  0
   12.6494   18.6539    3.3899 C   0  0  0  0  0  0  0  0  0  0  0  0
   11.7130   18.1434    3.5593 H   0  0  0  0  0  0  0  0  0  0  0  0
   13.0510   22.8160    3.9162 C   0  0  0  0  0  0  0  0  0  0  0  0
   12.2259   22.7900    3.1980 H   0  0  0  0  0  0  0  0  0  0  0  0
   13.4519   23.8268    3.9672 H   0  0  0  0  0  0  0  0  0  0  0  0
   12.6860   22.5207    4.9045 H   0  0  0  0  0  0  0  0  0  0  0  0
  1 18  2  0  0  0  0
  1 21  1  0  0  0  0
  2  1  1  0  0  0  0
  3  1  1  0  0  0  0
  5 29  1  0  0  0  0
  6  8  1  0  0  0  0
  6 17  1  0  0  0  0
  7  6  1  0  0  0  0
  8  9  1  0  0  0  0
  8 11  1  0  0  0  0
 10  8  1  0  0  0  0
 11 12  1  0  0  0  0
 13 11  1  0  0  0  0
 14 11  1  0  0  0  0
 14 16  1  0  0  0  0
 15 14  1  0  0  0  0
 17 18  1  1  0  0  0
 17 14  1  0  0  0  0
 18 19  1  0  0  0  0
 19  4  1  0  0  0  0
 19 20  2  0  0  0  0
 20 27  1  0  0  0  0
 21 22  1  6  0  0  0
 21 20  1  0  0  0  0
 22 24  2  0  0  0  0
 23 22  1  0  0  0  0
 24  5  1  0  0  0  0
 24 25  1  0  0  0  0
 25 26  1  0  0  0  0
 27 28  1  0  0  0  0
 27 25  2  0  0  0  0
 29 31  1  0  0  0  0
 29 32  1  0  0  0  0
 30 29  1  0  0  0  0
M  END
$$$$
