CSD_code = WONXOP | q = 0 | S = 0 | Stoichiometry = C18H18Br2N2Ni | MND = 4
 OpenBabel04212202113D

 41 42  0  0  0  0  0  0  0  0999 V2000
   17.5562    4.5011   10.2465 Ni  0  0  0  0  0  0  0  0  0  0  0  0
   18.9203    4.0714    8.4367 Br  0  0  0  0  0  0  0  0  0  0  0  0
   16.3122    3.4481    9.5573 C   0  0  0  0  0  2  0  0  0  0  0  0
   15.4975    2.7509    9.1032 N   0  0  0  0  0  2  0  0  0  0  0  0
   14.5504    1.9433    8.5765 C   0  0  0  0  0  0  0  0  0  0  0  0
   13.3559    1.7591    9.2870 C   0  0  0  0  0  0  0  0  0  0  0  0
   12.4017    0.9264    8.7249 C   0  0  0  0  0  0  0  0  0  0  0  0
   11.4709    0.7641    9.2470 H   0  0  0  0  0  0  0  0  0  0  0  0
   12.6306    0.3058    7.5079 C   0  0  0  0  0  0  0  0  0  0  0  0
   11.8740   -0.3388    7.0867 H   0  0  0  0  0  0  0  0  0  0  0  0
   13.8194    0.5038    6.8252 C   0  0  0  0  0  0  0  0  0  0  0  0
   13.9858    0.0146    5.8774 H   0  0  0  0  0  0  0  0  0  0  0  0
   14.8063    1.3267    7.3436 C   0  0  0  0  0  0  0  0  0  0  0  0
   13.1483    2.4457   10.5975 C   0  0  0  0  0  0  0  0  0  0  0  0
   13.2263    3.5271   10.4853 H   0  0  0  0  0  0  0  0  0  0  0  0
   13.9100    2.1440   11.3168 H   0  0  0  0  0  0  0  0  0  0  0  0
   12.1708    2.2082   11.0069 H   0  0  0  0  0  0  0  0  0  0  0  0
   16.1016    1.5665    6.6389 C   0  0  0  0  0  0  0  0  0  0  0  0
   16.9430    1.2568    7.2589 H   0  0  0  0  0  0  0  0  0  0  0  0
   16.2359    2.6273    6.4264 H   0  0  0  0  0  0  0  0  0  0  0  0
   16.1391    1.0173    5.7027 H   0  0  0  0  0  0  0  0  0  0  0  0
   16.1919    4.9311   12.0561 Br  0  0  0  0  0  0  0  0  0  0  0  0
   18.8005    5.5540   10.9354 C   0  0  0  0  0  2  0  0  0  0  0  0
   19.6151    6.2512   11.3895 N   0  0  0  0  0  2  0  0  0  0  0  0
   20.5623    7.0587   11.9162 C   0  0  0  0  0  0  0  0  0  0  0  0
   21.7567    7.2429   11.2057 C   0  0  0  0  0  0  0  0  0  0  0  0
   22.7111    8.0755   11.7677 C   0  0  0  0  0  0  0  0  0  0  0  0
   23.6418    8.2377   11.2454 H   0  0  0  0  0  0  0  0  0  0  0  0
   22.4823    8.6961   12.9847 C   0  0  0  0  0  0  0  0  0  0  0  0
   23.2389    9.3407   13.4058 H   0  0  0  0  0  0  0  0  0  0  0  0
   21.2935    8.4981   13.6675 C   0  0  0  0  0  0  0  0  0  0  0  0
   21.1272    8.9874   14.6153 H   0  0  0  0  0  0  0  0  0  0  0  0
   20.3065    7.6753   13.1491 C   0  0  0  0  0  0  0  0  0  0  0  0
   21.9642    6.5562    9.8951 C   0  0  0  0  0  0  0  0  0  0  0  0
   21.8861    5.4748   10.0073 H   0  0  0  0  0  0  0  0  0  0  0  0
   21.2025    6.8579    9.1759 H   0  0  0  0  0  0  0  0  0  0  0  0
   22.9417    6.7936    9.4856 H   0  0  0  0  0  0  0  0  0  0  0  0
   19.0113    7.4355   13.8540 C   0  0  0  0  0  0  0  0  0  0  0  0
   18.1698    7.7455   13.2342 H   0  0  0  0  0  0  0  0  0  0  0  0
   18.8769    6.3748   14.0664 H   0  0  0  0  0  0  0  0  0  0  0  0
   18.9740    7.9847   14.7903 H   0  0  0  0  0  0  0  0  0  0  0  0
  1 23  1  0  0  0  0
  1 22  1  0  0  0  0
  2  1  1  0  0  0  0
  3  1  1  0  0  0  0
  4  3  1  0  0  0  0
  5  4  1  0  0  0  0
  5  6  1  0  0  0  0
  6 14  1  0  0  0  0
  7  8  1  0  0  0  0
  7  6  2  0  0  0  0
  9  7  1  0  0  0  0
 10  9  1  0  0  0  0
 11 13  1  0  0  0  0
 11  9  2  0  0  0  0
 12 11  1  0  0  0  0
 13  5  2  0  0  0  0
 14 17  1  0  0  0  0
 14 16  1  0  0  0  0
 15 14  1  0  0  0  0
 18 19  1  0  0  0  0
 18 13  1  0  0  0  0
 20 18  1  0  0  0  0
 21 18  1  0  0  0  0
 23 24  1  0  0  0  0
 24 25  1  0  0  0  0
 25 33  1  0  0  0  0
 26 27  1  0  0  0  0
 26 25  2  0  0  0  0
 27 29  2  0  0  0  0
 28 27  1  0  0  0  0
 29 30  1  0  0  0  0
 29 31  1  0  0  0  0
 31 32  1  0  0  0  0
 33 31  2  0  0  0  0
 33 38  1  0  0  0  0
 34 35  1  0  0  0  0
 34 26  1  0  0  0  0
 36 34  1  0  0  0  0
 37 34  1  0  0  0  0
 38 40  1  0  0  0  0
 38 41  1  0  0  0  0
 39 38  1  0  0  0  0
M  END
$$$$
