CSD_code = WONZUX | q = 0 | S = 0 | Stoichiometry = C12H11AuCl3N | MND = 4
 OpenBabel04212202113D

 28 29  0  0  1  0  0  0  0  0999 V2000
   10.8865    6.3603   -0.1265 Au  0  0  0  0  0  0  0  0  0  0  0  0
   10.1188    8.1333   -1.3406 Cl  0  0  0  0  0  0  0  0  0  0  0  0
   10.9532    5.0596   -1.9208 Cl  0  0  0  0  0  0  0  0  0  0  0  0
   11.6277    4.6448    1.1871 Cl  0  0  0  0  0  0  0  0  0  0  0  0
   10.7418    7.5304    1.5011 N   0  0  0  0  0  0  0  0  0  0  0  0
   11.5001    8.7332    1.7574 C   0  0  0  0  0  0  0  0  0  0  0  0
   11.2341    9.4676    0.9901 H   0  0  0  0  0  0  0  0  0  0  0  0
   12.5659    8.5175    1.6672 H   0  0  0  0  0  0  0  0  0  0  0  0
   11.0856    9.1682    3.1733 C   0  0  0  0  0  0  0  0  0  0  0  0
   10.9618   10.2458    3.2434 H   0  0  0  0  0  0  0  0  0  0  0  0
   11.8418    8.8587    3.8944 H   0  0  0  0  0  0  0  0  0  0  0  0
    9.7740    8.4094    3.4235 C   0  0  0  0  0  0  0  0  0  0  0  0
    9.6971    7.9865    4.4247 H   0  0  0  0  0  0  0  0  0  0  0  0
    8.8935    9.0346    3.2521 H   0  0  0  0  0  0  0  0  0  0  0  0
    9.8117    7.3449    2.3736 C   0  0  1  0  0  3  0  0  0  0  0  0
    8.9453    6.2635    2.2890 C   0  0  0  0  0  0  0  0  0  0  0  0
    8.2600    5.2733    2.1396 C   0  0  0  0  0  0  0  0  0  0  0  0
    7.4947    4.1165    1.9391 C   0  0  0  0  0  0  0  0  0  0  0  0
    7.8989    3.2057    0.9551 C   0  0  0  0  0  0  0  0  0  0  0  0
    8.7894    3.4072    0.3792 H   0  0  0  0  0  0  0  0  0  0  0  0
    7.1593    2.0597    0.7440 C   0  0  0  0  0  0  0  0  0  0  0  0
    7.4696    1.3545   -0.0118 H   0  0  0  0  0  0  0  0  0  0  0  0
    6.0209    1.8145    1.4986 C   0  0  0  0  0  0  0  0  0  0  0  0
    5.4446    0.9176    1.3270 H   0  0  0  0  0  0  0  0  0  0  0  0
    5.6188    2.7155    2.4744 C   0  0  0  0  0  0  0  0  0  0  0  0
    4.7324    2.5184    3.0588 H   0  0  0  0  0  0  0  0  0  0  0  0
    6.3493    3.8643    2.7014 C   0  0  0  0  0  0  0  0  0  0  0  0
    6.0463    4.5731    3.4577 H   0  0  0  0  0  0  0  0  0  0  0  0
  1  4  1  0  0  0  0
  1  5  1  0  0  0  0
  2  1  1  0  0  0  0
  3  1  1  0  0  0  0
  5  6  1  0  0  0  0
  5 15  1  0  0  0  0
  6  9  1  0  0  0  0
  7  6  1  0  0  0  0
  8  6  1  0  0  0  0
  9 10  1  0  0  0  0
  9 12  1  0  0  0  0
  9 11  1  0  0  0  0
 12 13  1  0  0  0  0
 14 12  1  0  0  0  0
 15 16  1  6  0  0  0
 15 12  1  0  0  0  0
 17 16  3  0  0  0  0
 18 17  1  0  0  0  0
 18 27  1  0  0  0  0
 19 18  2  0  0  0  0
 20 19  1  0  0  0  0
 21 19  1  0  0  0  0
 21 23  2  0  0  0  0
 22 21  1  0  0  0  0
 23 25  1  0  0  0  0
 24 23  1  0  0  0  0
 25 27  2  0  0  0  0
 25 26  1  0  0  0  0
 27 28  1  0  0  0  0
M  END
$$$$
