CSD_code = WOPFOW | q = 0 | S = 0 | Stoichiometry = C26H4F20I2P2Pd | MND = 4
 OpenBabel04212202113D

 55 59  0  0  0  0  0  0  0  0999 V2000
    1.5176    8.1775    4.3841 Pd  0  0  0  0  0  0  0  0  0  0  0  0
    3.9024    7.2136    8.6997 F   0  0  0  0  0  0  0  0  0  0  0  0
    3.9225    9.1018    4.6994 I   0  0  0  0  0  0  0  0  0  0  0  0
    0.7956    9.7491    2.4468 I   0  0  0  0  0  0  0  0  0  0  0  0
    1.7526    7.0083    6.2504 P   0  0  0  0  0  4  0  0  0  0  0  0
   -0.3219    6.9982    4.0327 P   0  0  0  0  0  4  0  0  0  0  0  0
    1.4704    6.0834    9.1339 F   0  0  0  0  0  0  0  0  0  0  0  0
    1.0459    9.8822    6.4003 F   0  0  0  0  0  0  0  0  0  0  0  0
    1.0033    9.3181    7.6131 C   0  0  0  0  0  0  0  0  0  0  0  0
   -1.2648    8.9187    5.6465 F   0  0  0  0  0  0  0  0  0  0  0  0
    2.9739    5.4200    4.4743 F   0  0  0  0  0  0  0  0  0  0  0  0
    6.3509    6.0924    8.6596 F   0  0  0  0  0  0  0  0  0  0  0  0
   -4.9807   10.5661    3.2241 F   0  0  0  0  0  0  0  0  0  0  0  0
    3.3625    6.2375    6.6147 C   0  0  0  0  0  0  0  0  0  0  0  0
    4.2506    6.4575    7.6601 C   0  0  0  0  0  0  0  0  0  0  0  0
    3.8239    5.5099    5.5182 C   0  0  0  0  0  0  0  0  0  0  0  0
    0.3704   11.3804    8.5721 F   0  0  0  0  0  0  0  0  0  0  0  0
    1.2050    7.3875    9.0054 C   0  0  0  0  0  0  0  0  0  0  0  0
    0.2386   10.2174   11.0306 F   0  0  0  0  0  0  0  0  0  0  0  0
    0.7707    7.5640   11.3170 F   0  0  0  0  0  0  0  0  0  0  0  0
    5.0832    4.9415    5.4628 C   0  0  0  0  0  0  0  0  0  0  0  0
    5.4697    4.2291    4.4116 F   0  0  0  0  0  0  0  0  0  0  0  0
   -1.8742    7.8769    3.6601 C   0  0  0  0  0  0  0  0  0  0  0  0
    0.6492   10.0926    8.7140 C   0  0  0  0  0  0  0  0  0  0  0  0
   -4.4758    8.7301    1.2857 F   0  0  0  0  0  0  0  0  0  0  0  0
   -3.3795   10.6850    5.4417 F   0  0  0  0  0  0  0  0  0  0  0  0
   -3.7141    8.7726    2.3721 C   0  0  0  0  0  0  0  0  0  0  0  0
   -3.1593    9.7789    4.4967 C   0  0  0  0  0  0  0  0  0  0  0  0
    0.5794    9.4963    9.9725 C   0  0  0  0  0  0  0  0  0  0  0  0
    5.9415    5.1331    6.5485 C   0  0  0  0  0  0  0  0  0  0  0  0
    7.1516    4.5938    6.5390 F   0  0  0  0  0  0  0  0  0  0  0  0
   -2.1258    8.8671    4.6083 C   0  0  0  0  0  0  0  0  0  0  0  0
   -3.9715    9.7189    3.3619 C   0  0  0  0  0  0  0  0  0  0  0  0
    5.5267    5.8972    7.6372 C   0  0  0  0  0  0  0  0  0  0  0  0
    0.8548    8.1358   10.1202 C   0  0  0  0  0  0  0  0  0  0  0  0
    0.5592    5.5766    6.2542 C   0  0  0  0  0  0  0  0  0  0  0  0
    1.0424    4.7545    5.7167 H   0  0  0  0  0  0  0  0  0  0  0  0
    0.3516    5.2353    7.2697 H   0  0  0  0  0  0  0  0  0  0  0  0
   -0.7331    5.9798    5.5405 C   0  0  0  0  0  0  0  0  0  0  0  0
   -1.3467    6.6023    6.1987 H   0  0  0  0  0  0  0  0  0  0  0  0
   -1.3187    5.0983    5.2737 H   0  0  0  0  0  0  0  0  0  0  0  0
    1.2950    7.9613    7.7408 C   0  0  0  0  0  0  0  0  0  0  0  0
   -2.2387    4.8311    3.1233 F   0  0  0  0  0  0  0  0  0  0  0  0
    2.0482    6.5679    2.3010 F   0  0  0  0  0  0  0  0  0  0  0  0
   -1.8852    2.9883    1.1381 F   0  0  0  0  0  0  0  0  0  0  0  0
    2.4124    4.7479    0.3041 F   0  0  0  0  0  0  0  0  0  0  0  0
    0.4377    2.9674   -0.2795 F   0  0  0  0  0  0  0  0  0  0  0  0
    1.0719    5.7048    1.9962 C   0  0  0  0  0  0  0  0  0  0  0  0
   -0.1187    5.7455    2.7192 C   0  0  0  0  0  0  0  0  0  0  0  0
   -1.1036    4.8102    2.4166 C   0  0  0  0  0  0  0  0  0  0  0  0
    0.2619    3.8611    0.6828 C   0  0  0  0  0  0  0  0  0  0  0  0
    1.2724    4.7755    0.9794 C   0  0  0  0  0  0  0  0  0  0  0  0
   -0.9312    3.8735    1.4075 C   0  0  0  0  0  0  0  0  0  0  0  0
   -2.4216    7.0067    1.5306 F   0  0  0  0  0  0  0  0  0  0  0  0
   -2.6621    7.8695    2.5157 C   0  0  0  0  0  0  0  0  0  0  0  0
  1  3  1  0  0  0  0
  1  5  1  0  0  0  0
  4  1  1  0  0  0  0
  5 36  1  0  0  0  0
  5 14  1  0  0  0  0
  5 42  1  0  0  0  0
  6  1  1  0  0  0  0
  6 39  1  0  0  0  0
  8  9  1  0  0  0  0
  9 42  2  0  0  0  0
  9 24  1  0  0  0  0
 11 16  1  0  0  0  0
 13 33  1  0  0  0  0
 14 15  1  0  0  0  0
 15  2  1  0  0  0  0
 16 14  2  0  0  0  0
 17 24  1  0  0  0  0
 18  7  1  0  0  0  0
 18 35  2  0  0  0  0
 21 16  1  0  0  0  0
 21 30  2  0  0  0  0
 22 21  1  0  0  0  0
 23  6  1  0  0  0  0
 23 32  1  0  0  0  0
 24 29  2  0  0  0  0
 25 27  1  0  0  0  0
 27 55  1  0  0  0  0
 27 33  2  0  0  0  0
 28 32  2  0  0  0  0
 28 26  1  0  0  0  0
 29 35  1  0  0  0  0
 29 19  1  0  0  0  0
 30 34  1  0  0  0  0
 31 30  1  0  0  0  0
 32 10  1  0  0  0  0
 33 28  1  0  0  0  0
 34 15  2  0  0  0  0
 34 12  1  0  0  0  0
 35 20  1  0  0  0  0
 36 38  1  0  0  0  0
 37 36  1  0  0  0  0
 39 40  1  0  0  0  0
 39 36  1  0  0  0  0
 41 39  1  0  0  0  0
 42 18  1  0  0  0  0
 45 53  1  0  0  0  0
 46 52  1  0  0  0  0
 47 51  1  0  0  0  0
 48 44  1  0  0  0  0
 48 49  1  0  0  0  0
 49  6  1  0  0  0  0
 50 49  2  0  0  0  0
 50 43  1  0  0  0  0
 51 52  1  0  0  0  0
 51 53  2  0  0  0  0
 52 48  2  0  0  0  0
 53 50  1  0  0  0  0
 54 55  1  0  0  0  0
 55 23  2  0  0  0  0
M  END
$$$$
