CSD_code = WOPMEU | q = 0 | S = 0 | Stoichiometry = C15H31Cl3NOPTi | MND = 5
 OpenBabel04212202113D

 53 52  0  0  0  0  0  0  0  0999 V2000
    7.1367   13.3691    2.4999 Ti  0  0  0  0  0  0  0  0  0  0  0  0
    8.5138   15.1064    4.8003 P   0  0  0  0  0  4  0  0  0  0  0  0
    6.0734   14.4675    0.8954 Cl  0  0  0  0  0  0  0  0  0  0  0  0
    7.5730   11.1830    2.5684 Cl  0  0  0  0  0  0  0  0  0  0  0  0
    5.3114   13.1100    3.6854 Cl  0  0  0  0  0  0  0  0  0  0  0  0
    8.7146   13.3097    0.9904 O   0  0  0  0  0  0  0  0  0  0  0  0
    9.0321   13.8530    6.1170 C   0  0  0  0  0  0  0  0  0  0  0  0
    9.9661   16.1842    4.5862 C   0  0  0  0  0  0  0  0  0  0  0  0
   10.4853   16.5858    5.4453 H   0  0  0  0  0  0  0  0  0  0  0  0
    7.1443   16.3065    5.3342 C   0  0  0  0  0  0  0  0  0  0  0  0
   10.3453   16.4683    3.3473 C   0  0  0  0  0  0  0  0  0  0  0  0
    9.7678   16.0327    2.5343 H   0  0  0  0  0  0  0  0  0  0  0  0
   10.0498   12.9470    1.3374 C   0  0  0  0  0  0  0  0  0  0  0  0
   10.4155   13.6920    2.0492 H   0  0  0  0  0  0  0  0  0  0  0  0
   10.0546   11.9489    1.8018 H   0  0  0  0  0  0  0  0  0  0  0  0
    6.0378   15.5962    6.1044 C   0  0  0  0  0  0  0  0  0  0  0  0
    5.1838   16.2647    6.2113 H   0  0  0  0  0  0  0  0  0  0  0  0
    6.3653   15.3123    7.1022 H   0  0  0  0  0  0  0  0  0  0  0  0
    5.7090   14.7105    5.5619 H   0  0  0  0  0  0  0  0  0  0  0  0
   10.7828   12.9274    0.0018 C   0  0  0  0  0  0  0  0  0  0  0  0
   10.9723   13.9474   -0.3347 H   0  0  0  0  0  0  0  0  0  0  0  0
   11.7227   12.3831    0.0454 H   0  0  0  0  0  0  0  0  0  0  0  0
   10.2827   13.2128    5.5116 C   0  0  0  0  0  0  0  0  0  0  0  0
   10.6604   12.4264    6.1634 H   0  0  0  0  0  0  0  0  0  0  0  0
   11.0720   13.9496    5.3642 H   0  0  0  0  0  0  0  0  0  0  0  0
   10.0268   12.7733    4.5448 H   0  0  0  0  0  0  0  0  0  0  0  0
   11.4946   17.3339    2.9657 C   0  0  0  0  0  0  0  0  0  0  0  0
   11.1468   18.1653    2.3536 H   0  0  0  0  0  0  0  0  0  0  0  0
   12.2082   16.7667    2.3686 H   0  0  0  0  0  0  0  0  0  0  0  0
   12.0023   17.7284    3.8430 H   0  0  0  0  0  0  0  0  0  0  0  0
    8.4086   12.7081   -0.2773 C   0  0  0  0  0  0  0  0  0  0  0  0
    7.9093   13.4736   -0.8814 H   0  0  0  0  0  0  0  0  0  0  0  0
    7.7247   11.8602   -0.1283 H   0  0  0  0  0  0  0  0  0  0  0  0
    7.7152   17.4619    6.1530 C   0  0  0  0  0  0  0  0  0  0  0  0
    6.9038   18.1226    6.4567 H   0  0  0  0  0  0  0  0  0  0  0  0
    8.4222   18.0430    5.5646 H   0  0  0  0  0  0  0  0  0  0  0  0
    8.2154   17.1070    7.0505 H   0  0  0  0  0  0  0  0  0  0  0  0
    7.9495   12.7845    6.2341 C   0  0  0  0  0  0  0  0  0  0  0  0
    8.3435   11.9127    6.7555 H   0  0  0  0  0  0  0  0  0  0  0  0
    7.6277   12.4718    5.2327 H   0  0  0  0  0  0  0  0  0  0  0  0
    7.0810   13.1425    6.7796 H   0  0  0  0  0  0  0  0  0  0  0  0
    6.5935   16.8267    4.0073 C   0  0  0  0  0  0  0  0  0  0  0  0
    5.8209   17.5734    4.1836 H   0  0  0  0  0  0  0  0  0  0  0  0
    6.1621   16.0013    3.4298 H   0  0  0  0  0  0  0  0  0  0  0  0
    7.3891   17.2800    3.4136 H   0  0  0  0  0  0  0  0  0  0  0  0
    8.2307   14.3810    3.4465 N   0  0  0  0  0  2  0  0  0  0  0  0
    9.3492   14.4754    7.4710 C   0  0  0  0  0  0  0  0  0  0  0  0
    9.7286   13.7060    8.1431 H   0  0  0  0  0  0  0  0  0  0  0  0
    8.4615   14.9072    7.9258 H   0  0  0  0  0  0  0  0  0  0  0  0
   10.1101   15.2477    7.3819 H   0  0  0  0  0  0  0  0  0  0  0  0
    9.7418   12.2516   -0.8902 C   0  0  0  0  0  0  0  0  0  0  0  0
    9.8378   11.1682   -0.8234 H   0  0  0  0  0  0  0  0  0  0  0  0
    9.8296   12.5450   -1.9337 H   0  0  0  0  0  0  0  0  0  0  0  0
  1  4  1  0  0  0  0
  1 46  1  0  0  0  0
  1  5  1  0  0  0  0
  2 10  1  0  0  0  0
  2  7  1  0  0  0  0
  3  1  1  0  0  0  0
  6 13  1  0  0  0  0
  7 38  1  0  0  0  0
  7 47  1  0  0  0  0
  8  2  1  0  0  0  0
  8  9  1  0  0  0  0
 10 16  1  0  0  0  0
 10 34  1  0  0  0  0
 11  8  2  0  0  0  0
 12 11  1  0  0  0  0
 13 15  1  0  0  0  0
 13 14  1  0  0  0  0
 16 17  1  0  0  0  0
 16 18  1  0  0  0  0
 19 16  1  0  0  0  0
 20 22  1  0  0  0  0
 20 13  1  0  0  0  0
 21 20  1  0  0  0  0
 23  7  1  0  0  0  0
 23 24  1  0  0  0  0
 25 23  1  0  0  0  0
 26 23  1  0  0  0  0
 27 11  1  0  0  0  0
 27 30  1  0  0  0  0
 28 27  1  0  0  0  0
 29 27  1  0  0  0  0
 31 33  1  0  0  0  0
 31  6  1  0  0  0  0
 32 31  1  0  0  0  0
 34 35  1  0  0  0  0
 34 37  1  0  0  0  0
 36 34  1  0  0  0  0
 38 39  1  0  0  0  0
 38 41  1  0  0  0  0
 40 38  1  0  0  0  0
 42 43  1  0  0  0  0
 42 10  1  0  0  0  0
 44 42  1  0  0  0  0
 45 42  1  0  0  0  0
 46  2  1  0  0  0  0
 47 49  1  0  0  0  0
 47 48  1  0  0  0  0
 50 47  1  0  0  0  0
 51 52  1  0  0  0  0
 51 31  1  0  0  0  0
 51 20  1  0  0  0  0
 53 51  1  0  0  0  0
M  END
$$$$
