CSD_code = WOPRUP | q = 0 | S = 0 | Stoichiometry = C24H29Br2N3Ni | MND = 4
 OpenBabel04212202113D

 59 62  0  0  1  0  0  0  0  0999 V2000
   17.8299    7.1522    2.9618 Br  0  0  0  0  0  0  0  0  0  0  0  0
   16.3556    5.5107    2.7258 Ni  0  0  0  0  0  0  0  0  0  0  0  0
   15.1048    4.2934    1.3401 Br  0  0  0  0  0  0  0  0  0  0  0  0
   18.5855    2.5986    4.2940 C   0  0  0  0  0  0  0  0  0  0  0  0
   19.4375    1.9540    4.3600 H   0  0  0  0  0  0  0  0  0  0  0  0
   16.6937    3.6349    4.7056 N   0  0  2  0  0  0  0  0  0  0  0  0
   15.1909    5.3248    4.7488 N   0  0  0  0  0  0  0  0  0  0  0  0
   15.5158    4.1821    5.2216 C   0  0  1  0  0  3  0  0  0  0  0  0
   17.5528    2.6926    5.1964 C   0  0  2  0  0  3  0  0  0  0  0  0
   14.2656    3.9144    7.3667 C   0  0  0  0  0  0  0  0  0  0  0  0
   14.5115    4.9307    7.6320 H   0  0  0  0  0  0  0  0  0  0  0  0
   14.7394    3.3732    6.1758 C   0  0  0  0  0  0  0  0  0  0  0  0
   17.1898    4.1440    3.5559 N   0  0  0  0  0  0  0  0  0  0  0  0
   18.3191    3.5235    3.2696 C   0  0  0  0  0  0  0  0  0  0  0  0
   14.4001    2.0667    5.8263 C   0  0  0  0  0  0  0  0  0  0  0  0
   14.7276    1.6620    4.8795 H   0  0  0  0  0  0  0  0  0  0  0  0
   13.1660    1.8410    7.8708 C   0  0  0  0  0  0  0  0  0  0  0  0
   12.5543    1.2453    8.5311 H   0  0  0  0  0  0  0  0  0  0  0  0
   19.0969    3.8441    2.0501 C   0  0  0  0  0  0  0  0  0  0  0  0
   18.4386    4.3006    1.3049 H   0  0  0  0  0  0  0  0  0  0  0  0
   19.5508    2.9478    1.6359 H   0  0  0  0  0  0  0  0  0  0  0  0
   19.8843    4.5598    2.2887 H   0  0  0  0  0  0  0  0  0  0  0  0
   17.4101    1.9930    6.4970 C   0  0  0  0  0  0  0  0  0  0  0  0
   18.3821    1.6031    6.7888 H   0  0  0  0  0  0  0  0  0  0  0  0
   16.7127    1.1589    6.4300 H   0  0  0  0  0  0  0  0  0  0  0  0
   17.0527    2.6699    7.2702 H   0  0  0  0  0  0  0  0  0  0  0  0
   13.6153    1.3070    6.6734 C   0  0  0  0  0  0  0  0  0  0  0  0
   13.3479    0.2990    6.3952 H   0  0  0  0  0  0  0  0  0  0  0  0
   14.0830    6.0624    5.2116 C   0  0  0  0  0  0  0  0  0  0  0  0
   13.4891    3.1438    8.2130 C   0  0  0  0  0  0  0  0  0  0  0  0
   13.1298    3.5662    9.1389 H   0  0  0  0  0  0  0  0  0  0  0  0
   14.3765    7.2331    5.9282 C   0  0  0  0  0  0  0  0  0  0  0  0
   12.7609    5.6942    4.9367 C   0  0  0  0  0  0  0  0  0  0  0  0
   15.8061    7.6631    6.1681 C   0  0  0  0  0  0  0  0  0  0  0  0
   16.4703    6.9984    5.6070 H   0  0  0  0  0  0  0  0  0  0  0  0
   13.3259    7.9881    6.4240 C   0  0  0  0  0  0  0  0  0  0  0  0
   13.5362    8.8801    6.9936 H   0  0  0  0  0  0  0  0  0  0  0  0
   12.4148    4.5291    4.0410 C   0  0  0  0  0  0  0  0  0  0  0  0
   13.3241    3.9749    3.7929 H   0  0  0  0  0  0  0  0  0  0  0  0
   11.7426    6.4929    5.4402 C   0  0  0  0  0  0  0  0  0  0  0  0
   10.7169    6.2282    5.2361 H   0  0  0  0  0  0  0  0  0  0  0  0
   12.0147    7.6163    6.1948 C   0  0  0  0  0  0  0  0  0  0  0  0
   11.2056    8.2132    6.5887 H   0  0  0  0  0  0  0  0  0  0  0  0
   16.1762    7.5604    7.6492 C   0  0  0  0  0  0  0  0  0  0  0  0
   16.0994    6.5330    8.0033 H   0  0  0  0  0  0  0  0  0  0  0  0
   15.5204    8.1813    8.2554 H   0  0  0  0  0  0  0  0  0  0  0  0
   17.2005    7.8942    7.7973 H   0  0  0  0  0  0  0  0  0  0  0  0
   16.0370    9.0846    5.6529 C   0  0  0  0  0  0  0  0  0  0  0  0
   15.7143    9.1668    4.6183 H   0  0  0  0  0  0  0  0  0  0  0  0
   17.0967    9.3228    5.6947 H   0  0  0  0  0  0  0  0  0  0  0  0
   15.4921    9.8154    6.2451 H   0  0  0  0  0  0  0  0  0  0  0  0
   11.8241    5.0556    2.7298 C   0  0  0  0  0  0  0  0  0  0  0  0
   12.5068    5.7599    2.2617 H   0  0  0  0  0  0  0  0  0  0  0  0
   10.8781    5.5621    2.9055 H   0  0  0  0  0  0  0  0  0  0  0  0
   11.6617    4.2328    2.0385 H   0  0  0  0  0  0  0  0  0  0  0  0
   11.4385    3.5635    4.7148 C   0  0  0  0  0  0  0  0  0  0  0  0
   11.7936    3.2747    5.7016 H   0  0  0  0  0  0  0  0  0  0  0  0
   11.3304    2.6676    4.1080 H   0  0  0  0  0  0  0  0  0  0  0  0
   10.4569    4.0172    4.8244 H   0  0  0  0  0  0  0  0  0  0  0  0
  2  1  1  0  0  0  0
  2 13  1  0  0  0  0
  2  7  1  0  0  0  0
  3  2  1  0  0  0  0
  4  5  1  0  0  0  0
  4  9  1  0  0  0  0
  6 13  1  1  0  0  0
  6  9  1  0  0  0  0
  6  8  1  0  0  0  0
  7 29  1  0  0  0  0
  7  8  1  0  0  0  0
  8 12  1  6  0  0  0
  9 23  1  1  0  0  0
 10 11  1  0  0  0  0
 10 30  1  0  0  0  0
 12 10  2  0  0  0  0
 14 13  1  0  0  0  0
 14  4  2  0  0  0  0
 15 12  1  0  0  0  0
 15 27  2  0  0  0  0
 16 15  1  0  0  0  0
 17 30  2  0  0  0  0
 17 18  1  0  0  0  0
 19 22  1  0  0  0  0
 19 14  1  0  0  0  0
 20 19  1  0  0  0  0
 21 19  1  0  0  0  0
 23 24  1  0  0  0  0
 23 26  1  0  0  0  0
 25 23  1  0  0  0  0
 27 17  1  0  0  0  0
 28 27  1  0  0  0  0
 29 32  1  0  0  0  0
 30 31  1  0  0  0  0
 32 34  1  0  0  0  0
 32 36  2  0  0  0  0
 33 29  2  0  0  0  0
 33 40  1  0  0  0  0
 34 44  1  0  0  0  0
 35 34  1  0  0  0  0
 36 37  1  0  0  0  0
 38 56  1  0  0  0  0
 38 33  1  0  0  0  0
 39 38  1  0  0  0  0
 40 42  2  0  0  0  0
 41 40  1  0  0  0  0
 42 36  1  0  0  0  0
 42 43  1  0  0  0  0
 44 47  1  0  0  0  0
 44 45  1  0  0  0  0
 44 46  1  0  0  0  0
 48 50  1  0  0  0  0
 48 34  1  0  0  0  0
 48 51  1  0  0  0  0
 49 48  1  0  0  0  0
 52 54  1  0  0  0  0
 52 38  1  0  0  0  0
 53 52  1  0  0  0  0
 55 52  1  0  0  0  0
 56 59  1  0  0  0  0
 56 57  1  0  0  0  0
 58 56  1  0  0  0  0
M  END
$$$$
