CSD_code = WORGOB | q = 0 | S = 0 | Stoichiometry = C25H35ClIrN3 | MND = 6
 OpenBabel04212202113D

 65 67  0  0  1  0  0  0  0  0999 V2000
   10.0210    7.4459    1.1365 C   0  0  0  0  0  3  0  0  0  0  0  0
   10.3465    6.4960    0.7649 H   0  0  0  0  0  0  0  0  0  0  0  0
    9.7843    9.1796    2.3794 C   0  0  0  0  0  0  0  0  0  0  0  0
    9.9339    9.8220    3.2235 H   0  0  0  0  0  0  0  0  0  0  0  0
    8.9788    9.3628    1.3033 C   0  0  0  0  0  0  0  0  0  0  0  0
    8.3140   10.1538    1.0287 H   0  0  0  0  0  0  0  0  0  0  0  0
    8.4493    8.0151   -0.6868 C   0  0  0  0  0  0  0  0  0  0  0  0
    8.6323    6.6545   -1.2882 C   0  0  0  0  0  0  0  0  0  0  0  0
    7.9944    6.5608   -2.1646 H   0  0  0  0  0  0  0  0  0  0  0  0
    8.3662    5.8880   -0.5617 H   0  0  0  0  0  0  0  0  0  0  0  0
    9.6682    6.5004   -1.5878 H   0  0  0  0  0  0  0  0  0  0  0  0
    6.9868    8.9396   -2.2946 C   0  0  0  0  0  0  0  0  0  0  0  0
    7.6004    9.2386   -3.5211 C   0  0  0  0  0  0  0  0  0  0  0  0
    6.8056    9.3106   -4.6533 C   0  0  0  0  0  0  0  0  0  0  0  0
    7.2503    9.5463   -5.6066 H   0  0  0  0  0  0  0  0  0  0  0  0
    5.4438    9.0768   -4.5858 C   0  0  0  0  0  0  0  0  0  0  0  0
    4.8445    9.1239   -5.4828 H   0  0  0  0  0  0  0  0  0  0  0  0
    4.8517    8.7916   -3.3711 C   0  0  0  0  0  0  0  0  0  0  0  0
    3.7884    8.6134   -3.3261 H   0  0  0  0  0  0  0  0  0  0  0  0
    5.6056    8.7338   -2.2091 C   0  0  0  0  0  0  0  0  0  0  0  0
    9.0833    9.5360   -3.5560 C   0  0  0  0  0  0  0  0  0  0  0  0
    9.5858    8.8683   -2.8466 H   0  0  0  0  0  0  0  0  0  0  0  0
    9.3079   10.9764   -3.0836 C   0  0  0  0  0  0  0  0  0  0  0  0
    8.8073   11.6719   -3.7536 H   0  0  0  0  0  0  0  0  0  0  0  0
   10.3702   11.2111   -3.0671 H   0  0  0  0  0  0  0  0  0  0  0  0
    8.9040   11.1100   -2.0828 H   0  0  0  0  0  0  0  0  0  0  0  0
    9.7239    9.3171   -4.9246 C   0  0  0  0  0  0  0  0  0  0  0  0
    9.4768    8.3320   -5.3145 H   0  0  0  0  0  0  0  0  0  0  0  0
   10.8061    9.3905   -4.8367 H   0  0  0  0  0  0  0  0  0  0  0  0
    9.3963   10.0702   -5.6367 H   0  0  0  0  0  0  0  0  0  0  0  0
    4.9627    8.4261   -0.8762 C   0  0  0  0  0  0  0  0  0  0  0  0
    5.7089    8.5948   -0.0924 H   0  0  0  0  0  0  0  0  0  0  0  0
    3.7771    9.3513   -0.5985 C   0  0  0  0  0  0  0  0  0  0  0  0
    4.0788   10.3918   -0.6948 H   0  0  0  0  0  0  0  0  0  0  0  0
    3.4086    9.1889    0.4121 H   0  0  0  0  0  0  0  0  0  0  0  0
    2.9607    9.1636   -1.2909 H   0  0  0  0  0  0  0  0  0  0  0  0
    4.5284    6.9596   -0.8210 C   0  0  0  0  0  0  0  0  0  0  0  0
    3.7876    6.7520   -1.5899 H   0  0  0  0  0  0  0  0  0  0  0  0
    4.0932    6.7316    0.1493 H   0  0  0  0  0  0  0  0  0  0  0  0
    5.3795    6.3006   -0.9793 H   0  0  0  0  0  0  0  0  0  0  0  0
   12.5641    8.3949    4.5302 C   0  0  0  0  0  3  0  0  0  0  0  0
   12.1298    9.3736    4.3401 H   0  0  0  0  0  0  0  0  0  0  0  0
   13.2225    7.7768    3.4535 C   0  0  1  0  0  0  0  0  0  0  0  0
   13.2695    8.3314    2.5163 H   0  0  0  0  0  0  0  0  0  0  0  0
   14.3640    6.7951    3.6116 C   0  0  0  0  0  0  0  0  0  0  0  0
   15.2647    7.3284    3.9343 H   0  0  0  0  0  0  0  0  0  0  0  0
   14.5764    6.3698    2.6290 H   0  0  0  0  0  0  0  0  0  0  0  0
   14.0425    5.6519    4.5932 C   0  0  0  0  0  0  0  0  0  0  0  0
   14.5580    4.7482    4.2648 H   0  0  0  0  0  0  0  0  0  0  0  0
   14.4139    5.8914    5.5903 H   0  0  0  0  0  0  0  0  0  0  0  0
   12.5547    5.3716    4.6773 C   0  0  0  0  0  3  0  0  0  0  0  0
   12.2543    4.3925    4.3107 H   0  0  0  0  0  0  0  0  0  0  0  0
   11.7224    5.9836    5.6188 C   0  0  1  0  0  0  0  0  0  0  0  0
   10.8427    5.4295    5.9429 H   0  0  0  0  0  0  0  0  0  0  0  0
   12.1876    7.0159    6.6230 C   0  0  0  0  0  0  0  0  0  0  0  0
   12.7967    6.5270    7.3903 H   0  0  0  0  0  0  0  0  0  0  0  0
   11.3046    7.4202    7.1208 H   0  0  0  0  0  0  0  0  0  0  0  0
   12.9719    8.1722    5.9736 C   0  0  0  0  0  0  0  0  0  0  0  0
   12.7903    9.0854    6.5428 H   0  0  0  0  0  0  0  0  0  0  0  0
   14.0439    7.9752    6.0151 H   0  0  0  0  0  0  0  0  0  0  0  0
   10.4337    7.9794    2.2633 N   0  0  0  0  0  0  0  0  0  0  0  0
    9.1295    8.2515    0.5099 N   0  0  0  0  0  0  0  0  0  0  0  0
    7.7344    8.9581   -1.1222 N   0  0  0  0  0  0  0  0  0  0  0  0
    9.6186    5.3644    3.3032 Cl  0  0  0  0  0 15  0  0  0  0  0  0
   11.3474    6.8482    3.7200 Ir  0  0  0  0  0  0  0  0  0  0  0  0
  1 61  1  0  0  0  0
  2  1  1  0  0  0  0
  3  4  1  0  0  0  0
  5  3  2  0  0  0  0
  6  5  1  0  0  0  0
  7 62  1  0  0  0  0
  8  7  1  0  0  0  0
  8 10  1  0  0  0  0
  9  8  1  0  0  0  0
 11  8  1  0  0  0  0
 12 20  1  0  0  0  0
 12 63  1  0  0  0  0
 13 12  2  0  0  0  0
 14 16  2  0  0  0  0
 14 13  1  0  0  0  0
 15 14  1  0  0  0  0
 16 18  1  0  0  0  0
 17 16  1  0  0  0  0
 18 19  1  0  0  0  0
 18 20  2  0  0  0  0
 20 31  1  0  0  0  0
 21 13  1  0  0  0  0
 21 23  1  0  0  0  0
 21 22  1  0  0  0  0
 23 25  1  0  0  0  0
 23 26  1  0  0  0  0
 24 23  1  0  0  0  0
 27 29  1  0  0  0  0
 27 21  1  0  0  0  0
 28 27  1  0  0  0  0
 30 27  1  0  0  0  0
 31 37  1  0  0  0  0
 31 33  1  0  0  0  0
 31 32  1  0  0  0  0
 33 35  1  0  0  0  0
 34 33  1  0  0  0  0
 36 33  1  0  0  0  0
 37 39  1  0  0  0  0
 38 37  1  0  0  0  0
 40 37  1  0  0  0  0
 41 58  1  0  0  0  0
 42 41  1  0  0  0  0
 43 44  1  6  0  0  0
 43 45  1  0  0  0  0
 43 65  1  0  0  0  0
 43 41  1  0  0  0  0
 45 46  1  0  0  0  0
 45 48  1  0  0  0  0
 47 45  1  0  0  0  0
 48 51  1  0  0  0  0
 48 50  1  0  0  0  0
 49 48  1  0  0  0  0
 51 53  1  0  0  0  0
 52 51  1  0  0  0  0
 53 54  1  1  0  0  0
 53 55  1  0  0  0  0
 55 57  1  0  0  0  0
 55 56  1  0  0  0  0
 58 60  1  0  0  0  0
 58 59  1  0  0  0  0
 58 55  1  0  0  0  0
 61  3  1  0  0  0  0
 61 65  1  0  0  0  0
 62  1  1  0  0  0  0
 62  5  1  0  0  0  0
 63  7  2  0  0  0  0
 65 53  1  0  0  0  0
M  END
$$$$
