CSD_code = WORLAQ | q = 0 | S = 0 | Stoichiometry = C22H30I2N4OZn | MND = 4
 OpenBabel04212202113D

 60 63  0  0  1  0  0  0  0  0999 V2000
    4.4637    3.3223    2.9000 Zn  0  0  0  0  0  0  0  0  0  0  0  0
    6.7341    4.3939    2.7810 I   0  0  0  0  0  0  0  0  0  0  0  0
    2.1814    4.2024    2.2182 I   0  0  0  0  0  0  0  0  0  0  0  0
    4.3861    0.2498    2.9549 N   0  0  1  0  0  0  0  0  0  0  0  0
    4.3955    1.3184    2.1386 N   0  0  0  0  0  0  0  0  0  0  0  0
    4.0802    1.2513    5.0678 N   0  0  0  0  0  0  0  0  0  0  0  0
    4.1155    2.5756    4.8495 N   0  0  2  0  0  0  0  0  0  0  0  0
    6.1766    1.3556    6.5420 O   0  0  0  0  0  0  0  0  0  0  0  0
    3.8897   -2.2019    2.9218 C   0  0  0  0  0  0  0  0  0  0  0  0
    3.9827   -0.8598    2.2949 C   0  0  2  0  0  3  0  0  0  0  0  0
    3.7115   -0.4687    1.0023 C   0  0  0  0  0  0  0  0  0  0  0  0
    3.9853    0.9059    0.9483 C   0  0  0  0  0  0  0  0  0  0  0  0
    3.8647    1.8127   -0.2178 C   0  0  0  0  0  0  0  0  0  0  0  0
    4.9061    0.3550    4.2976 C   0  0  2  0  0  0  0  0  0  0  0  0
    6.3657    0.7927    4.2712 C   0  0  0  0  0  0  0  0  0  0  0  0
    7.1261    0.6061    3.1267 C   0  0  0  0  0  0  0  0  0  0  0  0
    8.4402    1.0314    3.0808 C   0  0  0  0  0  0  0  0  0  0  0  0
    9.2549    0.8838    1.8347 C   0  0  0  0  0  0  0  0  0  0  0  0
    8.9706    1.6671    4.1938 C   0  0  0  0  0  0  0  0  0  0  0  0
    8.2599    1.8475    5.3708 C   0  0  0  0  0  0  0  0  0  0  0  0
    8.8745    2.5966    6.5539 C   0  0  0  0  0  0  0  0  0  0  0  0
   10.2717    3.1381    6.2225 C   0  0  0  0  0  0  0  0  0  0  0  0
    9.0476    1.6621    7.7654 C   0  0  0  0  0  0  0  0  0  0  0  0
    8.0172    3.8314    6.8882 C   0  0  0  0  0  0  0  0  0  0  0  0
    6.9476    1.3518    5.4126 C   0  0  0  0  0  0  0  0  0  0  0  0
    3.3741    3.1464    5.7877 C   0  0  2  0  0  3  0  0  0  0  0  0
    3.1792    4.6142    5.8707 C   0  0  0  0  0  0  0  0  0  0  0  0
    2.8472    2.1573    6.6294 C   0  0  0  0  0  0  0  0  0  0  0  0
    3.3192    0.9579    6.1460 C   0  0  0  0  0  0  0  0  0  0  0  0
    3.1020   -0.4198    6.6517 C   0  0  0  0  0  0  0  0  0  0  0  0
    6.6406    1.8364    7.2365 H   0  0  0  0  0  0  0  0  0  0  0  0
    4.8593   -2.5263    3.3008 H   0  0  0  0  0  0  0  0  0  0  0  0
    3.5521   -2.9189    2.1789 H   0  0  0  0  0  0  0  0  0  0  0  0
    3.1768   -2.2023    3.7466 H   0  0  0  0  0  0  0  0  0  0  0  0
    3.3632   -1.0856    0.2000 H   0  0  0  0  0  0  0  0  0  0  0  0
    4.5500    2.6538   -0.1254 H   0  0  0  0  0  0  0  0  0  0  0  0
    2.8496    2.2054   -0.2851 H   0  0  0  0  0  0  0  0  0  0  0  0
    4.0828    1.2715   -1.1354 H   0  0  0  0  0  0  0  0  0  0  0  0
    4.8258   -0.6333    4.7642 H   0  0  0  0  0  0  0  0  0  0  0  0
    6.6960    0.1354    2.2549 H   0  0  0  0  0  0  0  0  0  0  0  0
   10.2910    0.6555    2.0729 H   0  0  0  0  0  0  0  0  0  0  0  0
    9.2368    1.8229    1.2816 H   0  0  0  0  0  0  0  0  0  0  0  0
    8.8558    0.1008    1.1944 H   0  0  0  0  0  0  0  0  0  0  0  0
    9.9773    2.0362    4.1125 H   0  0  0  0  0  0  0  0  0  0  0  0
   10.2316    3.8205    5.3781 H   0  0  0  0  0  0  0  0  0  0  0  0
   10.9712    2.3341    6.0082 H   0  0  0  0  0  0  0  0  0  0  0  0
   10.6518    3.6876    7.0811 H   0  0  0  0  0  0  0  0  0  0  0  0
    8.1267    1.2013    8.1156 H   0  0  0  0  0  0  0  0  0  0  0  0
    9.4758    2.2182    8.5973 H   0  0  0  0  0  0  0  0  0  0  0  0
    9.7335    0.8578    7.5053 H   0  0  0  0  0  0  0  0  0  0  0  0
    7.0026    3.6087    7.2109 H   0  0  0  0  0  0  0  0  0  0  0  0
    7.9491    4.4626    6.0047 H   0  0  0  0  0  0  0  0  0  0  0  0
    8.4932    4.4036    7.6820 H   0  0  0  0  0  0  0  0  0  0  0  0
    3.9758    5.1401    5.3470 H   0  0  0  0  0  0  0  0  0  0  0  0
    3.1655    4.9303    6.9115 H   0  0  0  0  0  0  0  0  0  0  0  0
    2.2270    4.8933    5.4187 H   0  0  0  0  0  0  0  0  0  0  0  0
    2.2074    2.3072    7.4744 H   0  0  0  0  0  0  0  0  0  0  0  0
    2.6439   -1.0526    5.8912 H   0  0  0  0  0  0  0  0  0  0  0  0
    2.4385   -0.3828    7.5109 H   0  0  0  0  0  0  0  0  0  0  0  0
    4.0455   -0.8687    6.9624 H   0  0  0  0  0  0  0  0  0  0  0  0
  1  7  1  0  0  0  0
  2  1  1  0  0  0  0
  3  1  1  0  0  0  0
  4  5  1  6  0  0  0
  4 14  1  0  0  0  0
  5  1  1  0  0  0  0
  6 29  1  0  0  0  0
  7  6  1  6  0  0  0
  7 26  1  0  0  0  0
  8 31  1  0  0  0  0
  9 32  1  0  0  0  0
  9 34  1  0  0  0  0
 10  9  1  6  0  0  0
 10  4  1  0  0  0  0
 11 10  1  0  0  0  0
 12 11  2  0  0  0  0
 12  5  1  0  0  0  0
 13 36  1  0  0  0  0
 13 12  1  0  0  0  0
 14 39  1  1  0  0  0
 14  6  1  0  0  0  0
 15 14  1  0  0  0  0
 15 25  1  0  0  0  0
 16 15  2  0  0  0  0
 17 16  1  0  0  0  0
 17 19  2  0  0  0  0
 18 41  1  0  0  0  0
 18 17  1  0  0  0  0
 19 20  1  0  0  0  0
 20 25  2  0  0  0  0
 20 21  1  0  0  0  0
 21 24  1  0  0  0  0
 21 23  1  0  0  0  0
 22 21  1  0  0  0  0
 22 47  1  0  0  0  0
 23 48  1  0  0  0  0
 23 49  1  0  0  0  0
 24 51  1  0  0  0  0
 24 53  1  0  0  0  0
 25  8  1  0  0  0  0
 26 27  1  1  0  0  0
 26 28  1  0  0  0  0
 27 55  1  0  0  0  0
 28 57  1  0  0  0  0
 29 28  2  0  0  0  0
 29 30  1  0  0  0  0
 30 60  1  0  0  0  0
 30 59  1  0  0  0  0
 33  9  1  0  0  0  0
 35 11  1  0  0  0  0
 37 13  1  0  0  0  0
 38 13  1  0  0  0  0
 40 16  1  0  0  0  0
 42 18  1  0  0  0  0
 43 18  1  0  0  0  0
 44 19  1  0  0  0  0
 45 22  1  0  0  0  0
 46 22  1  0  0  0  0
 50 23  1  0  0  0  0
 52 24  1  0  0  0  0
 54 27  1  0  0  0  0
 56 27  1  0  0  0  0
 58 30  1  0  0  0  0
M  END
$$$$
