CSD_code = WORNUO | q = 1 | S = 0 | Stoichiometry = C27H23ClN3Pt(1+) | MND = 4
 OpenBabel04212202113D

 55 61  0  0  1  0  0  0  0  0999 V2000
    2.2560   12.4465    1.4761 Pt  0  0  1  0  0  0  0  0  0  0  0  0
    0.3411   12.0104    2.2328 N   0  0  2  0  0  4  0  0  0  0  0  0
    1.3398   13.9392    0.5613 N   0  0  0  0  0  0  0  0  0  0  0  0
    2.8306   10.8253    2.4404 N   0  0  0  0  0  0  0  0  0  0  0  0
    3.8453   14.3829    3.6542 C   0  0  0  0  0  0  0  0  0  0  0  0
    4.0894   15.2355    3.0393 H   0  0  0  0  0  0  0  0  0  0  0  0
   -0.9795    9.7766    6.6478 C   0  0  0  0  0  0  0  0  0  0  0  0
   -1.9794    9.3830    6.7506 H   0  0  0  0  0  0  0  0  0  0  0  0
    1.2937    9.8078    7.3906 C   0  0  0  0  0  0  0  0  0  0  0  0
    2.0856    9.4684    8.0410 H   0  0  0  0  0  0  0  0  0  0  0  0
    0.0380    9.2963    7.4946 C   0  0  0  0  0  0  0  0  0  0  0  0
   -0.1931    8.5372    8.2250 H   0  0  0  0  0  0  0  0  0  0  0  0
   -0.7204   10.7359    5.7151 C   0  0  0  0  0  0  0  0  0  0  0  0
   -1.5450   11.0912    5.1156 H   0  0  0  0  0  0  0  0  0  0  0  0
    2.5520   13.9352    3.7206 C   0  0  0  0  0  0  0  0  0  0  0  0
    1.7779   14.5369    3.2584 H   0  0  0  0  0  0  0  0  0  0  0  0
    4.3016    9.3926    3.6346 C   0  0  0  0  0  0  0  0  0  0  0  0
    5.3132    9.1346    3.9003 H   0  0  0  0  0  0  0  0  0  0  0  0
   -0.0003   13.7946    0.5850 C   0  0  2  0  0  3  0  0  0  0  0  0
    0.9057   12.2779    4.6048 C   0  0  0  0  0  0  0  0  0  0  0  0
    2.1931   12.8455    4.5748 C   0  0  0  0  0  0  0  0  0  0  0  0
    1.7740   10.1211    2.8908 C   0  0  1  0  0  3  0  0  0  0  0  0
   -0.0573   12.6516    3.5075 C   0  0  0  0  0  0  0  0  0  0  0  0
   -0.0750   13.7329    3.3534 H   0  0  0  0  0  0  0  0  0  0  0  0
   -1.0784   12.3421    3.7495 H   0  0  0  0  0  0  0  0  0  0  0  0
    4.8629   13.7733    4.4132 C   0  0  0  0  0  0  0  0  0  0  0  0
    5.8768   14.1279    4.3190 H   0  0  0  0  0  0  0  0  0  0  0  0
    0.4138   10.5454    2.3810 C   0  0  0  0  0  0  0  0  0  0  0  0
   -0.3729   10.1678    3.0444 H   0  0  0  0  0  0  0  0  0  0  0  0
    0.2776   10.0839    1.3953 H   0  0  0  0  0  0  0  0  0  0  0  0
    0.5764   11.2960    5.5588 C   0  0  0  0  0  0  0  0  0  0  0  0
   -0.2862   15.9250   -0.4661 C   0  0  0  0  0  0  0  0  0  0  0  0
   -0.9236   16.6968   -0.8673 H   0  0  0  0  0  0  0  0  0  0  0  0
   -0.5195   12.4837    1.1353 C   0  0  0  0  0  0  0  0  0  0  0  0
   -1.5641   12.5855    1.4562 H   0  0  0  0  0  0  0  0  0  0  0  0
   -0.4888   11.7540    0.3169 H   0  0  0  0  0  0  0  0  0  0  0  0
    1.9436    9.0323    3.7294 C   0  0  0  0  0  0  0  0  0  0  0  0
    1.0839    8.4853    4.0826 H   0  0  0  0  0  0  0  0  0  0  0  0
   -0.8384   14.7763    0.0842 C   0  0  0  0  0  0  0  0  0  0  0  0
   -1.9078   14.6401    0.1165 H   0  0  0  0  0  0  0  0  0  0  0  0
    1.8732   15.0431    0.0394 C   0  0  0  0  0  0  0  0  0  0  0  0
    2.9548   15.0957    0.0417 H   0  0  0  0  0  0  0  0  0  0  0  0
    1.0932   16.0567   -0.4905 C   0  0  0  0  0  0  0  0  0  0  0  0
    1.5623   16.9295   -0.9135 H   0  0  0  0  0  0  0  0  0  0  0  0
    3.2189   12.3052    5.4141 C   0  0  0  0  0  0  0  0  0  0  0  0
    1.6005   10.8113    6.4363 C   0  0  0  0  0  0  0  0  0  0  0  0
    2.8973   11.2972    6.3149 C   0  0  0  0  0  0  0  0  0  0  0  0
    3.6755   10.8795    6.9369 H   0  0  0  0  0  0  0  0  0  0  0  0
    4.0619   10.4735    2.8052 C   0  0  0  0  0  0  0  0  0  0  0  0
    4.8680   11.0768    2.4080 H   0  0  0  0  0  0  0  0  0  0  0  0
    3.2247    8.6622    4.1108 C   0  0  0  0  0  0  0  0  0  0  0  0
    3.3733    7.8177    4.7646 H   0  0  0  0  0  0  0  0  0  0  0  0
    4.5489   12.7835    5.2927 C   0  0  0  0  0  0  0  0  0  0  0  0
    5.3041   12.3462    5.9282 H   0  0  0  0  0  0  0  0  0  0  0  0
    4.2657   12.8126    0.4936 Cl  0  0  0  0  0  0  0  0  0  0  0  0
  1 55  1  6  0  0  0
  1  2  1  0  0  0  0
  1  4  1  0  0  0  0
  2 28  1  0  0  0  0
  2 23  1  1  0  0  0
  3 19  1  0  0  0  0
  3  1  1  0  0  0  0
  4 49  1  0  0  0  0
  4 22  1  0  0  0  0
  5 15  2  0  0  0  0
  5 26  1  0  0  0  0
  6  5  1  0  0  0  0
  7  8  1  0  0  0  0
  7 11  1  0  0  0  0
  9 11  2  0  0  0  0
  9 10  1  0  0  0  0
 11 12  1  0  0  0  0
 13  7  2  0  0  0  0
 14 13  1  0  0  0  0
 15 21  1  0  0  0  0
 16 15  1  0  0  0  0
 17 18  1  0  0  0  0
 17 51  1  0  0  0  0
 19 39  1  6  0  0  0
 19 34  1  0  0  0  0
 20 31  1  0  0  0  0
 21 20  2  0  0  0  0
 21 45  1  0  0  0  0
 22 37  1  6  0  0  0
 23 25  1  0  0  0  0
 23 20  1  0  0  0  0
 24 23  1  0  0  0  0
 26 53  2  0  0  0  0
 27 26  1  0  0  0  0
 28 22  1  0  0  0  0
 28 29  1  0  0  0  0
 30 28  1  0  0  0  0
 31 13  1  0  0  0  0
 31 46  2  0  0  0  0
 32 39  2  0  0  0  0
 33 32  1  0  0  0  0
 34 35  1  0  0  0  0
 34  2  1  0  0  0  0
 36 34  1  0  0  0  0
 37 38  1  0  0  0  0
 37 51  2  0  0  0  0
 39 40  1  0  0  0  0
 41 42  1  0  0  0  0
 41  3  1  0  0  0  0
 43 32  1  0  0  0  0
 43 41  2  0  0  0  0
 44 43  1  0  0  0  0
 45 47  2  0  0  0  0
 46  9  1  0  0  0  0
 47 46  1  0  0  0  0
 47 48  1  0  0  0  0
 49 17  2  0  0  0  0
 50 49  1  0  0  0  0
 51 52  1  0  0  0  0
 53 45  1  0  0  0  0
 53 54  1  0  0  0  0
M  END
$$$$
