CSD_code = WOSPAV | q = 1 | S = 0 | Stoichiometry = C30H35ClOPRuS(1+) | MND = 9
 OpenBabel04212202113D

 70 74  0  0  1  0  0  0  0  0999 V2000
   12.8989   10.6797   11.5654 Ru  0  0  0  0  0  0  0  0  0  0  0  0
   12.2739    9.1103   10.0505 P   0  0  1  0  0  4  0  0  0  0  0  0
   10.6721   10.6432   12.2602 Cl  0  0  0  0  0 15  0  0  0  0  0  0
   13.4823    8.7915   12.6814 S   0  0  2  0  0  0  0  0  0  0  0  0
   14.9277    8.7097   12.5707 O   0  0  0  0  0  1  0  0  0  0  0  0
   13.2394    7.5440   10.3335 C   0  0  1  0  0  0  0  0  0  0  0  0
   14.3240    7.5710   10.2274 H   0  0  0  0  0  0  0  0  0  0  0  0
   12.7978    7.3273   11.7877 C   0  0  2  0  0  0  0  0  0  0  0  0
   13.2145    6.4359   12.2529 H   0  0  0  0  0  0  0  0  0  0  0  0
   11.2747    7.4272   11.8052 C   0  0  0  0  0  0  0  0  0  0  0  0
   10.9376    8.1219   12.5789 H   0  0  0  0  0  0  0  0  0  0  0  0
   10.8102    6.4579   11.9899 H   0  0  0  0  0  0  0  0  0  0  0  0
   10.8765    7.9440   10.4017 C   0  0  2  0  0  0  0  0  0  0  0  0
    9.8621    8.3349   10.3625 H   0  0  0  0  0  0  0  0  0  0  0  0
   11.1981    6.8339    9.4225 C   0  0  0  0  0  0  0  0  0  0  0  0
   12.5143    6.5899    9.4123 C   0  0  0  0  0  0  0  0  0  0  0  0
   10.0981    6.1333    8.7102 C   0  0  0  0  0  0  0  0  0  0  0  0
    9.5448    6.8398    8.0927 H   0  0  0  0  0  0  0  0  0  0  0  0
    9.3997    5.7047    9.4281 H   0  0  0  0  0  0  0  0  0  0  0  0
   10.4768    5.3392    8.0750 H   0  0  0  0  0  0  0  0  0  0  0  0
   13.2840    5.5525    8.6758 C   0  0  0  0  0  0  0  0  0  0  0  0
   14.0207    6.0226    8.0248 H   0  0  0  0  0  0  0  0  0  0  0  0
   12.6315    4.9325    8.0695 H   0  0  0  0  0  0  0  0  0  0  0  0
   13.8202    4.9134    9.3768 H   0  0  0  0  0  0  0  0  0  0  0  0
   12.2707    9.4482    8.2828 C   0  0  0  0  0  0  0  0  0  0  0  0
   13.4772    9.4493    7.5872 C   0  0  0  0  0  0  0  0  0  0  0  0
   14.3941    9.2122    8.1102 H   0  0  0  0  0  0  0  0  0  0  0  0
   13.4875    9.7344    6.2344 C   0  0  0  0  0  0  0  0  0  0  0  0
   14.4183    9.7263    5.6877 H   0  0  0  0  0  0  0  0  0  0  0  0
   12.3012   10.0300    5.5797 C   0  0  0  0  0  0  0  0  0  0  0  0
   12.3130   10.2549    4.5244 H   0  0  0  0  0  0  0  0  0  0  0  0
   11.1013   10.0372    6.2740 C   0  0  0  0  0  0  0  0  0  0  0  0
   10.1812   10.2661    5.7586 H   0  0  0  0  0  0  0  0  0  0  0  0
   11.0811    9.7509    7.6270 C   0  0  0  0  0  0  0  0  0  0  0  0
   10.1527    9.7573    8.1799 H   0  0  0  0  0  0  0  0  0  0  0  0
   13.0789    8.4331   14.3951 C   0  0  0  0  0  0  0  0  0  0  0  0
   13.8925    7.5397   15.0720 C   0  0  0  0  0  0  0  0  0  0  0  0
   14.7419    7.1066   14.5668 H   0  0  0  0  0  0  0  0  0  0  0  0
   13.6040    7.2398   16.3915 C   0  0  0  0  0  0  0  0  0  0  0  0
   14.2279    6.5443   16.9308 H   0  0  0  0  0  0  0  0  0  0  0  0
   12.5183    7.8354   17.0163 C   0  0  0  0  0  0  0  0  0  0  0  0
   12.2978    7.5994   18.0458 H   0  0  0  0  0  0  0  0  0  0  0  0
   11.7218    8.7386   16.3301 C   0  0  0  0  0  0  0  0  0  0  0  0
   10.8835    9.2070   16.8213 H   0  0  0  0  0  0  0  0  0  0  0  0
   12.0021    9.0478   15.0088 C   0  0  0  0  0  0  0  0  0  0  0  0
   11.3966    9.7581   14.4639 H   0  0  0  0  0  0  0  0  0  0  0  0
   13.1793   12.6125   10.2819 C   0  0  1  0  0  3  0  0  0  0  0  0
   14.3628   11.8233   10.2063 C   0  0  1  0  0  0  0  0  0  0  0  0
   14.7607   11.5677    9.2298 H   0  0  0  0  0  0  0  0  0  0  0  0
   15.0727   11.4758   11.3615 C   0  0  0  0  0  0  0  0  0  0  0  0
   16.0058   10.9302   11.2820 H   0  0  0  0  0  0  0  0  0  0  0  0
   14.6328   11.8945   12.6441 C   0  0  0  0  0  0  0  0  0  0  0  0
   13.4504   12.6480   12.7272 C   0  0  0  0  0  0  0  0  0  0  0  0
   13.1195   13.0272   13.6879 H   0  0  0  0  0  0  0  0  0  0  0  0
   12.7405   13.0098   11.5589 C   0  0  0  0  0  0  0  0  0  0  0  0
   11.8687   13.6486   11.6539 H   0  0  0  0  0  0  0  0  0  0  0  0
   12.4759   13.0657    9.0251 C   0  0  0  0  0  0  0  0  0  0  0  0
   12.8290   12.4416    8.1953 H   0  0  0  0  0  0  0  0  0  0  0  0
   12.8501   14.5229    8.7323 C   0  0  0  0  0  0  0  0  0  0  0  0
   12.3660   14.8478    7.8157 H   0  0  0  0  0  0  0  0  0  0  0  0
   13.9258   14.6293    8.6109 H   0  0  0  0  0  0  0  0  0  0  0  0
   12.5272   15.1736    9.5416 H   0  0  0  0  0  0  0  0  0  0  0  0
   10.9590   12.8990    9.1394 C   0  0  0  0  0  0  0  0  0  0  0  0
   10.5034   12.9778    8.1565 H   0  0  0  0  0  0  0  0  0  0  0  0
   10.5227   13.6653    9.7747 H   0  0  0  0  0  0  0  0  0  0  0  0
   10.7172   11.9199    9.5583 H   0  0  0  0  0  0  0  0  0  0  0  0
   15.4602   11.5964   13.8517 C   0  0  0  0  0  0  0  0  0  0  0  0
   15.8416   10.5769   13.8106 H   0  0  0  0  0  0  0  0  0  0  0  0
   14.8901   11.7299   14.7686 H   0  0  0  0  0  0  0  0  0  0  0  0
   16.3165   12.2721   13.8762 H   0  0  0  0  0  0  0  0  0  0  0  0
  1  4  1  0  0  0  0
  2 25  1  6  0  0  0
  2  6  1  0  0  0  0
  2 13  1  0  0  0  0
  2  1  1  0  0  0  0
  4  5  1  6  0  0  0
  4 36  1  0  0  0  0
  6  7  1  6  0  0  0
  6  8  1  0  0  0  0
  8 10  1  0  0  0  0
  8  9  1  1  0  0  0
  8  4  1  0  0  0  0
 10 12  1  0  0  0  0
 10 11  1  0  0  0  0
 13 14  1  6  0  0  0
 13 10  1  0  0  0  0
 15 13  1  0  0  0  0
 16 15  2  0  0  0  0
 16  6  1  0  0  0  0
 17 15  1  0  0  0  0
 17 19  1  0  0  0  0
 18 17  1  0  0  0  0
 20 17  1  0  0  0  0
 21 24  1  0  0  0  0
 21 16  1  0  0  0  0
 22 21  1  0  0  0  0
 23 21  1  0  0  0  0
 26 27  1  0  0  0  0
 26 25  2  0  0  0  0
 28 26  1  0  0  0  0
 29 28  1  0  0  0  0
 30 28  2  0  0  0  0
 30 32  1  0  0  0  0
 31 30  1  0  0  0  0
 32 34  2  0  0  0  0
 33 32  1  0  0  0  0
 34 35  1  0  0  0  0
 34 25  1  0  0  0  0
 36 45  2  0  0  0  0
 36 37  1  0  0  0  0
 37 39  2  0  0  0  0
 38 37  1  0  0  0  0
 39 40  1  0  0  0  0
 39 41  1  0  0  0  0
 41 42  1  0  0  0  0
 43 44  1  0  0  0  0
 43 41  2  0  0  0  0
 45 43  1  0  0  0  0
 46 45  1  0  0  0  0
 47 57  1  6  0  0  0
 47 55  1  0  0  0  0
 48 49  1  6  0  0  0
 48 47  1  0  0  0  0
 48 50  1  0  0  0  0
 48  1  1  0  0  0  0
 50 52  2  0  0  0  0
 51 50  1  0  0  0  0
 52 53  1  0  0  0  0
 52 67  1  0  0  0  0
 53 54  1  0  0  0  0
 55 56  1  0  0  0  0
 55 53  2  0  0  0  0
 57 63  1  0  0  0  0
 58 57  1  0  0  0  0
 59 57  1  0  0  0  0
 59 62  1  0  0  0  0
 60 59  1  0  0  0  0
 61 59  1  0  0  0  0
 63 66  1  0  0  0  0
 63 65  1  0  0  0  0
 64 63  1  0  0  0  0
 67 70  1  0  0  0  0
 67 69  1  0  0  0  0
 68 67  1  0  0  0  0
M  END
$$$$
