CSD_code = WOVJIA | q = 0 | S = 0 | Stoichiometry = C14H14Cl2N2PtS | MND = 4
 OpenBabel04212202113D

 34 36  0  0  0  0  0  0  0  0999 V2000
   -8.7463    4.3593    7.9363 Pt  0  0  0  0  0  0  0  0  0  0  0  0
   -8.9620    5.1279    5.8662 Cl  0  0  0  0  0  0  0  0  0  0  0  0
   -9.5204    2.3212    7.3547 Cl  0  0  0  0  0  0  0  0  0  0  0  0
   -8.4234    3.8684   10.1327 S   0  0  0  0  0  0  0  0  0  0  0  0
   -7.8465    5.2554   10.7239 N   0  0  0  0  0  0  0  0  0  0  0  0
   -8.0362    6.1369    8.5875 N   0  0  0  0  0  0  0  0  0  0  0  0
   -9.7794    3.4658   11.2427 C   0  0  0  0  0  0  0  0  0  0  0  0
  -10.7592    2.6072   10.7746 C   0  0  0  0  0  0  0  0  0  0  0  0
  -11.8113    2.2802   11.6136 C   0  0  0  0  0  0  0  0  0  0  0  0
  -11.8703    2.8118   12.8924 C   0  0  0  0  0  0  0  0  0  0  0  0
  -10.8832    3.6760   13.3406 C   0  0  0  0  0  0  0  0  0  0  0  0
   -9.8256    4.0099   12.5124 C   0  0  0  0  0  0  0  0  0  0  0  0
   -7.2543    2.6370   10.7219 C   0  0  0  0  0  0  0  0  0  0  0  0
   -7.2641    1.3996   10.1005 C   0  0  0  0  0  0  0  0  0  0  0  0
   -6.3777    0.4302   10.5381 C   0  0  0  0  0  0  0  0  0  0  0  0
   -5.5012    0.7085   11.5755 C   0  0  0  0  0  0  0  0  0  0  0  0
   -5.5000    1.9566   12.1789 C   0  0  0  0  0  0  0  0  0  0  0  0
   -6.3823    2.9342   11.7519 C   0  0  0  0  0  0  0  0  0  0  0  0
   -7.7229    6.2487    9.8478 C   0  0  0  0  0  0  0  0  0  0  0  0
   -7.1900    7.5418   10.3945 C   0  0  0  0  0  0  0  0  0  0  0  0
  -10.6986    2.2167    9.7681 H   0  0  0  0  0  0  0  0  0  0  0  0
  -12.5861    1.6154   11.2648 H   0  0  0  0  0  0  0  0  0  0  0  0
  -12.6937    2.5568   13.5424 H   0  0  0  0  0  0  0  0  0  0  0  0
  -10.9372    4.0927   14.3350 H   0  0  0  0  0  0  0  0  0  0  0  0
   -9.0500    4.6908   12.8263 H   0  0  0  0  0  0  0  0  0  0  0  0
   -7.9443    1.2131    9.2812 H   0  0  0  0  0  0  0  0  0  0  0  0
   -6.3686   -0.5389   10.0638 H   0  0  0  0  0  0  0  0  0  0  0  0
   -4.8095   -0.0491   11.9116 H   0  0  0  0  0  0  0  0  0  0  0  0
   -4.8100    2.1712   12.9808 H   0  0  0  0  0  0  0  0  0  0  0  0
   -6.3965    3.9195   12.1909 H   0  0  0  0  0  0  0  0  0  0  0  0
   -6.9864    7.4430   11.4559 H   0  0  0  0  0  0  0  0  0  0  0  0
   -6.2733    7.8105    9.8730 H   0  0  0  0  0  0  0  0  0  0  0  0
   -7.9035    6.9551    8.0046 H   0  0  0  0  0  0  0  0  0  0  0  0
   -7.9197    8.3342   10.2380 H   0  0  0  0  0  0  0  0  0  0  0  0
  1  6  1  0  0  0  0
  1  4  1  0  0  0  0
  2  1  1  0  0  0  0
  3  1  1  0  0  0  0
  4 13  1  0  0  0  0
  4  5  1  0  0  0  0
  4  7  1  0  0  0  0
  6 19  1  0  0  0  0
  7 12  1  0  0  0  0
  8  7  2  0  0  0  0
  8  9  1  0  0  0  0
  9 10  2  0  0  0  0
 10 11  1  0  0  0  0
 10 23  1  0  0  0  0
 11 24  1  0  0  0  0
 12 25  1  0  0  0  0
 12 11  2  0  0  0  0
 13 18  1  0  0  0  0
 14 15  1  0  0  0  0
 14 13  2  0  0  0  0
 15 16  2  0  0  0  0
 16 28  1  0  0  0  0
 16 17  1  0  0  0  0
 17 29  1  0  0  0  0
 18 17  2  0  0  0  0
 18 30  1  0  0  0  0
 19 20  1  0  0  0  0
 19  5  2  0  0  0  0
 20 31  1  0  0  0  0
 21  8  1  0  0  0  0
 22  9  1  0  0  0  0
 26 14  1  0  0  0  0
 27 15  1  0  0  0  0
 32 20  1  0  0  0  0
 33  6  1  0  0  0  0
 34 20  1  0  0  0  0
M  END
$$$$
