CSD_code = WOVQED | q = 0 | S = 0 | Stoichiometry = C28H24Cl2N4Zn | MND = 4
 OpenBabel04212202113D

 59 64  0  0  1  0  0  0  0  0999 V2000
   -0.4386    3.6698    6.0777 Zn  0  0  0  0  0  0  0  0  0  0  0  0
   -1.8431    2.5904    7.3941 Cl  0  0  0  0  0  0  0  0  0  0  0  0
    0.8590    2.4744    4.7517 Cl  0  0  0  0  0  0  0  0  0  0  0  0
    0.7199    4.8321    7.3451 N   0  0  0  0  0  0  0  0  0  0  0  0
    2.1796    5.4158    8.8938 N   0  0  0  0  0  0  0  0  0  0  0  0
    3.0454    5.4511    9.4066 H   0  0  0  0  0  0  0  0  0  0  0  0
   -1.4871    4.9428    4.8184 N   0  0  0  0  0  0  0  0  0  0  0  0
   -2.8889    5.6685    3.2763 N   0  0  0  0  0  0  0  0  0  0  0  0
   -3.7487    5.7875    2.7659 H   0  0  0  0  0  0  0  0  0  0  0  0
    0.0828    5.6593    8.2428 C   0  0  0  0  0  0  0  0  0  0  0  0
   -1.2260    6.1187    8.2763 C   0  0  0  0  0  0  0  0  0  0  0  0
   -1.9341    5.8257    7.5194 H   0  0  0  0  0  0  0  0  0  0  0  0
   -1.5791    6.9441    9.3235 C   0  0  0  0  0  0  0  0  0  0  0  0
   -2.5914    7.3142    9.3813 H   0  0  0  0  0  0  0  0  0  0  0  0
   -0.6639    7.3106   10.3121 C   0  0  0  0  0  0  0  0  0  0  0  0
   -0.9871    7.9560   11.1148 H   0  0  0  0  0  0  0  0  0  0  0  0
    0.6436    6.8658   10.2903 C   0  0  0  0  0  0  0  0  0  0  0  0
    1.3506    7.1479   11.0553 H   0  0  0  0  0  0  0  0  0  0  0  0
    1.0028    6.0371    9.2402 C   0  0  0  0  0  0  0  0  0  0  0  0
    1.9597    4.7067    7.7585 C   0  0  2  0  0  3  0  0  0  0  0  0
    3.0383    3.9660    7.0596 C   0  0  0  0  0  0  0  0  0  0  0  0
    2.6047    3.1176    6.5280 H   0  0  0  0  0  0  0  0  0  0  0  0
    3.7685    3.6064    7.7889 H   0  0  0  0  0  0  0  0  0  0  0  0
    3.7149    4.8784    6.0548 C   0  0  0  0  0  0  0  0  0  0  0  0
    3.6289    4.6013    4.6973 C   0  0  0  0  0  0  0  0  0  0  0  0
    3.0755    3.7362    4.3645 H   0  0  0  0  0  0  0  0  0  0  0  0
    4.2385    5.4368    3.7762 C   0  0  0  0  0  0  0  0  0  0  0  0
    4.1686    5.2072    2.7233 H   0  0  0  0  0  0  0  0  0  0  0  0
    4.9320    6.5571    4.2004 C   0  0  0  0  0  0  0  0  0  0  0  0
    5.4058    7.2098    3.4818 H   0  0  0  0  0  0  0  0  0  0  0  0
    5.0201    6.8379    5.5534 C   0  0  0  0  0  0  0  0  0  0  0  0
    5.5618    7.7091    5.8926 H   0  0  0  0  0  0  0  0  0  0  0  0
    4.4157    6.0019    6.4754 C   0  0  0  0  0  0  0  0  0  0  0  0
    4.4989    6.2289    7.5298 H   0  0  0  0  0  0  0  0  0  0  0  0
   -0.7769    5.7102    3.9226 C   0  0  0  0  0  0  0  0  0  0  0  0
    0.5693    6.0444    3.8873 C   0  0  0  0  0  0  0  0  0  0  0  0
    1.2489    5.6821    4.6405 H   0  0  0  0  0  0  0  0  0  0  0  0
    0.9959    6.8384    2.8431 C   0  0  0  0  0  0  0  0  0  0  0  0
    2.0384    7.1119    2.7842 H   0  0  0  0  0  0  0  0  0  0  0  0
    0.1168    7.2948    1.8592 C   0  0  0  0  0  0  0  0  0  0  0  0
    0.4974    7.9114    1.0590 H   0  0  0  0  0  0  0  0  0  0  0  0
   -1.2267    6.9748    1.8826 C   0  0  0  0  0  0  0  0  0  0  0  0
   -1.9060    7.3259    1.1211 H   0  0  0  0  0  0  0  0  0  0  0  0
   -1.6595    6.1779    2.9295 C   0  0  0  0  0  0  0  0  0  0  0  0
   -2.7341    4.9366    4.4079 C   0  0  2  0  0  3  0  0  0  0  0  0
   -3.8760    4.2961    5.1055 C   0  0  0  0  0  0  0  0  0  0  0  0
   -3.5220    3.4086    5.6322 H   0  0  0  0  0  0  0  0  0  0  0  0
   -4.6371    4.0090    4.3755 H   0  0  0  0  0  0  0  0  0  0  0  0
   -4.4649    5.2616    6.1158 C   0  0  0  0  0  0  0  0  0  0  0  0
   -4.4047    4.9699    7.4717 C   0  0  0  0  0  0  0  0  0  0  0  0
   -3.9330    4.0557    7.7990 H   0  0  0  0  0  0  0  0  0  0  0  0
   -4.9361    5.8518    8.3979 C   0  0  0  0  0  0  0  0  0  0  0  0
   -4.8880    5.6109    9.4494 H   0  0  0  0  0  0  0  0  0  0  0  0
   -5.5244    7.0333    7.9805 C   0  0  0  0  0  0  0  0  0  0  0  0
   -5.9363    7.7225    8.7032 H   0  0  0  0  0  0  0  0  0  0  0  0
   -5.5857    7.3293    6.6293 C   0  0  0  0  0  0  0  0  0  0  0  0
   -6.0449    8.2484    6.2953 H   0  0  0  0  0  0  0  0  0  0  0  0
   -5.0600    6.4469    5.7021 C   0  0  0  0  0  0  0  0  0  0  0  0
   -5.1223    6.6865    4.6491 H   0  0  0  0  0  0  0  0  0  0  0  0
  1  4  1  0  0  0  0
  1  2  1  0  0  0  0
  3  1  1  0  0  0  0
  4 20  1  0  0  0  0
  4 10  1  0  0  0  0
  5 19  1  0  0  0  0
  5  6  1  0  0  0  0
  7  1  1  0  0  0  0
  8 45  1  0  0  0  0
  9  8  1  0  0  0  0
 10 11  2  0  0  0  0
 10 19  1  0  0  0  0
 11 13  1  0  0  0  0
 12 11  1  0  0  0  0
 13 14  1  0  0  0  0
 13 15  2  0  0  0  0
 15 16  1  0  0  0  0
 17 15  1  0  0  0  0
 17 18  1  0  0  0  0
 19 17  2  0  0  0  0
 20 21  1  6  0  0  0
 20  5  1  0  0  0  0
 21 23  1  0  0  0  0
 22 21  1  0  0  0  0
 24 33  1  0  0  0  0
 24 21  1  0  0  0  0
 25 24  2  0  0  0  0
 26 25  1  0  0  0  0
 27 29  2  0  0  0  0
 27 25  1  0  0  0  0
 28 27  1  0  0  0  0
 29 31  1  0  0  0  0
 30 29  1  0  0  0  0
 31 32  1  0  0  0  0
 31 33  2  0  0  0  0
 33 34  1  0  0  0  0
 35  7  1  0  0  0  0
 36 35  1  0  0  0  0
 36 37  1  0  0  0  0
 38 36  2  0  0  0  0
 39 38  1  0  0  0  0
 40 42  2  0  0  0  0
 40 38  1  0  0  0  0
 41 40  1  0  0  0  0
 42 44  1  0  0  0  0
 43 42  1  0  0  0  0
 44  8  1  0  0  0  0
 44 35  2  0  0  0  0
 45  7  1  0  0  0  0
 45 46  1  1  0  0  0
 46 47  1  0  0  0  0
 46 49  1  0  0  0  0
 48 46  1  0  0  0  0
 49 50  1  0  0  0  0
 50 51  1  0  0  0  0
 50 52  2  0  0  0  0
 52 53  1  0  0  0  0
 54 52  1  0  0  0  0
 54 55  1  0  0  0  0
 56 54  2  0  0  0  0
 57 56  1  0  0  0  0
 58 49  2  0  0  0  0
 58 56  1  0  0  0  0
 59 58  1  0  0  0  0
M  END
$$$$
