CSD_code = WOVWOV | q = 0 | S = 0 | Stoichiometry = C14H14Cl2HgN2O2 | MND = 5
 OpenBabel04212202113D

 35 36  0  0  1  0  0  0  0  0999 V2000
   -1.4907   -3.2978   -1.0495 Hg  0  0  0  0  0  0  0  0  0  0  0  0
   -2.1136   -2.9056    1.1122 Cl  0  0  0  0  0  0  0  0  0  0  0  0
    0.2151   -4.2845   -2.1937 Cl  0  0  0  0  0  0  0  0  0  0  0  0
   -1.5122   -0.2050   -1.1752 O   0  0  0  0  0  0  0  0  0  0  0  0
   -2.4750   -5.8997   -0.6663 O   0  0  0  0  0  0  0  0  0  0  0  0
   -2.9472   -1.6303   -2.0657 N   0  0  0  0  0  0  0  0  0  0  0  0
   -3.4429   -4.2496   -2.4835 N   0  0  0  0  0  0  0  0  0  0  0  0
   -4.1018   -1.9831   -2.6353 C   0  0  2  0  0  3  0  0  0  0  0  0
   -5.0828   -1.0383   -2.9236 C   0  0  0  0  0  0  0  0  0  0  0  0
   -6.0094   -1.3359   -3.3873 H   0  0  0  0  0  0  0  0  0  0  0  0
   -4.8439    0.2849   -2.5826 C   0  0  0  0  0  0  0  0  0  0  0  0
   -5.5882    1.0406   -2.7848 H   0  0  0  0  0  0  0  0  0  0  0  0
   -3.6535    0.6399   -1.9775 C   0  0  0  0  0  0  0  0  0  0  0  0
   -3.4610    1.6635   -1.7028 H   0  0  0  0  0  0  0  0  0  0  0  0
   -2.7117   -0.3694   -1.7335 C   0  0  0  0  0  0  0  0  0  0  0  0
   -4.2845   -3.3978   -2.9174 C   0  0  0  0  0  0  0  0  0  0  0  0
   -5.1814   -3.6732   -3.4783 H   0  0  0  0  0  0  0  0  0  0  0  0
   -1.1484    1.0584   -0.6541 C   0  0  0  0  0  0  0  0  0  0  0  0
   -0.1663    0.9172   -0.2076 H   0  0  0  0  0  0  0  0  0  0  0  0
   -1.8525    1.3839    0.1162 H   0  0  0  0  0  0  0  0  0  0  0  0
   -1.0843    1.8102   -1.4464 H   0  0  0  0  0  0  0  0  0  0  0  0
   -3.4855   -5.5971   -2.7607 C   0  0  0  0  0  0  0  0  0  0  0  0
   -2.8957   -6.4709   -1.8136 C   0  0  0  0  0  0  0  0  0  0  0  0
   -2.8293   -7.8300   -2.0991 C   0  0  0  0  0  0  0  0  0  0  0  0
   -2.3712   -8.5123   -1.4016 H   0  0  0  0  0  0  0  0  0  0  0  0
   -3.3314   -8.3206   -3.2919 C   0  0  0  0  0  0  0  0  0  0  0  0
   -3.2608   -9.3776   -3.4992 H   0  0  0  0  0  0  0  0  0  0  0  0
   -3.9072   -7.4698   -4.2219 C   0  0  0  0  0  0  0  0  0  0  0  0
   -4.2806   -7.8587   -5.1565 H   0  0  0  0  0  0  0  0  0  0  0  0
   -3.9846   -6.1183   -3.9562 C   0  0  0  0  0  0  0  0  0  0  0  0
   -4.3855   -5.4424   -4.6968 H   0  0  0  0  0  0  0  0  0  0  0  0
   -1.8514   -6.7070    0.3139 C   0  0  0  0  0  0  0  0  0  0  0  0
   -1.6164   -6.0338    1.1372 H   0  0  0  0  0  0  0  0  0  0  0  0
   -0.9289   -7.1517   -0.0697 H   0  0  0  0  0  0  0  0  0  0  0  0
   -2.5301   -7.4897    0.6658 H   0  0  0  0  0  0  0  0  0  0  0  0
  1  2  1  0  0  0  0
  3  1  1  0  0  0  0
  4 18  1  0  0  0  0
  5 32  1  0  0  0  0
  6 15  1  0  0  0  0
  6  1  1  0  0  0  0
  8 16  1  1  0  0  0
  8  6  1  0  0  0  0
  9  8  1  0  0  0  0
  9 11  2  0  0  0  0
 10  9  1  0  0  0  0
 11 13  1  0  0  0  0
 12 11  1  0  0  0  0
 13 15  2  0  0  0  0
 13 14  1  0  0  0  0
 15  4  1  0  0  0  0
 16  7  2  0  0  0  0
 17 16  1  0  0  0  0
 18 19  1  0  0  0  0
 18 20  1  0  0  0  0
 21 18  1  0  0  0  0
 22  7  1  0  0  0  0
 22 23  1  0  0  0  0
 23  5  1  0  0  0  0
 24 23  2  0  0  0  0
 24 25  1  0  0  0  0
 26 24  1  0  0  0  0
 27 26  1  0  0  0  0
 28 30  1  0  0  0  0
 28 26  2  0  0  0  0
 29 28  1  0  0  0  0
 30 22  2  0  0  0  0
 31 30  1  0  0  0  0
 32 35  1  0  0  0  0
 32 33  1  0  0  0  0
 34 32  1  0  0  0  0
M  END
$$$$
