CSD_code = WOVWUB | q = 0 | S = 0 | Stoichiometry = C14H14Cl2N2O2Zn | MND = 5
 OpenBabel04212202113D

 35 37  0  0  0  0  0  0  0  0999 V2000
    2.2502    1.3951    3.4723 Zn  0  0  0  0  0  0  0  0  0  0  0  0
    0.5685    2.6132    2.6834 Cl  0  0  0  0  0  0  0  0  0  0  0  0
    4.3266    1.1978    2.7738 Cl  0  0  0  0  0  0  0  0  0  0  0  0
    2.6196    3.8848    5.0751 O   0  0  0  0  0  0  0  0  0  0  0  0
    1.6082   -0.3007    1.8326 O   0  0  0  0  0  0  0  0  0  0  0  0
    1.9841    1.8273    5.5314 N   0  0  0  0  0  0  0  0  0  0  0  0
    1.7234   -0.5422    4.4215 N   0  0  0  0  0  0  0  0  0  0  0  0
    1.4377    0.8651    6.2734 C   0  0  0  0  0  0  0  0  0  0  0  0
    0.9426    1.1313    7.5457 C   0  0  0  0  0  0  0  0  0  0  0  0
    0.5039    0.3470    8.1409 H   0  0  0  0  0  0  0  0  0  0  0  0
    1.0141    2.4367    8.0141 C   0  0  0  0  0  0  0  0  0  0  0  0
    0.6323    2.6805    8.9943 H   0  0  0  0  0  0  0  0  0  0  0  0
    1.5659    3.4301    7.2286 C   0  0  0  0  0  0  0  0  0  0  0  0
    1.6173    4.4460    7.5831 H   0  0  0  0  0  0  0  0  0  0  0  0
    2.0533    3.0770    5.9599 C   0  0  0  0  0  0  0  0  0  0  0  0
    1.3855   -0.4419    5.6468 C   0  0  0  0  0  0  0  0  0  0  0  0
    1.0312   -1.2782    6.2508 H   0  0  0  0  0  0  0  0  0  0  0  0
    2.6775    5.2750    5.3210 C   0  0  0  0  0  0  0  0  0  0  0  0
    3.1270    5.7068    4.4293 H   0  0  0  0  0  0  0  0  0  0  0  0
    3.3025    5.4982    6.1908 H   0  0  0  0  0  0  0  0  0  0  0  0
    1.6766    5.6921    5.4607 H   0  0  0  0  0  0  0  0  0  0  0  0
    1.8040   -1.7009    3.6926 C   0  0  0  0  0  0  0  0  0  0  0  0
    1.8115   -1.5478    2.2832 C   0  0  0  0  0  0  0  0  0  0  0  0
    1.9901   -2.6712    1.4813 C   0  0  0  0  0  0  0  0  0  0  0  0
    2.0194   -2.5751    0.4081 H   0  0  0  0  0  0  0  0  0  0  0  0
    2.1495   -3.9190    2.0558 C   0  0  0  0  0  0  0  0  0  0  0  0
    2.2925   -4.7791    1.4195 H   0  0  0  0  0  0  0  0  0  0  0  0
    2.1395   -4.0742    3.4347 C   0  0  0  0  0  0  0  0  0  0  0  0
    2.2782   -5.0508    3.8710 H   0  0  0  0  0  0  0  0  0  0  0  0
    1.9694   -2.9732    4.2467 C   0  0  0  0  0  0  0  0  0  0  0  0
    2.0065   -3.0832    5.3198 H   0  0  0  0  0  0  0  0  0  0  0  0
    1.6545   -0.0389    0.4439 C   0  0  0  0  0  0  0  0  0  0  0  0
    1.4336    1.0227    0.3456 H   0  0  0  0  0  0  0  0  0  0  0  0
    0.8966   -0.6203   -0.0886 H   0  0  0  0  0  0  0  0  0  0  0  0
    2.6491   -0.2451    0.0397 H   0  0  0  0  0  0  0  0  0  0  0  0
  1  7  1  0  0  0  0
  1  6  1  0  0  0  0
  2  1  1  0  0  0  0
  3  1  1  0  0  0  0
  4 18  1  0  0  0  0
  4 15  1  0  0  0  0
  5 23  1  0  0  0  0
  6 15  1  0  0  0  0
  6  8  1  0  0  0  0
  7 16  1  0  0  0  0
  8  9  1  0  0  0  0
  9 11  2  0  0  0  0
  9 10  1  0  0  0  0
 11 12  1  0  0  0  0
 13 14  1  0  0  0  0
 13 11  1  0  0  0  0
 15 13  2  0  0  0  0
 16 17  1  0  0  0  0
 16  8  2  0  0  0  0
 18 21  1  0  0  0  0
 18 20  1  0  0  0  0
 19 18  1  0  0  0  0
 22 30  1  0  0  0  0
 22  7  1  0  0  0  0
 23 22  2  0  0  0  0
 24 26  2  0  0  0  0
 24 23  1  0  0  0  0
 25 24  1  0  0  0  0
 26 28  1  0  0  0  0
 27 26  1  0  0  0  0
 28 29  1  0  0  0  0
 28 30  2  0  0  0  0
 30 31  1  0  0  0  0
 32  5  1  0  0  0  0
 33 32  1  0  0  0  0
 34 32  1  0  0  0  0
 35 32  1  0  0  0  0
M  END
$$$$
