CSD_code = WOWHAT | q = 0 | S = 0 | Stoichiometry = C14H14Cl2N2OZn | MND = 4
 OpenBabel04212202113D

 34 36  0  0  0  0  0  0  0  0999 V2000
    5.3108    5.6341    1.8428 Zn  0  0  0  0  0  0  0  0  0  0  0  0
    3.1580    6.0498    2.0409 Cl  0  0  0  0  0  0  0  0  0  0  0  0
    7.1571    6.6099    2.5206 Cl  0  0  0  0  0  0  0  0  0  0  0  0
    5.2235    3.6296    4.0217 O   0  0  0  0  0  0  0  0  0  0  0  0
    5.6263    3.5678    1.8614 N   0  0  0  0  0  0  0  0  0  0  0  0
    5.7501    5.1264   -0.2867 N   0  0  0  0  0  0  0  0  0  0  0  0
    5.9362    2.9938    0.7006 C   0  0  0  0  0  0  0  0  0  0  0  0
    6.1732    1.6251    0.6203 C   0  0  0  0  0  0  0  0  0  0  0  0
    6.4223    1.1641   -0.3216 H   0  0  0  0  0  0  0  0  0  0  0  0
    6.0802    0.8752    1.7853 C   0  0  0  0  0  0  0  0  0  0  0  0
    6.2588   -0.1893    1.7580 H   0  0  0  0  0  0  0  0  0  0  0  0
    5.7611    1.4841    2.9842 C   0  0  0  0  0  0  0  0  0  0  0  0
    5.6901    0.9079    3.8916 H   0  0  0  0  0  0  0  0  0  0  0  0
    5.5359    2.8692    2.9805 C   0  0  0  0  0  0  0  0  0  0  0  0
    6.0105    3.8874   -0.4397 C   0  0  0  0  0  0  0  0  0  0  0  0
    6.2776    3.4448   -1.4004 H   0  0  0  0  0  0  0  0  0  0  0  0
    5.0833    3.0513    5.3040 C   0  0  0  0  0  0  0  0  0  0  0  0
    4.8317    3.8759    5.9675 H   0  0  0  0  0  0  0  0  0  0  0  0
    6.0184    2.5903    5.6338 H   0  0  0  0  0  0  0  0  0  0  0  0
    4.2765    2.3132    5.3181 H   0  0  0  0  0  0  0  0  0  0  0  0
    5.8402    6.0676   -1.2906 C   0  0  0  0  0  0  0  0  0  0  0  0
    6.6916    5.9451   -2.3944 C   0  0  0  0  0  0  0  0  0  0  0  0
    7.3419    5.0876   -2.4861 H   0  0  0  0  0  0  0  0  0  0  0  0
    6.7513    6.9512   -3.3357 C   0  0  0  0  0  0  0  0  0  0  0  0
    7.4274    6.8541   -4.1732 H   0  0  0  0  0  0  0  0  0  0  0  0
    5.9640    8.0929   -3.2203 C   0  0  0  0  0  0  0  0  0  0  0  0
    5.1223    8.2122   -2.1156 C   0  0  0  0  0  0  0  0  0  0  0  0
    4.5129    9.0971   -2.0068 H   0  0  0  0  0  0  0  0  0  0  0  0
    5.0678    7.2262   -1.1562 C   0  0  0  0  0  0  0  0  0  0  0  0
    4.4141    7.3192   -0.3007 H   0  0  0  0  0  0  0  0  0  0  0  0
    6.0364    9.1876   -4.2355 C   0  0  0  0  0  0  0  0  0  0  0  0
    6.5778    8.8674   -5.1219 H   0  0  0  0  0  0  0  0  0  0  0  0
    6.5488   10.0516   -3.8124 H   0  0  0  0  0  0  0  0  0  0  0  0
    5.0371    9.5067   -4.5254 H   0  0  0  0  0  0  0  0  0  0  0  0
  1  5  1  0  0  0  0
  1  2  1  0  0  0  0
  1  3  1  0  0  0  0
  4 17  1  0  0  0  0
  5 14  1  0  0  0  0
  6  1  1  0  0  0  0
  7  5  1  0  0  0  0
  8  7  1  0  0  0  0
  8 10  2  0  0  0  0
  9  8  1  0  0  0  0
 10 12  1  0  0  0  0
 11 10  1  0  0  0  0
 12 13  1  0  0  0  0
 14 12  2  0  0  0  0
 14  4  1  0  0  0  0
 15  6  1  0  0  0  0
 15  7  2  0  0  0  0
 16 15  1  0  0  0  0
 17 20  1  0  0  0  0
 17 19  1  0  0  0  0
 17 18  1  0  0  0  0
 21 29  1  0  0  0  0
 21  6  1  0  0  0  0
 22 21  2  0  0  0  0
 23 22  1  0  0  0  0
 24 26  2  0  0  0  0
 24 22  1  0  0  0  0
 25 24  1  0  0  0  0
 26 27  1  0  0  0  0
 27 28  1  0  0  0  0
 27 29  2  0  0  0  0
 29 30  1  0  0  0  0
 31 33  1  0  0  0  0
 31 26  1  0  0  0  0
 32 31  1  0  0  0  0
 34 31  1  0  0  0  0
M  END
$$$$
