CSD_code = WOWHIB | q = 0 | S = 0 | Stoichiometry = C28H28ClCuN5P | MND = 4
 OpenBabel04212202113D

 64 69  0  0  1  0  0  0  0  0999 V2000
    6.8132    1.4316   12.8772 Cu  0  0  2  0  0  0  0  0  0  0  0  0
    8.6227    2.4400   13.5080 Cl  0  0  0  0  0  0  0  0  0  0  0  0
    4.9799    2.7436   12.5120 P   0  0  0  0  0  4  0  0  0  0  0  0
    5.9769   -0.3226   13.2508 N   0  0  0  0  0  0  0  0  0  0  0  0
    4.7604   -1.9829   12.0721 N   0  0  0  0  0  0  0  0  0  0  0  0
    6.4889   -1.2565    9.7982 N   0  0  0  0  0  0  0  0  0  0  0  0
    7.2707   -0.4533    9.0686 N   0  0  0  0  0  0  0  0  0  0  0  0
    7.5073   -0.7080    8.1222 H   0  0  0  0  0  0  0  0  0  0  0  0
    7.0787    0.5430   10.9635 N   0  0  0  0  0  0  0  0  0  0  0  0
    5.2926   -0.6173   14.3575 C   0  0  0  0  0  3  0  0  0  0  0  0
    5.5630   -0.0648   15.2468 H   0  0  0  0  0  0  0  0  0  0  0  0
    4.3067   -1.5837   14.3680 C   0  0  0  0  0  0  0  0  0  0  0  0
    3.7537   -1.8117   15.2637 H   0  0  0  0  0  0  0  0  0  0  0  0
    4.0848   -2.2651   13.1724 C   0  0  0  0  0  0  0  0  0  0  0  0
    3.3527   -3.0562   13.0874 H   0  0  0  0  0  0  0  0  0  0  0  0
    5.6675   -1.0268   12.1395 C   0  0  0  0  0  0  0  0  0  0  0  0
    6.3925   -0.6288   10.9518 C   0  0  0  0  0  0  0  0  0  0  0  0
    7.6310    0.6390    9.7754 C   0  0  1  0  0  3  0  0  0  0  0  0
    8.5246    1.7441    9.3207 C   0  0  0  0  0  0  0  0  0  0  0  0
    9.8238    1.6555   10.1340 C   0  0  0  0  0  0  0  0  0  0  0  0
   10.3007    0.6862   10.0024 H   0  0  0  0  0  0  0  0  0  0  0  0
    9.6144    1.8048   11.1911 H   0  0  0  0  0  0  0  0  0  0  0  0
   10.5130    2.4299    9.8080 H   0  0  0  0  0  0  0  0  0  0  0  0
    7.8308    3.0770    9.6204 C   0  0  0  0  0  0  0  0  0  0  0  0
    8.4893    3.9024    9.3639 H   0  0  0  0  0  0  0  0  0  0  0  0
    7.5959    3.1378   10.6816 H   0  0  0  0  0  0  0  0  0  0  0  0
    6.9082    3.1680    9.0505 H   0  0  0  0  0  0  0  0  0  0  0  0
    8.8199    1.6211    7.8239 C   0  0  0  0  0  0  0  0  0  0  0  0
    9.3724    0.7089    7.6050 H   0  0  0  0  0  0  0  0  0  0  0  0
    9.4298    2.4635    7.5077 H   0  0  0  0  0  0  0  0  0  0  0  0
    7.8999    1.6327    7.2413 H   0  0  0  0  0  0  0  0  0  0  0  0
    5.1066    4.5539   12.6542 C   0  0  0  0  0  0  0  0  0  0  0  0
    6.3561    5.1100   12.9046 C   0  0  0  0  0  0  0  0  0  0  0  0
    7.2190    4.4650   13.0178 H   0  0  0  0  0  0  0  0  0  0  0  0
    6.4806    6.4841   13.0242 C   0  0  0  0  0  0  0  0  0  0  0  0
    7.4498    6.9176   13.2196 H   0  0  0  0  0  0  0  0  0  0  0  0
    5.3665    7.2963   12.8983 C   0  0  0  0  0  0  0  0  0  0  0  0
    5.4649    8.3681   12.9919 H   0  0  0  0  0  0  0  0  0  0  0  0
    4.1188    6.7388   12.6581 C   0  0  0  0  0  0  0  0  0  0  0  0
    3.2504    7.3754   12.5666 H   0  0  0  0  0  0  0  0  0  0  0  0
    3.9833    5.3693   12.5384 C   0  0  0  0  0  0  0  0  0  0  0  0
    3.0134    4.9265   12.3546 H   0  0  0  0  0  0  0  0  0  0  0  0
    4.2415    2.4791   10.8772 C   0  0  0  0  0  0  0  0  0  0  0  0
    4.3486    3.4180    9.8549 C   0  0  0  0  0  0  0  0  0  0  0  0
    4.7624    4.3943   10.0660 H   0  0  0  0  0  0  0  0  0  0  0  0
    3.9252    3.1011    8.5765 C   0  0  0  0  0  0  0  0  0  0  0  0
    4.0024    3.8376    7.7892 H   0  0  0  0  0  0  0  0  0  0  0  0
    3.4132    1.8436    8.3000 C   0  0  0  0  0  0  0  0  0  0  0  0
    3.0925    1.5982    7.2983 H   0  0  0  0  0  0  0  0  0  0  0  0
    3.3156    0.8990    9.3102 C   0  0  0  0  0  0  0  0  0  0  0  0
    2.9268   -0.0864    9.1003 H   0  0  0  0  0  0  0  0  0  0  0  0
    3.7292    1.2134   10.5898 C   0  0  0  0  0  0  0  0  0  0  0  0
    3.6567    0.4754   11.3773 H   0  0  0  0  0  0  0  0  0  0  0  0
    3.6291    2.4062   13.6854 C   0  0  0  0  0  0  0  0  0  0  0  0
    2.3064    2.1505   13.3458 C   0  0  0  0  0  0  0  0  0  0  0  0
    1.9969    2.1628   12.3100 H   0  0  0  0  0  0  0  0  0  0  0  0
    1.3826    1.8814   14.3410 C   0  0  0  0  0  0  0  0  0  0  0  0
    0.3543    1.6830   14.0751 H   0  0  0  0  0  0  0  0  0  0  0  0
    1.7676    1.8695   15.6713 C   0  0  0  0  0  0  0  0  0  0  0  0
    1.0403    1.6574   16.4410 H   0  0  0  0  0  0  0  0  0  0  0  0
    3.0849    2.1324   16.0149 C   0  0  0  0  0  0  0  0  0  0  0  0
    3.3853    2.1283   17.0525 H   0  0  0  0  0  0  0  0  0  0  0  0
    4.0124    2.3948   15.0259 C   0  0  0  0  0  0  0  0  0  0  0  0
    5.0482    2.5981   15.2715 H   0  0  0  0  0  0  0  0  0  0  0  0
  1  4  1  0  0  0  0
  1  2  1  1  0  0  0
  3 32  1  0  0  0  0
  3  1  1  0  0  0  0
  3 54  1  0  0  0  0
  4 10  1  0  0  0  0
  5 16  2  0  0  0  0
  5 14  1  0  0  0  0
  6 17  2  0  0  0  0
  7 18  1  0  0  0  0
  7  6  1  0  0  0  0
  8  7  1  0  0  0  0
  9  1  1  0  0  0  0
 10 12  1  0  0  0  0
 10 11  1  0  0  0  0
 12 13  1  0  0  0  0
 14 12  2  0  0  0  0
 15 14  1  0  0  0  0
 16  4  1  0  0  0  0
 17  9  1  0  0  0  0
 17 16  1  0  0  0  0
 18 19  1  1  0  0  0
 18  9  1  0  0  0  0
 19 24  1  0  0  0  0
 19 20  1  0  0  0  0
 20 22  1  0  0  0  0
 21 20  1  0  0  0  0
 23 20  1  0  0  0  0
 24 26  1  0  0  0  0
 25 24  1  0  0  0  0
 27 24  1  0  0  0  0
 28 19  1  0  0  0  0
 29 28  1  0  0  0  0
 30 28  1  0  0  0  0
 31 28  1  0  0  0  0
 32 33  1  0  0  0  0
 33 34  1  0  0  0  0
 33 35  2  0  0  0  0
 35 36  1  0  0  0  0
 37 38  1  0  0  0  0
 37 35  1  0  0  0  0
 39 37  2  0  0  0  0
 40 39  1  0  0  0  0
 41 32  2  0  0  0  0
 41 39  1  0  0  0  0
 42 41  1  0  0  0  0
 43  3  1  0  0  0  0
 44 45  1  0  0  0  0
 44 43  2  0  0  0  0
 46 44  1  0  0  0  0
 47 46  1  0  0  0  0
 48 46  2  0  0  0  0
 48 50  1  0  0  0  0
 49 48  1  0  0  0  0
 50 52  2  0  0  0  0
 51 50  1  0  0  0  0
 52 43  1  0  0  0  0
 52 53  1  0  0  0  0
 54 63  1  0  0  0  0
 55 54  2  0  0  0  0
 55 57  1  0  0  0  0
 56 55  1  0  0  0  0
 57 59  2  0  0  0  0
 58 57  1  0  0  0  0
 59 61  1  0  0  0  0
 59 60  1  0  0  0  0
 61 62  1  0  0  0  0
 63 64  1  0  0  0  0
 63 61  2  0  0  0  0
M  END
$$$$
