CSD_code = WOWKOK | q = 0 | S = 0 | Stoichiometry = C28H28BrCuN5P | MND = 4
 OpenBabel04212202113D

 64 69  0  0  1  0  0  0  0  0999 V2000
   -6.2753   10.9217   -3.1185 Br  0  0  0  0  0  0  0  0  0  0  0  0
   -4.3562    9.9518   -2.4628 Cu  0  0  2  0  0  0  0  0  0  0  0  0
   -2.4856   11.1734   -1.9467 P   0  0  0  0  0  4  0  0  0  0  0  0
   -3.4858    8.2608   -2.9628 N   0  0  0  0  0  0  0  0  0  0  0  0
   -2.0813    6.6706   -1.9086 N   0  0  0  0  0  0  0  0  0  0  0  0
   -3.7446    7.1451    0.4604 N   0  0  0  0  0  0  0  0  0  0  0  0
   -4.5294    7.8547    1.2777 N   0  0  0  0  0  0  0  0  0  0  0  0
   -4.6916    7.5362    2.2202 H   0  0  0  0  0  0  0  0  0  0  0  0
   -4.5212    8.9576   -0.5683 N   0  0  0  0  0  0  0  0  0  0  0  0
   -2.8598    8.0404   -4.1196 C   0  0  0  0  0  3  0  0  0  0  0  0
   -3.2315    8.5870   -4.9758 H   0  0  0  0  0  0  0  0  0  0  0  0
   -1.8089    7.1501   -4.2178 C   0  0  0  0  0  0  0  0  0  0  0  0
   -1.3024    6.9813   -5.1530 H   0  0  0  0  0  0  0  0  0  0  0  0
   -1.4504    6.4745   -3.0539 C   0  0  0  0  0  0  0  0  0  0  0  0
   -0.6440    5.7547   -3.0307 H   0  0  0  0  0  0  0  0  0  0  0  0
   -3.0681    7.5463   -1.8984 C   0  0  0  0  0  0  0  0  0  0  0  0
   -3.7602    7.8370   -0.6594 C   0  0  0  0  0  0  0  0  0  0  0  0
   -5.0013    8.9551    0.6553 C   0  0  1  0  0  3  0  0  0  0  0  0
   -5.9306    9.9709    1.2319 C   0  0  0  0  0  0  0  0  0  0  0  0
   -6.0615    9.7816    2.7450 C   0  0  0  0  0  0  0  0  0  0  0  0
   -6.6898   10.5698    3.1516 H   0  0  0  0  0  0  0  0  0  0  0  0
   -5.0888    9.8396    3.2316 H   0  0  0  0  0  0  0  0  0  0  0  0
   -6.5275    8.8274    2.9849 H   0  0  0  0  0  0  0  0  0  0  0  0
   -5.3806   11.3668    0.9209 C   0  0  0  0  0  0  0  0  0  0  0  0
   -6.0842   12.1242    1.2552 H   0  0  0  0  0  0  0  0  0  0  0  0
   -5.2355   11.4827   -0.1506 H   0  0  0  0  0  0  0  0  0  0  0  0
   -4.4259   11.5247    1.4192 H   0  0  0  0  0  0  0  0  0  0  0  0
   -1.8107   10.9916   -0.2698 C   0  0  0  0  0  0  0  0  0  0  0  0
   -1.3734    9.7342    0.1485 C   0  0  0  0  0  0  0  0  0  0  0  0
   -1.3214    8.9151   -0.5559 H   0  0  0  0  0  0  0  0  0  0  0  0
   -1.0098    9.5217    1.4645 C   0  0  0  0  0  0  0  0  0  0  0  0
   -0.6750    8.5421    1.7730 H   0  0  0  0  0  0  0  0  0  0  0  0
   -1.0845   10.5580    2.3818 C   0  0  0  0  0  0  0  0  0  0  0  0
   -0.8013   10.3913    3.4107 H   0  0  0  0  0  0  0  0  0  0  0  0
   -1.5275   11.8068    1.9766 C   0  0  0  0  0  0  0  0  0  0  0  0
   -1.5915   12.6157    2.6902 H   0  0  0  0  0  0  0  0  0  0  0  0
   -1.8999   12.0231    0.6622 C   0  0  0  0  0  0  0  0  0  0  0  0
   -2.2616   12.9942    0.3539 H   0  0  0  0  0  0  0  0  0  0  0  0
   -1.1257   10.6991   -3.0621 C   0  0  0  0  0  0  0  0  0  0  0  0
   -1.4366   10.7959   -4.4188 C   0  0  0  0  0  0  0  0  0  0  0  0
   -2.4076   11.1825   -4.7069 H   0  0  0  0  0  0  0  0  0  0  0  0
   -0.5183   10.4154   -5.3771 C   0  0  0  0  0  0  0  0  0  0  0  0
   -0.7644   10.4996   -6.4255 H   0  0  0  0  0  0  0  0  0  0  0  0
    0.7163    9.9188   -4.9883 C   0  0  0  0  0  0  0  0  0  0  0  0
    1.4342    9.6104   -5.7336 H   0  0  0  0  0  0  0  0  0  0  0  0
    1.0312    9.8243   -3.6432 C   0  0  0  0  0  0  0  0  0  0  0  0
    1.9972    9.4469   -3.3400 H   0  0  0  0  0  0  0  0  0  0  0  0
    0.1183   10.2145   -2.6784 C   0  0  0  0  0  0  0  0  0  0  0  0
    0.3816   10.1488   -1.6323 H   0  0  0  0  0  0  0  0  0  0  0  0
   -2.4806   12.9803   -2.1942 C   0  0  0  0  0  0  0  0  0  0  0  0
   -3.6901   13.6374   -2.3873 C   0  0  0  0  0  0  0  0  0  0  0  0
   -4.6169   13.0809   -2.3981 H   0  0  0  0  0  0  0  0  0  0  0  0
   -3.7045   15.0084   -2.5823 C   0  0  0  0  0  0  0  0  0  0  0  0
   -4.6455   15.5143   -2.7356 H   0  0  0  0  0  0  0  0  0  0  0  0
   -2.5177   15.7204   -2.5865 C   0  0  0  0  0  0  0  0  0  0  0  0
   -2.5287   16.7894   -2.7404 H   0  0  0  0  0  0  0  0  0  0  0  0
   -1.3097   15.0641   -2.3986 C   0  0  0  0  0  0  0  0  0  0  0  0
   -0.3840   15.6214   -2.4060 H   0  0  0  0  0  0  0  0  0  0  0  0
   -1.2860   13.6970   -2.2047 C   0  0  0  0  0  0  0  0  0  0  0  0
   -0.3471   13.1793   -2.0596 H   0  0  0  0  0  0  0  0  0  0  0  0
   -7.2972    9.7955    0.5537 C   0  0  0  0  0  0  0  0  0  0  0  0
   -7.6810    8.7887    0.7065 H   0  0  0  0  0  0  0  0  0  0  0  0
   -7.2207    9.9825   -0.5137 H   0  0  0  0  0  0  0  0  0  0  0  0
   -8.0060   10.5050    0.9716 H   0  0  0  0  0  0  0  0  0  0  0  0
  2  1  1  6  0  0  0
  2  3  1  0  0  0  0
  2  9  1  0  0  0  0
  3 28  1  0  0  0  0
  4  2  1  0  0  0  0
  4 16  1  0  0  0  0
  5 16  2  0  0  0  0
  6  7  1  0  0  0  0
  7  8  1  0  0  0  0
  9 18  1  0  0  0  0
 10  4  1  0  0  0  0
 11 10  1  0  0  0  0
 12 10  1  0  0  0  0
 12 14  2  0  0  0  0
 13 12  1  0  0  0  0
 14 15  1  0  0  0  0
 14  5  1  0  0  0  0
 16 17  1  0  0  0  0
 17  9  1  0  0  0  0
 17  6  2  0  0  0  0
 18 19  1  6  0  0  0
 18  7  1  0  0  0  0
 19 20  1  0  0  0  0
 20 23  1  0  0  0  0
 20 21  1  0  0  0  0
 20 22  1  0  0  0  0
 24 19  1  0  0  0  0
 24 25  1  0  0  0  0
 24 27  1  0  0  0  0
 26 24  1  0  0  0  0
 28 29  2  0  0  0  0
 28 37  1  0  0  0  0
 29 31  1  0  0  0  0
 30 29  1  0  0  0  0
 31 32  1  0  0  0  0
 31 33  2  0  0  0  0
 33 34  1  0  0  0  0
 35 33  1  0  0  0  0
 35 36  1  0  0  0  0
 37 35  2  0  0  0  0
 38 37  1  0  0  0  0
 39 48  1  0  0  0  0
 39  3  1  0  0  0  0
 40 39  2  0  0  0  0
 41 40  1  0  0  0  0
 42 44  2  0  0  0  0
 42 40  1  0  0  0  0
 43 42  1  0  0  0  0
 44 46  1  0  0  0  0
 45 44  1  0  0  0  0
 46 47  1  0  0  0  0
 46 48  2  0  0  0  0
 48 49  1  0  0  0  0
 50  3  1  0  0  0  0
 51 50  2  0  0  0  0
 52 51  1  0  0  0  0
 53 51  1  0  0  0  0
 54 53  1  0  0  0  0
 55 53  2  0  0  0  0
 55 57  1  0  0  0  0
 56 55  1  0  0  0  0
 57 59  2  0  0  0  0
 58 57  1  0  0  0  0
 59 50  1  0  0  0  0
 59 60  1  0  0  0  0
 61 62  1  0  0  0  0
 61 64  1  0  0  0  0
 61 19  1  0  0  0  0
 63 61  1  0  0  0  0
M  END
$$$$
