CSD_code = WOWPED | q = 0 | S = 0 | Stoichiometry = C28H24Cl2N8Ru | MND = 6
 OpenBabel04212202113D

 63 70  0  0  1  0  0  0  0  0999 V2000
   -0.0001    0.0001    0.0001 Ru  0  0  0  0  0  0  0  0  0  0  0  0
   -1.4816   -1.8048    0.6586 Cl  0  0  0  0  0  0  0  0  0  0  0  0
    0.9731   -0.1254    1.7760 N   0  0  0  0  0  0  0  0  0  0  0  0
   -1.2873    1.3306    0.8250 N   0  0  0  0  0  0  0  0  0  0  0  0
   -2.5062    0.9171    1.2187 N   0  0  0  0  0  0  0  0  0  0  0  0
   -2.7032   -0.0853    1.1771 H   0  0  0  0  0  0  0  0  0  0  0  0
    2.0921    0.5967    1.9694 N   0  0  0  0  0  0  0  0  0  0  0  0
    2.3702    1.2471    1.2307 H   0  0  0  0  0  0  0  0  0  0  0  0
    1.7103   -0.5139    3.8515 C   0  0  0  0  0  0  0  0  0  0  0  0
   -3.2075    1.9345    1.7709 C   0  0  1  0  0  3  0  0  0  0  0  0
   -1.1842    2.6166    1.0916 C   0  0  0  0  0  0  0  0  0  0  0  0
   -0.2979    3.1733    0.8505 H   0  0  0  0  0  0  0  0  0  0  0  0
    0.7250   -0.8005    2.8796 C   0  0  0  0  0  0  0  0  0  0  0  0
   -0.1179   -1.4611    2.9599 H   0  0  0  0  0  0  0  0  0  0  0  0
   -2.3751    3.0802    1.6954 C   0  0  0  0  0  0  0  0  0  0  0  0
    2.5783    0.4118    3.2185 C   0  0  1  0  0  3  0  0  0  0  0  0
   -4.4853    1.9924    2.3212 C   0  0  0  0  0  0  0  0  0  0  0  0
   -5.1086    1.1135    2.3746 H   0  0  0  0  0  0  0  0  0  0  0  0
   -2.8341    4.3086    2.1808 C   0  0  0  0  0  0  0  0  0  0  0  0
   -2.2097    5.1872    2.1263 H   0  0  0  0  0  0  0  0  0  0  0  0
   -4.9082    3.2137    2.7925 C   0  0  0  0  0  0  0  0  0  0  0  0
   -5.8916    3.3022    3.2295 H   0  0  0  0  0  0  0  0  0  0  0  0
   -4.0954    4.3549    2.7225 C   0  0  0  0  0  0  0  0  0  0  0  0
   -4.4787    5.2885    3.1064 H   0  0  0  0  0  0  0  0  0  0  0  0
    1.9616   -0.9182    5.1663 C   0  0  0  0  0  0  0  0  0  0  0  0
    1.3084   -1.6231    5.6569 H   0  0  0  0  0  0  0  0  0  0  0  0
    3.0585   -0.3907    5.8025 C   0  0  0  0  0  0  0  0  0  0  0  0
    3.2794   -0.6824    6.8183 H   0  0  0  0  0  0  0  0  0  0  0  0
    3.6887    0.9399    3.8723 C   0  0  0  0  0  0  0  0  0  0  0  0
    4.3409    1.6443    3.3805 H   0  0  0  0  0  0  0  0  0  0  0  0
    3.9087    0.5252    5.1652 C   0  0  0  0  0  0  0  0  0  0  0  0
    4.7573    0.9119    5.7095 H   0  0  0  0  0  0  0  0  0  0  0  0
    1.4823    1.8037   -0.6594 Cl  0  0  0  0  0  0  0  0  0  0  0  0
   -0.9731    0.1254   -1.7759 N   0  0  0  0  0  0  0  0  0  0  0  0
   -2.0921   -0.5968   -1.9692 N   0  0  0  0  0  0  0  0  0  0  0  0
   -2.3702   -1.2470   -1.2305 H   0  0  0  0  0  0  0  0  0  0  0  0
   -2.5782   -0.4120   -3.2184 C   0  0  0  0  0  0  0  0  0  0  0  0
   -1.7103    0.5137   -3.8514 C   0  0  0  0  0  0  0  0  0  0  0  0
   -0.7250    0.8004   -2.8796 C   0  0  0  0  0  0  0  0  0  0  0  0
    0.1178    1.4610   -2.9598 H   0  0  0  0  0  0  0  0  0  0  0  0
   -1.9616    0.9178   -5.1663 C   0  0  0  0  0  3  0  0  0  0  0  0
   -1.3084    1.6227   -5.6569 H   0  0  0  0  0  0  0  0  0  0  0  0
   -3.0585    0.3902   -5.8024 C   0  0  0  0  0  0  0  0  0  0  0  0
   -3.2794    0.6818   -6.8183 H   0  0  0  0  0  0  0  0  0  0  0  0
   -3.9087   -0.5257   -5.1651 C   0  0  0  0  0  0  0  0  0  0  0  0
   -3.6886   -0.9402   -3.8720 C   0  0  0  0  0  0  0  0  0  0  0  0
   -4.3408   -1.6446   -3.3802 H   0  0  0  0  0  0  0  0  0  0  0  0
   -4.7573   -0.9124   -5.7093 H   0  0  0  0  0  0  0  0  0  0  0  0
    1.2873   -1.3305   -0.8246 N   0  0  0  0  0  0  0  0  0  0  0  0
    2.5062   -0.9168   -1.2186 N   0  0  0  0  0  0  0  0  0  0  0  0
    2.7032    0.0855   -1.1769 H   0  0  0  0  0  0  0  0  0  0  0  0
    3.2074   -1.9342   -1.7709 C   0  0  0  0  0  0  0  0  0  0  0  0
    2.3750   -3.0800   -1.6954 C   0  0  0  0  0  0  0  0  0  0  0  0
    1.1842   -2.6164   -1.0914 C   0  0  0  0  0  0  0  0  0  0  0  0
    0.2980   -3.1732   -0.8504 H   0  0  0  0  0  0  0  0  0  0  0  0
    2.8341   -4.3083   -2.1810 C   0  0  0  0  0  3  0  0  0  0  0  0
    2.2098   -5.1869   -2.1265 H   0  0  0  0  0  0  0  0  0  0  0  0
    4.0953   -4.3544   -2.7228 C   0  0  0  0  0  0  0  0  0  0  0  0
    4.9081   -3.2132   -2.7929 C   0  0  0  0  0  0  0  0  0  0  0  0
    4.4852   -1.9920   -2.3214 C   0  0  0  0  0  0  0  0  0  0  0  0
    5.1084   -1.1131   -2.3748 H   0  0  0  0  0  0  0  0  0  0  0  0
    5.8915   -3.3016   -3.2300 H   0  0  0  0  0  0  0  0  0  0  0  0
    4.4787   -5.2880   -3.1069 H   0  0  0  0  0  0  0  0  0  0  0  0
  1  2  1  0  0  0  0
  1  4  1  0  0  0  0
  1  3  1  0  0  0  0
  3  7  1  0  0  0  0
  3 13  1  0  0  0  0
  4 11  1  0  0  0  0
  4  5  1  0  0  0  0
  5 10  1  0  0  0  0
  6  5  1  0  0  0  0
  7 16  1  0  0  0  0
  8  7  1  0  0  0  0
  9 25  1  0  0  0  0
 10 15  1  6  0  0  0
 10 17  1  0  0  0  0
 11 15  2  0  0  0  0
 12 11  1  0  0  0  0
 13 14  1  0  0  0  0
 13  9  2  0  0  0  0
 15 19  1  0  0  0  0
 16  9  1  6  0  0  0
 16 29  1  0  0  0  0
 17 18  1  0  0  0  0
 17 21  2  0  0  0  0
 19 23  2  0  0  0  0
 20 19  1  0  0  0  0
 21 22  1  0  0  0  0
 23 21  1  0  0  0  0
 23 24  1  0  0  0  0
 25 26  1  0  0  0  0
 25 27  2  0  0  0  0
 27 28  1  0  0  0  0
 29 31  2  0  0  0  0
 30 29  1  0  0  0  0
 31 32  1  0  0  0  0
 31 27  1  0  0  0  0
 33  1  1  0  0  0  0
 34  1  1  0  0  0  0
 35 34  1  0  0  0  0
 35 36  1  0  0  0  0
 37 35  1  0  0  0  0
 38 37  1  0  0  0  0
 38 39  2  0  0  0  0
 39 34  1  0  0  0  0
 40 39  1  0  0  0  0
 41 38  1  0  0  0  0
 42 41  1  0  0  0  0
 43 41  1  0  0  0  0
 43 45  2  0  0  0  0
 44 43  1  0  0  0  0
 45 46  1  0  0  0  0
 46 47  1  0  0  0  0
 46 37  2  0  0  0  0
 48 45  1  0  0  0  0
 49  1  1  0  0  0  0
 50 51  1  0  0  0  0
 50 49  1  0  0  0  0
 52 53  1  0  0  0  0
 52 50  1  0  0  0  0
 53 54  2  0  0  0  0
 54 55  1  0  0  0  0
 54 49  1  0  0  0  0
 56 57  1  0  0  0  0
 56 53  1  0  0  0  0
 58 56  1  0  0  0  0
 59 58  2  0  0  0  0
 59 60  1  0  0  0  0
 60 52  2  0  0  0  0
 61 60  1  0  0  0  0
 62 59  1  0  0  0  0
 63 58  1  0  0  0  0
M  END
$$$$
