CSD_code = WOXQOP | q = 1 | S = 0 | Stoichiometry = C19H25BrN5Pd(1+) | MND = 4
 OpenBabel04212202113D

 51 55  0  0  1  0  0  0  0  0999 V2000
    1.8494    4.2766    0.6762 Pd  0  0  1  0  0  0  0  0  0  0  0  0
    4.1350    4.7486    0.6128 Br  0  0  0  0  0  0  0  0  0  0  0  0
    0.2262    3.5669   -1.5261 N   0  0  0  0  0  0  0  0  0  0  0  0
    2.1853    3.0941   -2.3032 N   0  0  0  0  0  0  0  0  0  0  0  0
   -0.1049    4.2382    0.6059 N   0  0  0  0  0  0  0  0  0  0  0  0
    0.0423    4.9841    2.7335 N   0  0  0  0  0  0  0  0  0  0  0  0
    1.9236    5.1156    3.7867 N   0  0  0  0  0  0  0  0  0  0  0  0
   -0.6936    3.9696   -0.5628 C   0  0  1  0  0  3  0  0  0  0  0  0
   -2.0665    4.1092   -0.7122 C   0  0  0  0  0  0  0  0  0  0  0  0
   -2.7949    4.5559    0.3839 C   0  0  0  0  0  0  0  0  0  0  0  0
   -2.1656    4.8727    1.5819 C   0  0  0  0  0  0  0  0  0  0  0  0
   -0.7894    4.7071    1.6530 C   0  0  0  0  0  0  0  0  0  0  0  0
    1.5717    3.5925   -1.2302 C   0  0  2  0  0  3  0  0  0  0  0  0
    1.2687    2.7656   -3.2677 C   0  0  0  0  0  0  0  0  0  0  0  0
    0.0369    3.0634   -2.7912 C   0  0  0  0  0  0  0  0  0  0  0  0
    3.6039    2.8196   -2.3608 C   0  0  0  0  0  0  0  0  0  0  0  0
    3.9568    1.6924   -1.3845 C   0  0  0  0  0  0  0  0  0  0  0  0
    3.3999    0.3381   -1.8156 C   0  0  0  0  0  0  0  0  0  0  0  0
    3.7592   -0.7489   -0.8106 C   0  0  0  0  0  0  0  0  0  0  0  0
    1.4068    4.8658    2.5837 C   0  0  1  0  0  3  0  0  0  0  0  0
    0.9277    5.3980    4.6848 C   0  0  0  0  0  0  0  0  0  0  0  0
   -0.2561    5.3232    4.0319 C   0  0  0  0  0  0  0  0  0  0  0  0
    3.3268    4.9646    4.0992 C   0  0  0  0  0  0  0  0  0  0  0  0
    3.7242    3.4869    4.0080 C   0  0  0  0  0  0  0  0  0  0  0  0
    5.2359    3.3101    4.1122 C   0  0  0  0  0  0  0  0  0  0  0  0
    5.6288    1.8437    3.9921 C   0  0  0  0  0  0  0  0  0  0  0  0
   -2.5528    3.8898   -1.6472 H   0  0  0  0  0  0  0  0  0  0  0  0
   -3.8630    4.6734    0.2986 H   0  0  0  0  0  0  0  0  0  0  0  0
   -2.7285    5.2437    2.4213 H   0  0  0  0  0  0  0  0  0  0  0  0
    1.5567    2.3492   -4.2112 H   0  0  0  0  0  0  0  0  0  0  0  0
   -0.9269    2.9520   -3.2415 H   0  0  0  0  0  0  0  0  0  0  0  0
    4.1514    3.7246   -2.0844 H   0  0  0  0  0  0  0  0  0  0  0  0
    3.8627    2.5390   -3.3826 H   0  0  0  0  0  0  0  0  0  0  0  0
    5.0419    1.6358   -1.3058 H   0  0  0  0  0  0  0  0  0  0  0  0
    3.5637    1.9541   -0.3909 H   0  0  0  0  0  0  0  0  0  0  0  0
    3.8075    0.0729   -2.7934 H   0  0  0  0  0  0  0  0  0  0  0  0
    2.3114    0.3930   -1.9108 H   0  0  0  0  0  0  0  0  0  0  0  0
    3.3618   -1.7088   -1.1286 H   0  0  0  0  0  0  0  0  0  0  0  0
    3.3496   -0.5146    0.1696 H   0  0  0  0  0  0  0  0  0  0  0  0
    4.8382   -0.8384   -0.7177 H   0  0  0  0  0  0  0  0  0  0  0  0
    1.1318    5.6307    5.7098 H   0  0  0  0  0  0  0  0  0  0  0  0
   -1.2542    5.4752    4.3852 H   0  0  0  0  0  0  0  0  0  0  0  0
    3.5083    5.3542    5.1015 H   0  0  0  0  0  0  0  0  0  0  0  0
    3.9162    5.5387    3.3787 H   0  0  0  0  0  0  0  0  0  0  0  0
    3.2261    2.9198    4.7981 H   0  0  0  0  0  0  0  0  0  0  0  0
    3.3822    3.0932    3.0380 H   0  0  0  0  0  0  0  0  0  0  0  0
    5.5828    3.7047    5.0685 H   0  0  0  0  0  0  0  0  0  0  0  0
    5.7142    3.8784    3.3135 H   0  0  0  0  0  0  0  0  0  0  0  0
    6.7062    1.7364    4.0729 H   0  0  0  0  0  0  0  0  0  0  0  0
    5.3173    1.4465    3.0291 H   0  0  0  0  0  0  0  0  0  0  0  0
    5.1658    1.2517    4.7785 H   0  0  0  0  0  0  0  0  0  0  0  0
  1  2  1  6  0  0  0
  1 20  1  0  0  0  0
  3 13  1  0  0  0  0
  3  8  1  0  0  0  0
  5  1  1  0  0  0  0
  5 12  1  0  0  0  0
  6 22  1  0  0  0  0
  7 23  1  0  0  0  0
  7 21  1  0  0  0  0
  8  9  1  6  0  0  0
  8  5  1  0  0  0  0
  9 10  2  0  0  0  0
 10 11  1  0  0  0  0
 11 12  2  0  0  0  0
 11 29  1  0  0  0  0
 12  6  1  0  0  0  0
 13  4  1  1  0  0  0
 13  1  1  0  0  0  0
 14 15  2  0  0  0  0
 14  4  1  0  0  0  0
 15  3  1  0  0  0  0
 16  4  1  0  0  0  0
 16 32  1  0  0  0  0
 16 17  1  0  0  0  0
 17 34  1  0  0  0  0
 17 35  1  0  0  0  0
 18 17  1  0  0  0  0
 18 19  1  0  0  0  0
 19 40  1  0  0  0  0
 19 39  1  0  0  0  0
 20  6  1  1  0  0  0
 20  7  1  0  0  0  0
 21 41  1  0  0  0  0
 22 42  1  0  0  0  0
 22 21  2  0  0  0  0
 23 43  1  0  0  0  0
 24 23  1  0  0  0  0
 24 25  1  0  0  0  0
 24 45  1  0  0  0  0
 25 47  1  0  0  0  0
 26 49  1  0  0  0  0
 26 25  1  0  0  0  0
 26 51  1  0  0  0  0
 27  9  1  0  0  0  0
 28 10  1  0  0  0  0
 30 14  1  0  0  0  0
 31 15  1  0  0  0  0
 33 16  1  0  0  0  0
 36 18  1  0  0  0  0
 37 18  1  0  0  0  0
 38 19  1  0  0  0  0
 44 23  1  0  0  0  0
 46 24  1  0  0  0  0
 48 25  1  0  0  0  0
 50 26  1  0  0  0  0
M  END
$$$$
