CSD_code = WOYGEW | q = 0 | S = 0 | Stoichiometry = C7H12Cl2N2Pt | MND = 4
 OpenBabel04212202113D

 24 24  0  0  0  0  0  0  0  0999 V2000
   -0.5807    2.1986    8.7794 Pt  0  0  0  0  0  0  0  0  0  0  0  0
   -2.0786    2.3387    7.0989 Cl  0  0  0  0  0  0  0  0  0  0  0  0
    0.8262    0.8950    7.5983 Cl  0  0  0  0  0  0  0  0  0  0  0  0
    0.8009    2.0761   10.2545 N   0  0  0  0  0  0  0  0  0  0  0  0
   -2.0018    3.4776    9.8028 N   0  0  0  0  0  4  0  0  0  0  0  0
    1.7554    3.0080   10.2732 C   0  0  0  0  0  3  0  0  0  0  0  0
    2.8947    2.8967   11.0437 C   0  0  0  0  0  0  0  0  0  0  0  0
    3.0557    1.7634   11.8286 C   0  0  0  0  0  0  0  0  0  0  0  0
    2.0619    0.8025   11.8089 C   0  0  0  0  0  0  0  0  0  0  0  0
    0.9401    0.9800   11.0067 C   0  0  0  0  0  0  0  0  0  0  0  0
   -0.1611   -0.0364   10.9937 C   0  0  0  0  0  0  0  0  0  0  0  0
   -0.9957    0.0444   12.2733 C   0  0  0  0  0  0  0  0  0  0  0  0
    1.5983    3.8678    9.6326 H   0  0  0  0  0  0  0  0  0  0  0  0
    3.6431    3.6720   11.0200 H   0  0  0  0  0  0  0  0  0  0  0  0
    3.9387    1.6315   12.4345 H   0  0  0  0  0  0  0  0  0  0  0  0
    2.1527   -0.0968   12.3977 H   0  0  0  0  0  0  0  0  0  0  0  0
   -0.8010    0.1436   10.1183 H   0  0  0  0  0  0  0  0  0  0  0  0
    0.2700   -1.0334   10.9003 H   0  0  0  0  0  0  0  0  0  0  0  0
   -1.8115   -0.6716   12.2307 H   0  0  0  0  0  0  0  0  0  0  0  0
   -0.3872   -0.1767   13.1470 H   0  0  0  0  0  0  0  0  0  0  0  0
   -1.4159    1.0404   12.3934 H   0  0  0  0  0  0  0  0  0  0  0  0
   -1.6660    4.4069   10.0384 H   0  0  0  0  0  0  0  0  0  0  0  0
   -2.6714    3.5462    9.0271 H   0  0  0  0  0  0  0  0  0  0  0  0
   -2.4658    3.0705   10.6095 H   0  0  0  0  0  0  0  0  0  0  0  0
  1  5  1  0  0  0  0
  1  4  1  0  0  0  0
  2  1  1  0  0  0  0
  3  1  1  0  0  0  0
  4  6  1  0  0  0  0
  4 10  1  0  0  0  0
  5 22  1  0  0  0  0
  5 24  1  0  0  0  0
  6  7  1  0  0  0  0
  7  8  2  0  0  0  0
  8 15  1  0  0  0  0
  9  8  1  0  0  0  0
  9 16  1  0  0  0  0
 10  9  2  0  0  0  0
 11 10  1  0  0  0  0
 11 12  1  0  0  0  0
 12 21  1  0  0  0  0
 12 20  1  0  0  0  0
 13  6  1  0  0  0  0
 14  7  1  0  0  0  0
 17 11  1  0  0  0  0
 18 11  1  0  0  0  0
 19 12  1  0  0  0  0
 23  5  1  0  0  0  0
M  END
$$$$
