CSD_code = WOYMOM | q = 0 | S = 0 | Stoichiometry = C25H22Cl2Zr | MND = 12
 OpenBabel04212202113D

 50 55  0  0  1  0  0  0  0  0999 V2000
   11.6124    0.3207    3.6847 Zr  0  0  0  0  0  0  0  0  0  0  0  0
   10.8603   -0.2110    1.5411 Cl  0  0  0  0  0  0  0  0  0  0  0  0
    9.6016    1.3705    4.2467 Cl  0  0  0  0  0  0  0  0  0  0  0  0
   13.1603    2.0321    4.8476 C   0  0  0  0  0  0  0  0  0  0  0  0
   12.2564    2.7794    4.0289 C   0  0  0  0  0  0  0  0  0  0  0  0
   12.4711    2.3721    2.6825 C   0  0  0  0  0  0  0  0  0  0  0  0
   13.4339    1.2928    2.6520 C   0  0  1  0  0  0  0  0  0  0  0  0
   13.9597    1.2333    3.9867 C   0  0  0  0  0  0  0  0  0  0  0  0
   15.2335    0.8208    4.3944 C   0  0  0  0  0  0  0  0  0  0  0  0
   15.6107    1.1784    5.6763 C   0  0  0  0  0  0  0  0  0  0  0  0
   14.7878    1.9465    6.5373 C   0  0  0  0  0  0  0  0  0  0  0  0
   13.5573    2.4261    6.1215 C   0  0  0  0  0  0  0  0  0  0  0  0
   12.5622    3.3731    6.7563 C   0  0  0  0  0  0  0  0  0  0  0  0
   12.0016    4.4676    5.7937 C   0  0  0  0  0  0  0  0  0  0  0  0
   11.7392    4.0251    4.3672 C   0  0  0  0  0  0  0  0  0  0  0  0
   11.2919    4.7894    3.2989 C   0  0  0  0  0  0  0  0  0  0  0  0
   11.4427    4.3669    1.9596 C   0  0  0  0  0  0  0  0  0  0  0  0
   12.0687    3.1807    1.6165 C   0  0  0  0  0  0  0  0  0  0  0  0
   12.6049    2.6853    0.2988 C   0  0  0  0  0  0  0  0  0  0  0  0
   14.0850    2.2563    0.4709 C   0  0  0  0  0  0  0  0  0  0  0  0
   14.3218    1.0786    1.4529 C   0  0  1  0  0  0  0  0  0  0  0  0
   15.7877    1.0493    1.9619 C   0  0  0  0  0  0  0  0  0  0  0  0
   16.0316    0.2336    3.2579 C   0  0  0  0  0  0  0  0  0  0  0  0
   12.8642   -1.7044    4.3732 C   0  0  0  0  0  0  0  0  0  0  0  0
   11.6376   -2.1549    3.8312 C   0  0  0  0  0  0  0  0  0  0  0  0
   10.5954   -1.6970    4.6669 C   0  0  0  0  0  0  0  0  0  0  0  0
   11.1780   -0.9748    5.7376 C   0  0  0  0  0  0  0  0  0  0  0  0
   12.5789   -0.9894    5.5629 C   0  0  0  0  0  3  0  0  0  0  0  0
   16.6004    0.9229    6.0284 H   0  0  0  0  0  0  0  0  0  0  0  0
   15.1821    2.2197    7.5052 H   0  0  0  0  0  0  0  0  0  0  0  0
   12.9897    3.8685    7.6293 H   0  0  0  0  0  0  0  0  0  0  0  0
   11.7154    2.7641    7.0954 H   0  0  0  0  0  0  0  0  0  0  0  0
   11.0919    4.8707    6.2427 H   0  0  0  0  0  0  0  0  0  0  0  0
   12.7245    5.2890    5.7385 H   0  0  0  0  0  0  0  0  0  0  0  0
   10.8902    5.7767    3.4752 H   0  0  0  0  0  0  0  0  0  0  0  0
   11.1325    5.0484    1.1800 H   0  0  0  0  0  0  0  0  0  0  0  0
   12.5429    3.4561   -0.4704 H   0  0  0  0  0  0  0  0  0  0  0  0
   12.0157    1.8214   -0.0245 H   0  0  0  0  0  0  0  0  0  0  0  0
   14.4895    1.9945   -0.5079 H   0  0  0  0  0  0  0  0  0  0  0  0
   14.6358    3.1254    0.8405 H   0  0  0  0  0  0  0  0  0  0  0  0
   14.0892    0.1322    0.9426 H   0  0  0  0  0  0  0  0  0  0  0  0
   16.4347    0.6569    1.1757 H   0  0  0  0  0  0  0  0  0  0  0  0
   16.0947    2.0781    2.1661 H   0  0  0  0  0  0  0  0  0  0  0  0
   15.7283   -0.8047    3.0880 H   0  0  0  0  0  0  0  0  0  0  0  0
   17.0988    0.2400    3.4847 H   0  0  0  0  0  0  0  0  0  0  0  0
   13.8485   -2.0044    4.0356 H   0  0  0  0  0  0  0  0  0  0  0  0
   11.5241   -2.8145    2.9786 H   0  0  0  0  0  0  0  0  0  0  0  0
    9.5423   -1.9328    4.5591 H   0  0  0  0  0  0  0  0  0  0  0  0
   10.6465   -0.5825    6.5971 H   0  0  0  0  0  0  0  0  0  0  0  0
   13.3107   -0.6349    6.2788 H   0  0  0  0  0  0  0  0  0  0  0  0
  1  3  1  0  0  0  0
  2  1  1  0  0  0  0
  4 12  1  0  0  0  0
  5 15  1  0  0  0  0
  5  4  1  0  0  0  0
  6  5  2  0  0  0  0
  7  6  1  0  0  0  0
  7  1  1  6  0  0  0
  7  8  1  0  0  0  0
  8  9  1  0  0  0  0
  8  4  2  0  0  0  0
  9 10  2  0  0  0  0
 10 29  1  0  0  0  0
 10 11  1  0  0  0  0
 11 30  1  0  0  0  0
 12 11  2  0  0  0  0
 12 13  1  0  0  0  0
 13 32  1  0  0  0  0
 13 31  1  0  0  0  0
 14 33  1  0  0  0  0
 14 13  1  0  0  0  0
 15 14  1  0  0  0  0
 16 35  1  0  0  0  0
 16 15  2  0  0  0  0
 17 16  1  0  0  0  0
 18 17  2  0  0  0  0
 18  6  1  0  0  0  0
 19 20  1  0  0  0  0
 19 18  1  0  0  0  0
 20 40  1  0  0  0  0
 20 21  1  0  0  0  0
 21 41  1  6  0  0  0
 21 22  1  0  0  0  0
 21  7  1  0  0  0  0
 22 43  1  0  0  0  0
 22 23  1  0  0  0  0
 23 45  1  0  0  0  0
 23  9  1  0  0  0  0
 24 28  1  0  0  0  0
 25 24  2  0  0  0  0
 25 26  1  0  0  0  0
 26 27  2  0  0  0  0
 27 49  1  0  0  0  0
 28 27  1  0  0  0  0
 28 50  1  0  0  0  0
 34 14  1  0  0  0  0
 36 17  1  0  0  0  0
 37 19  1  0  0  0  0
 38 19  1  0  0  0  0
 39 20  1  0  0  0  0
 42 22  1  0  0  0  0
 44 23  1  0  0  0  0
 46 24  1  0  0  0  0
 47 25  1  0  0  0  0
 48 26  1  0  0  0  0
M  END
$$$$
