CSD_code = WOYPAD | q = 0 | S = 0 | Stoichiometry = C23H24Br2CdN4O | MND = 5
 OpenBabel04212202113D

 55 59  0  0  0  0  0  0  0  0999 V2000
    6.7864    6.5423   12.8301 C   0  0  0  0  0  0  0  0  0  0  0  0
    7.0105    6.9457   11.4950 C   0  0  0  0  0  0  0  0  0  0  0  0
    8.0248    7.1086   11.1559 H   0  0  0  0  0  0  0  0  0  0  0  0
    5.9537    7.1295   10.6487 C   0  0  0  0  0  0  0  0  0  0  0  0
    6.1293    7.4348    9.6287 H   0  0  0  0  0  0  0  0  0  0  0  0
    4.6345    6.9263   11.0887 C   0  0  0  0  0  0  0  0  0  0  0  0
    3.8178    7.0769   10.3988 H   0  0  0  0  0  0  0  0  0  0  0  0
    4.3834    6.5449   12.3775 C   0  0  0  0  0  3  0  0  0  0  0  0
    3.3722    6.3907   12.7257 H   0  0  0  0  0  0  0  0  0  0  0  0
    5.4461    6.3448   13.2792 C   0  0  0  0  0  0  0  0  0  0  0  0
    5.2556    5.9562   14.6200 C   0  0  0  0  0  0  0  0  0  0  0  0
    4.2520    5.8008   14.9898 H   0  0  0  0  0  0  0  0  0  0  0  0
    6.3416    5.7835   15.4321 C   0  0  0  0  0  0  0  0  0  0  0  0
    6.2304    5.4884   16.4645 H   0  0  0  0  0  0  0  0  0  0  0  0
    7.6345    5.9895   14.9015 C   0  0  0  0  0  0  0  0  0  0  0  0
    8.8009    5.7993   15.7561 C   0  0  0  0  0  3  0  0  0  0  0  0
    8.5948    5.5666   16.8086 H   0  0  0  0  0  0  0  0  0  0  0  0
   11.1043    5.7409   16.1836 C   0  0  0  0  0  0  0  0  0  0  0  0
   11.7425    4.9497   15.7777 H   0  0  0  0  0  0  0  0  0  0  0  0
   10.7970    5.4733   17.2073 H   0  0  0  0  0  0  0  0  0  0  0  0
   11.9247    7.0467   16.2043 C   0  0  0  0  0  0  0  0  0  0  0  0
   12.2059    7.2925   15.1767 H   0  0  0  0  0  0  0  0  0  0  0  0
   11.3076    7.8534   16.6066 H   0  0  0  0  0  0  0  0  0  0  0  0
   13.1480    6.8673   17.0343 C   0  0  0  0  0  0  0  0  0  0  0  0
   13.3665    7.3080   18.3070 C   0  0  0  0  0  0  0  0  0  0  0  0
   12.7288    7.8942   18.9415 H   0  0  0  0  0  0  0  0  0  0  0  0
   15.2100    6.1928   17.7476 C   0  0  0  0  0  0  0  0  0  0  0  0
   16.4561    5.5802   17.7046 C   0  0  0  0  0  0  0  0  0  0  0  0
   17.1300    5.6250   18.5478 H   0  0  0  0  0  0  0  0  0  0  0  0
   16.7997    4.9174   16.5461 C   0  0  0  0  0  0  0  0  0  0  0  0
   17.7610    4.4295   16.4781 H   0  0  0  0  0  0  0  0  0  0  0  0
   15.9319    4.8669   15.4511 C   0  0  0  0  0  0  0  0  0  0  0  0
   16.2466    4.3411   14.5613 H   0  0  0  0  0  0  0  0  0  0  0  0
   14.6958    5.4716   15.4863 C   0  0  0  0  0  0  0  0  0  0  0  0
   14.0345    5.4441   14.6340 H   0  0  0  0  0  0  0  0  0  0  0  0
   14.3191    6.1423   16.6496 C   0  0  0  0  0  0  0  0  0  0  0  0
   13.1076    6.3119   11.8231 C   0  0  0  0  0  3  0  0  0  0  0  0
   13.1955    7.3487   11.4580 H   0  0  0  0  0  0  0  0  0  0  0  0
   14.0477    5.7401    9.6636 C   0  0  0  0  0  0  0  0  0  0  0  0
   13.3807    5.2997    8.9187 H   0  0  0  0  0  0  0  0  0  0  0  0
   15.0558    5.3505    9.5065 H   0  0  0  0  0  0  0  0  0  0  0  0
   14.0569    6.8202    9.5335 H   0  0  0  0  0  0  0  0  0  0  0  0
   13.5348    3.9955   11.3000 C   0  0  0  0  0  0  0  0  0  0  0  0
   12.8310    3.4901   10.6363 H   0  0  0  0  0  0  0  0  0  0  0  0
   13.1927    3.8808   12.3266 H   0  0  0  0  0  0  0  0  0  0  0  0
   14.5256    3.5518   11.1909 H   0  0  0  0  0  0  0  0  0  0  0  0
   10.1949    6.3890   12.9744 Cd  0  0  0  0  0  0  0  0  0  0  0  0
    7.8351    6.3534   13.6503 N   0  0  0  0  0  0  0  0  0  0  0  0
    9.9836    5.8873   15.3156 N   0  0  0  0  0  0  0  0  0  0  0  0
   14.6021    6.9076   18.7398 N   0  0  0  0  0  0  0  0  0  0  0  0
   13.5911    5.4049   10.9862 N   0  0  0  0  0  0  0  0  0  0  0  0
   10.4299    8.7608   12.2502 Br  0  0  0  0  0  0  0  0  0  0  0  0
   10.0017    4.6334   11.1903 Br  0  0  0  0  0  0  0  0  0  0  0  0
   12.6238    6.0632   12.9244 O   0  0  0  0  0  0  0  0  0  0  0  0
   15.0076    7.1310   19.6323 H   0  0  0  0  0  0  0  0  0  0  0  0
  1 10  1  0  0  0  0
  1 48  1  0  0  0  0
  2  1  2  0  0  0  0
  3  2  1  0  0  0  0
  4  6  2  0  0  0  0
  4  2  1  0  0  0  0
  5  4  1  0  0  0  0
  6  8  1  0  0  0  0
  7  6  1  0  0  0  0
  8  9  1  0  0  0  0
  8 10  1  0  0  0  0
 10 11  2  0  0  0  0
 11 12  1  0  0  0  0
 11 13  1  0  0  0  0
 13 14  1  0  0  0  0
 15 13  2  0  0  0  0
 15 16  1  0  0  0  0
 16 17  1  0  0  0  0
 18 21  1  0  0  0  0
 18 20  1  0  0  0  0
 19 18  1  0  0  0  0
 21 23  1  0  0  0  0
 21 24  1  0  0  0  0
 22 21  1  0  0  0  0
 24 25  2  0  0  0  0
 25 50  1  0  0  0  0
 25 26  1  0  0  0  0
 27 50  1  0  0  0  0
 28 27  1  0  0  0  0
 28 29  1  0  0  0  0
 30 28  2  0  0  0  0
 31 30  1  0  0  0  0
 32 34  2  0  0  0  0
 32 30  1  0  0  0  0
 33 32  1  0  0  0  0
 34 36  1  0  0  0  0
 35 34  1  0  0  0  0
 36 24  1  0  0  0  0
 36 27  2  0  0  0  0
 37 54  1  0  0  0  0
 38 37  1  0  0  0  0
 39 51  1  0  0  0  0
 40 39  1  0  0  0  0
 41 39  1  0  0  0  0
 42 39  1  0  0  0  0
 43 45  1  0  0  0  0
 44 43  1  0  0  0  0
 46 43  1  0  0  0  0
 47 48  1  0  0  0  0
 47 49  1  0  0  0  0
 48 15  1  0  0  0  0
 49 16  1  0  0  0  0
 49 18  1  0  0  0  0
 50 55  1  0  0  0  0
 51 43  1  0  0  0  0
 51 37  1  0  0  0  0
 52 47  1  0  0  0  0
 53 47  1  0  0  0  0
 54 47  1  0  0  0  0
M  END
$$$$
