CSD_code = WOZWUD | q = 0 | S = 0 | Stoichiometry = C12H8Cl2N4Pd | MND = 4
 OpenBabel04212202113D

 27 28  0  0  0  0  0  0  0  0999 V2000
   -0.7117    0.0014    3.5551 Pd  0  0  0  0  0  0  0  0  0  0  0  0
   -2.1966    0.9603    2.1040 Cl  0  0  0  0  0  0  0  0  0  0  0  0
   -0.6912    1.6163    4.6022 N   0  0  0  0  0  0  0  0  0  0  0  0
   -0.0906    2.7140    4.1373 C   0  0  0  0  0  3  0  0  0  0  0  0
    0.3627    2.6374    3.1498 H   0  0  0  0  0  0  0  0  0  0  0  0
   -0.0479    3.8931    4.8544 C   0  0  0  0  0  0  0  0  0  0  0  0
    0.4451    4.7650    4.4542 H   0  0  0  0  0  0  0  0  0  0  0  0
   -0.6593    3.9350    6.1101 C   0  0  0  0  0  0  0  0  0  0  0  0
   -1.2874    2.7823    6.5887 C   0  0  0  0  0  0  0  0  0  0  0  0
   -1.7684    2.7797    7.5542 H   0  0  0  0  0  0  0  0  0  0  0  0
   -1.2766    1.6482    5.8015 C   0  0  0  0  0  0  0  0  0  0  0  0
   -1.7438    0.7234    6.1379 H   0  0  0  0  0  0  0  0  0  0  0  0
   -0.6424    5.1219    6.8825 C   0  0  0  0  0  0  0  0  0  0  0  0
   -0.6291    6.0814    7.5072 N   0  0  0  0  0  0  0  0  0  0  0  0
    0.7735   -0.9573    5.0061 Cl  0  0  0  0  0  0  0  0  0  0  0  0
   -0.7330   -1.6142    2.5091 N   0  0  0  0  0  0  0  0  0  0  0  0
   -1.3342   -2.7105    2.9768 C   0  0  0  0  0  3  0  0  0  0  0  0
   -1.7871   -2.6313    3.9644 H   0  0  0  0  0  0  0  0  0  0  0  0
   -1.3781   -3.8911    2.2625 C   0  0  0  0  0  0  0  0  0  0  0  0
   -1.8714   -4.7619    2.6650 H   0  0  0  0  0  0  0  0  0  0  0  0
   -0.7673   -3.9364    1.0066 C   0  0  0  0  0  0  0  0  0  0  0  0
   -0.1387   -2.7852    0.5250 C   0  0  0  0  0  0  0  0  0  0  0  0
    0.3418   -2.7851   -0.4407 H   0  0  0  0  0  0  0  0  0  0  0  0
   -0.1484   -1.6492    1.3096 C   0  0  0  0  0  0  0  0  0  0  0  0
    0.3192   -0.7255    0.9709 H   0  0  0  0  0  0  0  0  0  0  0  0
   -0.7848   -5.1253    0.2373 C   0  0  0  0  0  0  0  0  0  0  0  0
   -0.7988   -6.0864   -0.3850 N   0  0  0  0  0  0  0  0  0  0  0  0
  1  3  1  0  0  0  0
  1 15  1  0  0  0  0
  2  1  1  0  0  0  0
  3 11  1  0  0  0  0
  4  3  1  0  0  0  0
  4  6  1  0  0  0  0
  5  4  1  0  0  0  0
  6  8  2  0  0  0  0
  7  6  1  0  0  0  0
  8  9  1  0  0  0  0
  8 13  1  0  0  0  0
  9 10  1  0  0  0  0
 11 12  1  0  0  0  0
 11  9  2  0  0  0  0
 13 14  3  0  0  0  0
 16 17  1  0  0  0  0
 16  1  1  0  0  0  0
 17 18  1  0  0  0  0
 19 20  1  0  0  0  0
 19 17  1  0  0  0  0
 21 19  2  0  0  0  0
 22 21  1  0  0  0  0
 22 24  2  0  0  0  0
 23 22  1  0  0  0  0
 24 16  1  0  0  0  0
 25 24  1  0  0  0  0
 26 21  1  0  0  0  0
 27 26  3  0  0  0  0
M  END
$$$$
