CSD_code = WUBBEA | q = 0 | S = 0 | Stoichiometry = C24H28Cl2N2O2SZn | MND = 4
 OpenBabel04212202113D

 60 64  0  0  1  0  0  0  0  0999 V2000
    7.4661   13.4970   13.2154 Zn  0  0  0  0  0  0  0  0  0  0  0  0
    9.5571   13.1389   13.7929 Cl  0  0  0  0  0  0  0  0  0  0  0  0
    6.1379   15.0405   14.0457 Cl  0  0  0  0  0  0  0  0  0  0  0  0
    5.4357   10.3500    9.4723 S   0  0  0  0  0  0  0  0  0  0  0  0
    6.7800   13.1702    9.0702 O   0  0  0  0  0  0  0  0  0  0  0  0
    5.5516    9.7980   12.5711 O   0  0  0  0  0  0  0  0  0  0  0  0
    7.2813   13.7540   11.1522 N   0  0  1  0  0  0  0  0  0  0  0  0
    6.5955   11.6032   13.3313 N   0  0  1  0  0  0  0  0  0  0  0  0
    7.0839   10.3344   10.1240 C   0  0  0  0  0  0  0  0  0  0  0  0
    7.6799    9.0875   10.2750 C   0  0  0  0  0  0  0  0  0  0  0  0
    8.9600    8.9793   10.7851 C   0  0  0  0  0  0  0  0  0  0  0  0
    9.6542   10.1189   11.1616 C   0  0  0  0  0  0  0  0  0  0  0  0
    9.0764   11.3637   10.9975 C   0  0  0  0  0  0  0  0  0  0  0  0
    7.7944   11.4885   10.4647 C   0  0  0  0  0  0  0  0  0  0  0  0
    7.2647   12.8378   10.2641 C   0  0  2  0  0  3  0  0  0  0  0  0
    6.4071   14.5474    9.1322 C   0  0  0  0  0  0  0  0  0  0  0  0
    6.7508   14.9774   10.5753 C   0  0  2  0  0  0  0  0  0  0  0  0
    7.7595   16.1311   10.7162 C   0  0  0  0  0  0  0  0  0  0  0  0
    9.1051   15.8160   10.0685 C   0  0  0  0  0  0  0  0  0  0  0  0
    7.1595   17.4217   10.1670 C   0  0  0  0  0  0  0  0  0  0  0  0
    4.6175   11.6531   10.3519 C   0  0  0  0  0  0  0  0  0  0  0  0
    3.7092   12.4163    9.6273 C   0  0  0  0  0  0  0  0  0  0  0  0
    3.0323   13.4601   10.2297 C   0  0  0  0  0  0  0  0  0  0  0  0
    3.2666   13.7597   11.5630 C   0  0  0  0  0  0  0  0  0  0  0  0
    4.1538   12.9941   12.2960 C   0  0  0  0  0  0  0  0  0  0  0  0
    4.8273   11.9256   11.7065 C   0  0  0  0  0  0  0  0  0  0  0  0
    5.7071   11.1194   12.5534 C   0  0  2  0  0  3  0  0  0  0  0  0
    6.4741    9.2749   13.5275 C   0  0  0  0  0  0  0  0  0  0  0  0
    7.2145   10.5166   14.0711 C   0  0  2  0  0  0  0  0  0  0  0  0
    7.1107   10.7571   15.5875 C   0  0  0  0  0  0  0  0  0  0  0  0
    5.6684   10.9271   16.0567 C   0  0  0  0  0  0  0  0  0  0  0  0
    7.8205    9.6391   16.3450 C   0  0  0  0  0  0  0  0  0  0  0  0
    7.1182    8.2088    9.9963 H   0  0  0  0  0  0  0  0  0  0  0  0
    9.4096    8.0042   10.8989 H   0  0  0  0  0  0  0  0  0  0  0  0
   10.6452   10.0453   11.5801 H   0  0  0  0  0  0  0  0  0  0  0  0
    9.6199   12.2513   11.2770 H   0  0  0  0  0  0  0  0  0  0  0  0
    5.3409   14.6260    8.9083 H   0  0  0  0  0  0  0  0  0  0  0  0
    6.9791   15.0852    8.3731 H   0  0  0  0  0  0  0  0  0  0  0  0
    5.8505   15.2498   11.1372 H   0  0  0  0  0  0  0  0  0  0  0  0
    7.9215   16.2537   11.7927 H   0  0  0  0  0  0  0  0  0  0  0  0
    9.7921   16.6411   10.2372 H   0  0  0  0  0  0  0  0  0  0  0  0
    9.0123   15.6689    8.9939 H   0  0  0  0  0  0  0  0  0  0  0  0
    9.5386   14.9212   10.5095 H   0  0  0  0  0  0  0  0  0  0  0  0
    6.2208   17.6467   10.6669 H   0  0  0  0  0  0  0  0  0  0  0  0
    6.9743   17.3463    9.0973 H   0  0  0  0  0  0  0  0  0  0  0  0
    7.8442   18.2482   10.3374 H   0  0  0  0  0  0  0  0  0  0  0  0
    3.5535   12.1830    8.5848 H   0  0  0  0  0  0  0  0  0  0  0  0
    2.3311   14.0457    9.6541 H   0  0  0  0  0  0  0  0  0  0  0  0
    2.7600   14.5847   12.0379 H   0  0  0  0  0  0  0  0  0  0  0  0
    4.3266   13.2170   13.3360 H   0  0  0  0  0  0  0  0  0  0  0  0
    7.1383    8.5735   13.0179 H   0  0  0  0  0  0  0  0  0  0  0  0
    5.9016    8.7446   14.2915 H   0  0  0  0  0  0  0  0  0  0  0  0
    8.2779   10.4957   13.8078 H   0  0  0  0  0  0  0  0  0  0  0  0
    7.6420   11.6963   15.7762 H   0  0  0  0  0  0  0  0  0  0  0  0
    5.1983   11.7629   15.5435 H   0  0  0  0  0  0  0  0  0  0  0  0
    5.6552   11.1365   17.1231 H   0  0  0  0  0  0  0  0  0  0  0  0
    5.0775   10.0298   15.8819 H   0  0  0  0  0  0  0  0  0  0  0  0
    7.8127    9.8530   17.4103 H   0  0  0  0  0  0  0  0  0  0  0  0
    8.8546    9.5577   16.0202 H   0  0  0  0  0  0  0  0  0  0  0  0
    7.3296    8.6812   16.1852 H   0  0  0  0  0  0  0  0  0  0  0  0
  1  2  1  0  0  0  0
  1  3  1  0  0  0  0
  4  9  1  0  0  0  0
  4 21  1  0  0  0  0
  5 16  1  0  0  0  0
  6 28  1  0  0  0  0
  7  1  1  1  0  0  0
  8  1  1  6  0  0  0
  8 29  1  0  0  0  0
  9 10  2  0  0  0  0
  9 14  1  0  0  0  0
 10 11  1  0  0  0  0
 11 34  1  0  0  0  0
 11 12  2  0  0  0  0
 12 35  1  0  0  0  0
 13 12  1  0  0  0  0
 13 36  1  0  0  0  0
 14 13  2  0  0  0  0
 15  5  1  6  0  0  0
 15 14  1  0  0  0  0
 15  7  1  0  0  0  0
 16 17  1  0  0  0  0
 17 18  1  0  0  0  0
 17 39  1  1  0  0  0
 17  7  1  0  0  0  0
 18 40  1  0  0  0  0
 19 41  1  0  0  0  0
 19 43  1  0  0  0  0
 19 18  1  0  0  0  0
 20 46  1  0  0  0  0
 20 44  1  0  0  0  0
 20 18  1  0  0  0  0
 21 26  1  0  0  0  0
 22 23  1  0  0  0  0
 22 21  2  0  0  0  0
 23 24  2  0  0  0  0
 24 49  1  0  0  0  0
 24 25  1  0  0  0  0
 25 50  1  0  0  0  0
 26 25  2  0  0  0  0
 27 26  1  1  0  0  0
 27  6  1  0  0  0  0
 27  8  1  0  0  0  0
 28 29  1  0  0  0  0
 28 52  1  0  0  0  0
 29 53  1  6  0  0  0
 29 30  1  0  0  0  0
 30 54  1  0  0  0  0
 30 31  1  0  0  0  0
 30 32  1  0  0  0  0
 31 56  1  0  0  0  0
 32 58  1  0  0  0  0
 33 10  1  0  0  0  0
 37 16  1  0  0  0  0
 38 16  1  0  0  0  0
 42 19  1  0  0  0  0
 45 20  1  0  0  0  0
 47 22  1  0  0  0  0
 48 23  1  0  0  0  0
 51 28  1  0  0  0  0
 55 31  1  0  0  0  0
 57 31  1  0  0  0  0
 59 32  1  0  0  0  0
 60 32  1  0  0  0  0
M  END
$$$$
