CSD_code = WUBKIP | q = 0 | S = 0 | Stoichiometry = C20H28Cl2N2O2Zr | MND = 6
 OpenBabel04212202113D

 55 58  0  0  0  0  0  0  0  0999 V2000
   -1.5581    9.1896    3.1885 Zr  0  0  0  0  0  0  0  0  0  0  0  0
   -2.4627   10.8017    1.6997 Cl  0  0  0  0  0  0  0  0  0  0  0  0
   -1.9449    7.6111    1.9321 N   0  0  0  0  0  0  0  0  0  0  0  0
   -2.1368    7.6393    0.4935 C   0  0  0  0  0  0  0  0  0  0  0  0
   -1.1552    7.5906   -0.0126 H   0  0  0  0  0  0  0  0  0  0  0  0
   -2.6089    8.5936    0.2270 H   0  0  0  0  0  0  0  0  0  0  0  0
   -2.9981    6.4670    0.0167 C   0  0  0  0  0  0  0  0  0  0  0  0
   -3.1667    6.5406   -1.0584 H   0  0  0  0  0  0  0  0  0  0  0  0
   -3.9665    6.5094    0.5228 H   0  0  0  0  0  0  0  0  0  0  0  0
   -2.2931    5.1606    0.3673 C   0  0  0  0  0  0  0  0  0  0  0  0
   -2.9399    4.3064    0.1548 H   0  0  0  0  0  0  0  0  0  0  0  0
   -1.3952    5.0532   -0.2513 H   0  0  0  0  0  0  0  0  0  0  0  0
   -1.9056    5.1579    1.8226 C   0  0  0  0  0  0  0  0  0  0  0  0
   -1.7385    6.3797    2.4942 C   0  0  0  0  0  0  0  0  0  0  0  0
   -1.7281    3.9726    2.5156 C   0  0  0  0  0  0  0  0  0  0  0  0
   -1.8611    3.0345    1.9965 H   0  0  0  0  0  0  0  0  0  0  0  0
    0.8891   10.5576    1.8251 C   0  0  0  0  0  0  0  0  0  0  0  0
    0.1589   11.3593    1.9866 H   0  0  0  0  0  0  0  0  0  0  0  0
    1.1972   10.5386    0.7698 H   0  0  0  0  0  0  0  0  0  0  0  0
    2.1037   10.6399    2.7472 C   0  0  0  0  0  0  0  0  0  0  0  0
    2.8998   11.2557    2.3282 H   0  0  0  0  0  0  0  0  0  0  0  0
    1.8118   11.0732    3.7176 H   0  0  0  0  0  0  0  0  0  0  0  0
    2.4745    9.2039    2.8639 C   0  0  0  0  0  3  0  0  0  0  0  0
    3.2798    8.8598    3.4832 H   0  0  0  0  0  0  0  0  0  0  0  0
    1.2468    8.4015    2.6851 C   0  0  0  0  0  0  0  0  0  0  0  0
    1.3719    7.5430    2.0005 H   0  0  0  0  0  0  0  0  0  0  0  0
    0.8168    8.0086    3.6434 H   0  0  0  0  0  0  0  0  0  0  0  0
    0.2523    9.2973    2.1302 O   0  0  0  0  0  0  0  0  0  0  0  0
   -1.1714    7.6110    4.4446 N   0  0  0  0  0  0  0  0  0  0  0  0
   -0.9797    7.6389    5.8832 C   0  0  0  0  0  0  0  0  0  0  0  0
   -1.9614    7.5897    6.3892 H   0  0  0  0  0  0  0  0  0  0  0  0
   -0.5081    8.5934    6.1500 H   0  0  0  0  0  0  0  0  0  0  0  0
   -0.1180    6.4669    6.3599 C   0  0  0  0  0  0  0  0  0  0  0  0
    0.0502    6.5404    7.4351 H   0  0  0  0  0  0  0  0  0  0  0  0
    0.8506    6.5100    5.8541 H   0  0  0  0  0  0  0  0  0  0  0  0
   -0.8222    5.1603    6.0088 C   0  0  0  0  0  0  0  0  0  0  0  0
   -0.1749    4.3064    6.2211 H   0  0  0  0  0  0  0  0  0  0  0  0
   -1.7200    5.0521    6.6273 H   0  0  0  0  0  0  0  0  0  0  0  0
   -1.2095    5.1578    4.5535 C   0  0  0  0  0  0  0  0  0  0  0  0
   -1.3771    6.3796    3.8822 C   0  0  0  0  0  0  0  0  0  0  0  0
   -1.3865    3.9725    3.8602 C   0  0  0  0  0  0  0  0  0  0  0  0
   -1.2531    3.0344    4.3791 H   0  0  0  0  0  0  0  0  0  0  0  0
   -0.6516   10.8011    4.6765 Cl  0  0  0  0  0  0  0  0  0  0  0  0
   -4.0052   10.5582    4.5511 C   0  0  0  0  0  0  0  0  0  0  0  0
   -3.2747   11.3596    4.3900 H   0  0  0  0  0  0  0  0  0  0  0  0
   -4.3141   10.5394    5.6062 H   0  0  0  0  0  0  0  0  0  0  0  0
   -5.2191   10.6404    3.6281 C   0  0  0  0  0  0  0  0  0  0  0  0
   -6.0154   11.2563    4.0465 H   0  0  0  0  0  0  0  0  0  0  0  0
   -4.9265   11.0734    2.6579 H   0  0  0  0  0  0  0  0  0  0  0  0
   -5.5900    9.2044    3.5115 C   0  0  0  0  0  3  0  0  0  0  0  0
   -6.3949    8.8601    2.8917 H   0  0  0  0  0  0  0  0  0  0  0  0
   -4.3627    8.4017    3.6918 C   0  0  0  0  0  0  0  0  0  0  0  0
   -4.4884    7.5437    4.3768 H   0  0  0  0  0  0  0  0  0  0  0  0
   -3.9320    8.0082    2.7339 H   0  0  0  0  0  0  0  0  0  0  0  0
   -3.3683    9.2976    4.2469 O   0  0  0  0  0  0  0  0  0  0  0  0
  1 29  1  0  0  0  0
  1 43  1  0  0  0  0
  2  1  1  0  0  0  0
  3 14  1  0  0  0  0
  3  1  1  0  0  0  0
  4  3  1  0  0  0  0
  5  4  1  0  0  0  0
  6  4  1  0  0  0  0
  7 10  1  0  0  0  0
  7  4  1  0  0  0  0
  7  9  1  0  0  0  0
  8  7  1  0  0  0  0
 10 13  1  0  0  0  0
 11 10  1  0  0  0  0
 12 10  1  0  0  0  0
 13 14  2  0  0  0  0
 13 15  1  0  0  0  0
 14 40  1  0  0  0  0
 15 41  2  0  0  0  0
 16 15  1  0  0  0  0
 17 18  1  0  0  0  0
 17 28  1  0  0  0  0
 17 20  1  0  0  0  0
 19 17  1  0  0  0  0
 20 23  1  0  0  0  0
 20 22  1  0  0  0  0
 21 20  1  0  0  0  0
 23 24  1  0  0  0  0
 25 23  1  0  0  0  0
 25 27  1  0  0  0  0
 26 25  1  0  0  0  0
 28 25  1  0  0  0  0
 29 30  1  0  0  0  0
 30 32  1  0  0  0  0
 30 33  1  0  0  0  0
 30 31  1  0  0  0  0
 33 34  1  0  0  0  0
 35 33  1  0  0  0  0
 36 37  1  0  0  0  0
 36 33  1  0  0  0  0
 36 38  1  0  0  0  0
 39 36  1  0  0  0  0
 40 29  1  0  0  0  0
 40 39  2  0  0  0  0
 41 42  1  0  0  0  0
 41 39  1  0  0  0  0
 44 46  1  0  0  0  0
 45 44  1  0  0  0  0
 47 48  1  0  0  0  0
 47 44  1  0  0  0  0
 49 47  1  0  0  0  0
 50 47  1  0  0  0  0
 50 52  1  0  0  0  0
 51 50  1  0  0  0  0
 52 55  1  0  0  0  0
 52 53  1  0  0  0  0
 54 52  1  0  0  0  0
 55 44  1  0  0  0  0
M  END
$$$$
