CSD_code = WUBKAH | q = 0 | S = 0 | Stoichiometry = C16H28Cl2N4Zr | MND = 6
 OpenBabel04212202113D

 51 54  0  0  0  0  0  0  0  0999 V2000
    0.6137   15.9937    5.1958 Zr  0  0  0  0  0  0  0  0  0  0  0  0
    2.1285   15.3354    6.9355 Cl  0  0  0  0  0  0  0  0  0  0  0  0
    0.5300   13.7447    4.3378 Cl  0  0  0  0  0  0  0  0  0  0  0  0
    3.0071   15.2846    4.3265 H   0  0  0  0  0  0  0  0  0  0  0  0
   -1.7133   14.7536    5.5267 H   0  0  0  0  0  0  0  0  0  0  0  0
    0.5302   17.9073    5.8284 N   0  0  0  0  0  0  0  0  0  0  0  0
   -0.5528   16.7545    3.7283 N   0  0  0  0  0  0  0  0  0  0  0  0
    2.5249   16.1375    4.0103 N   0  0  0  0  0  4  0  0  0  0  0  0
   -1.2795   15.3338    6.2573 N   0  0  0  0  0  4  0  0  0  0  0  0
    0.9696   18.5188    7.0689 C   0  0  0  0  0  0  0  0  0  0  0  0
    1.7101   17.8611    7.5410 H   0  0  0  0  0  0  0  0  0  0  0  0
    0.1172   18.6248    7.7669 H   0  0  0  0  0  0  0  0  0  0  0  0
    1.5642   19.9120    6.8382 C   0  0  0  0  0  0  0  0  0  0  0  0
    1.9438   20.3176    7.7776 H   0  0  0  0  0  0  0  0  0  0  0  0
    2.3962   19.8330    6.1342 H   0  0  0  0  0  0  0  0  0  0  0  0
    0.4817   20.8141    6.2557 C   0  0  0  0  0  0  0  0  0  0  0  0
   -0.2717   21.0237    7.0234 H   0  0  0  0  0  0  0  0  0  0  0  0
    0.9065   21.7730    5.9481 H   0  0  0  0  0  0  0  0  0  0  0  0
   -0.1695   20.1427    5.0740 C   0  0  0  0  0  0  0  0  0  0  0  0
   -0.0883   18.7540    4.9329 C   0  0  0  0  0  0  0  0  0  0  0  0
   -0.8401   20.8924    4.1135 C   0  0  0  0  0  0  0  0  0  0  0  0
   -0.8967   21.9654    4.2306 H   0  0  0  0  0  0  0  0  0  0  0  0
   -1.4264   20.2849    3.0209 C   0  0  0  0  0  0  0  0  0  0  0  0
   -1.9443   20.8812    2.2832 H   0  0  0  0  0  0  0  0  0  0  0  0
   -1.3560   18.9067    2.8469 C   0  0  0  0  0  0  0  0  0  0  0  0
   -0.6856   18.1255    3.7929 C   0  0  0  0  0  0  0  0  0  0  0  0
   -1.9871   18.2507    1.6454 C   0  0  0  0  0  0  0  0  0  0  0  0
   -1.8780   18.8971    0.7710 H   0  0  0  0  0  0  0  0  0  0  0  0
   -3.0611   18.1185    1.8193 H   0  0  0  0  0  0  0  0  0  0  0  0
   -1.3433   16.8925    1.3883 C   0  0  0  0  0  0  0  0  0  0  0  0
   -1.8903   16.3429    0.6201 H   0  0  0  0  0  0  0  0  0  0  0  0
   -0.3152   17.0320    1.0456 H   0  0  0  0  0  0  0  0  0  0  0  0
   -1.3330   16.0957    2.6973 C   0  0  0  0  0  0  0  0  0  0  0  0
   -2.3824   15.9754    3.0305 H   0  0  0  0  0  0  0  0  0  0  0  0
   -0.9179   15.0937    2.5303 H   0  0  0  0  0  0  0  0  0  0  0  0
    2.3476   16.0677    2.5596 C   0  0  0  0  0  0  0  0  0  0  0  0
    1.7817   16.9461    2.2331 H   0  0  0  0  0  0  0  0  0  0  0  0
    1.7881   15.1635    2.3043 H   0  0  0  0  0  0  0  0  0  0  0  0
    3.3132   16.0500    2.0330 H   0  0  0  0  0  0  0  0  0  0  0  0
    3.3270   17.2990    4.4006 C   0  0  0  0  0  0  0  0  0  0  0  0
    4.2995   17.3102    3.8860 H   0  0  0  0  0  0  0  0  0  0  0  0
    3.4970   17.2740    5.4813 H   0  0  0  0  0  0  0  0  0  0  0  0
    2.7770   18.2102    4.1412 H   0  0  0  0  0  0  0  0  0  0  0  0
   -2.2123   16.4001    6.6267 C   0  0  0  0  0  0  0  0  0  0  0  0
   -3.1585   15.9955    7.0152 H   0  0  0  0  0  0  0  0  0  0  0  0
   -2.4177   17.0277    5.7555 H   0  0  0  0  0  0  0  0  0  0  0  0
   -1.7540   17.0204    7.4025 H   0  0  0  0  0  0  0  0  0  0  0  0
   -0.9684   14.4663    7.3973 C   0  0  0  0  0  0  0  0  0  0  0  0
   -0.4318   15.0454    8.1566 H   0  0  0  0  0  0  0  0  0  0  0  0
   -0.3261   13.6448    7.0644 H   0  0  0  0  0  0  0  0  0  0  0  0
   -1.8789   14.0457    7.8485 H   0  0  0  0  0  0  0  0  0  0  0  0
  1  6  1  0  0  0  0
  1  9  1  0  0  0  0
  1  2  1  0  0  0  0
  3  1  1  0  0  0  0
  5  9  1  0  0  0  0
  6 10  1  0  0  0  0
  7 26  1  0  0  0  0
  7  1  1  0  0  0  0
  8  4  1  0  0  0  0
  8 40  1  0  0  0  0
  8  1  1  0  0  0  0
  9 44  1  0  0  0  0
  9 48  1  0  0  0  0
 10 11  1  0  0  0  0
 10 12  1  0  0  0  0
 13 10  1  0  0  0  0
 13 14  1  0  0  0  0
 15 13  1  0  0  0  0
 16 13  1  0  0  0  0
 16 17  1  0  0  0  0
 18 16  1  0  0  0  0
 19 16  1  0  0  0  0
 20 19  1  0  0  0  0
 20  6  1  0  0  0  0
 21 22  1  0  0  0  0
 21 19  2  0  0  0  0
 23 21  1  0  0  0  0
 24 23  1  0  0  0  0
 25 23  2  0  0  0  0
 25 26  1  0  0  0  0
 26 20  2  0  0  0  0
 27 29  1  0  0  0  0
 27 25  1  0  0  0  0
 28 27  1  0  0  0  0
 30 27  1  0  0  0  0
 30 33  1  0  0  0  0
 31 30  1  0  0  0  0
 32 30  1  0  0  0  0
 33 34  1  0  0  0  0
 33  7  1  0  0  0  0
 35 33  1  0  0  0  0
 36  8  1  0  0  0  0
 37 36  1  0  0  0  0
 38 36  1  0  0  0  0
 39 36  1  0  0  0  0
 40 42  1  0  0  0  0
 41 40  1  0  0  0  0
 43 40  1  0  0  0  0
 44 45  1  0  0  0  0
 44 47  1  0  0  0  0
 46 44  1  0  0  0  0
 48 51  1  0  0  0  0
 48 49  1  0  0  0  0
 50 48  1  0  0  0  0
M  END
$$$$
