CSD_code = WUBMIP | q = 0 | S = 0 | Stoichiometry = C12H10I2O5W | MND = 7
 OpenBabel04212202113D

 30 30  0  0  1  0  0  0  0  0999 V2000
    8.4880   10.7456    1.1402 W   0  0  0  0  0  0  0  0  0  0  0  0
    7.6968   12.7672   -0.6068 I   0  0  0  0  0 15  0  0  0  0  0  0
    8.3423    9.4571   -0.3921 C   0  0  0  0  0  0  0  0  0  0  0  0
    8.5364    8.7110   -1.2756 O   0  0  0  0  0  0  0  0  0  0  0  0
    9.5503   12.6737    2.8016 I   0  0  0  0  0  0  0  0  0  0  0  0
    5.5437   10.6016    2.2578 O   0  0  0  0  0  1  0  0  0  0  0  0
    6.6263   10.7316    1.8855 C   0  0  0  0  0  2  0  0  0  0  0  0
    7.9509    8.8384    1.1852 C   0  0  0  0  0  0  0  0  0  0  0  0
    7.5648    7.7376    1.3765 O   0  0  0  0  0  0  0  0  0  0  0  0
    9.6530    9.3633    2.2316 C   0  0  1  0  0  3  0  0  0  0  0  0
    9.5287    8.8499    3.4446 O   0  0  0  0  0  0  0  0  0  0  0  0
   10.7398   10.7036    0.1549 O   0  0  0  0  0  0  0  0  0  0  0  0
   10.7764    8.7716    1.5007 C   0  0  0  0  0  0  0  0  0  0  0  0
   11.3459    7.5448    1.8553 C   0  0  0  0  0  0  0  0  0  0  0  0
   10.9202    7.0028    2.6852 H   0  0  0  0  0  0  0  0  0  0  0  0
   12.4070    7.0322    1.1401 C   0  0  0  0  0  0  0  0  0  0  0  0
   12.8275    6.0768    1.4108 H   0  0  0  0  0  0  0  0  0  0  0  0
   12.9293    7.7437    0.0705 C   0  0  0  0  0  0  0  0  0  0  0  0
   13.7574    7.3422   -0.4926 H   0  0  0  0  0  0  0  0  0  0  0  0
   12.4020    8.9724   -0.2917 C   0  0  0  0  0  0  0  0  0  0  0  0
   12.8254    9.5063   -1.1266 H   0  0  0  0  0  0  0  0  0  0  0  0
   11.3263    9.4893    0.4140 C   0  0  0  0  0  0  0  0  0  0  0  0
   11.3477   11.5643   -0.8048 C   0  0  0  0  0  0  0  0  0  0  0  0
   12.3995   11.7261   -0.5573 H   0  0  0  0  0  0  0  0  0  0  0  0
   10.8188   12.5178   -0.7510 H   0  0  0  0  0  0  0  0  0  0  0  0
   11.2505   11.1546   -1.8142 H   0  0  0  0  0  0  0  0  0  0  0  0
    8.5599    9.3643    4.3385 C   0  0  0  0  0  0  0  0  0  0  0  0
    8.9075   10.3039    4.7773 H   0  0  0  0  0  0  0  0  0  0  0  0
    8.4465    8.6193    5.1242 H   0  0  0  0  0  0  0  0  0  0  0  0
    7.5956    9.5268    3.8406 H   0  0  0  0  0  0  0  0  0  0  0  0
  1  8  1  0  0  0  0
  1  7  1  0  0  0  0
  1 10  1  0  0  0  0
  1  5  1  0  0  0  0
  3  1  1  0  0  0  0
  3  8  1  0  0  0  0
  4  3  2  0  0  0  0
  7  6  1  0  0  0  0
  8  9  2  0  0  0  0
 10 11  1  6  0  0  0
 11 27  1  0  0  0  0
 12 22  1  0  0  0  0
 13 14  1  0  0  0  0
 13 10  1  0  0  0  0
 14 15  1  0  0  0  0
 16 17  1  0  0  0  0
 16 14  2  0  0  0  0
 18 16  1  0  0  0  0
 19 18  1  0  0  0  0
 20 18  2  0  0  0  0
 20 22  1  0  0  0  0
 21 20  1  0  0  0  0
 22 13  2  0  0  0  0
 23 25  1  0  0  0  0
 23 24  1  0  0  0  0
 23 12  1  0  0  0  0
 26 23  1  0  0  0  0
 27 28  1  0  0  0  0
 27 29  1  0  0  0  0
 30 27  1  0  0  0  0
M  END
$$$$
