CSD_code = WUBMOV | q = 0 | S = 0 | Stoichiometry = C15H10I2N2O3W | MND = 7
 OpenBabel04212202113D

 33 35  0  0  1  0  0  0  0  0999 V2000
   -1.3947   -0.2498   -4.2366 W   0  0  0  0  0  0  0  0  0  0  0  0
   -3.8350   -0.0853   -2.8453 I   0  0  0  0  0 15  0  0  0  0  0  0
   -0.5097    2.2318   -3.3900 I   0  0  0  0  0  0  0  0  0  0  0  0
   -1.9297   -2.1471   -4.6010 C   0  0  0  0  0  2  0  0  0  0  0  0
   -2.1198   -3.2143   -4.9918 O   0  0  0  0  0  1  0  0  0  0  0  0
   -2.4227    0.7788   -5.6439 C   0  0  0  0  0  0  0  0  0  0  0  0
   -2.9387    1.5461   -6.3636 O   0  0  0  0  0  0  0  0  0  0  0  0
   -1.6428   -0.5776   -6.1817 C   0  0  0  0  0  0  0  0  0  0  0  0
   -1.7301   -0.9909   -7.2841 O   0  0  0  0  0  0  0  0  0  0  0  0
    0.5309   -0.8048   -4.8226 C   0  0  2  0  0  3  0  0  0  0  0  0
    1.1586   -0.6675   -6.1252 C   0  0  0  0  0  0  0  0  0  0  0  0
    0.9857    0.5267   -6.8397 C   0  0  0  0  0  0  0  0  0  0  0  0
    0.4223    1.3402   -6.3992 H   0  0  0  0  0  0  0  0  0  0  0  0
    1.5616    0.6914   -8.0822 C   0  0  0  0  0  0  0  0  0  0  0  0
    1.4268    1.6206   -8.6140 H   0  0  0  0  0  0  0  0  0  0  0  0
    2.3013   -0.3348   -8.6504 C   0  0  0  0  0  0  0  0  0  0  0  0
    2.7375   -0.2101   -9.6295 H   0  0  0  0  0  0  0  0  0  0  0  0
    2.4716   -1.5253   -7.9624 C   0  0  0  0  0  0  0  0  0  0  0  0
    3.0343   -2.3323   -8.4074 H   0  0  0  0  0  0  0  0  0  0  0  0
    1.9182   -1.6895   -6.7081 C   0  0  0  0  0  0  0  0  0  0  0  0
    2.0272   -2.6411   -6.2039 H   0  0  0  0  0  0  0  0  0  0  0  0
    1.2128   -1.5639   -3.9267 N   0  0  0  0  0  0  0  0  0  0  0  0
    2.1089   -1.9878   -4.1538 H   0  0  0  0  0  0  0  0  0  0  0  0
    0.7812   -1.6132   -2.6286 C   0  0  1  0  0  3  0  0  0  0  0  0
    1.5267   -2.2323   -1.6217 C   0  0  0  0  0  0  0  0  0  0  0  0
    2.4465   -2.7362   -1.8742 H   0  0  0  0  0  0  0  0  0  0  0  0
    1.0693   -2.1679   -0.3246 C   0  0  0  0  0  0  0  0  0  0  0  0
    1.6217   -2.6343    0.4753 H   0  0  0  0  0  0  0  0  0  0  0  0
   -0.1092   -1.4704   -0.0669 C   0  0  0  0  0  0  0  0  0  0  0  0
   -0.4886   -1.3703    0.9357 H   0  0  0  0  0  0  0  0  0  0  0  0
   -0.7966   -0.9006   -1.1157 C   0  0  0  0  0  0  0  0  0  0  0  0
   -1.7104   -0.3506   -0.9265 H   0  0  0  0  0  0  0  0  0  0  0  0
   -0.3889   -0.9816   -2.3923 N   0  0  0  0  0  0  0  0  0  0  0  0
  1  3  1  0  0  0  0
  1 33  1  0  0  0  0
  4  1  1  0  0  0  0
  5  4  1  0  0  0  0
  6  1  1  0  0  0  0
  7  6  2  0  0  0  0
  8  6  1  0  0  0  0
  8  1  1  0  0  0  0
  9  8  2  0  0  0  0
 10 11  1  6  0  0  0
 10  1  1  0  0  0  0
 10 22  1  0  0  0  0
 12 13  1  0  0  0  0
 12 11  2  0  0  0  0
 14 12  1  0  0  0  0
 15 14  1  0  0  0  0
 16 14  2  0  0  0  0
 16 18  1  0  0  0  0
 17 16  1  0  0  0  0
 18 20  2  0  0  0  0
 19 18  1  0  0  0  0
 20 21  1  0  0  0  0
 20 11  1  0  0  0  0
 22 24  1  0  0  0  0
 23 22  1  0  0  0  0
 24 33  1  0  0  0  0
 24 25  1  1  0  0  0
 25 27  2  0  0  0  0
 26 25  1  0  0  0  0
 27 29  1  0  0  0  0
 27 28  1  0  0  0  0
 29 30  1  0  0  0  0
 31 32  1  0  0  0  0
 31 29  2  0  0  0  0
 33 31  1  0  0  0  0
M  END
$$$$
