CSD_code = WUBPAK | q = 0 | S = 0 | Stoichiometry = C17H18ClNPdS | MND = 4
 OpenBabel04212202113D

 39 42  0  0  0  0  0  0  0  0999 V2000
    5.6828    2.8375    3.3487 Pd  0  0  2  0  0  0  0  0  0  0  0  0
    6.4255    3.7517    5.5387 S   0  0  1  0  0  3  0  0  0  0  0  0
    5.4985    0.7468    4.0360 Cl  0  0  0  0  0  0  0  0  0  0  0  0
    5.9951    4.7405    2.6944 N   0  0  0  0  0  0  0  0  0  0  0  0
    8.1699    3.6003    4.9983 C   0  0  0  0  0  0  0  0  0  0  0  0
    8.5044    2.6311    5.3613 H   0  0  0  0  0  0  0  0  0  0  0  0
    8.7540    4.3956    5.4540 H   0  0  0  0  0  0  0  0  0  0  0  0
    8.2445    3.6328    3.9059 H   0  0  0  0  0  0  0  0  0  0  0  0
    6.0484    5.4295    5.0061 C   0  0  0  0  0  0  0  0  0  0  0  0
    5.9192    6.4008    5.9812 C   0  0  0  0  0  0  0  0  0  0  0  0
    6.1050    6.1345    7.0103 H   0  0  0  0  0  0  0  0  0  0  0  0
    5.5310    7.6871    5.6416 C   0  0  0  0  0  0  0  0  0  0  0  0
    5.4215    8.4379    6.4083 H   0  0  0  0  0  0  0  0  0  0  0  0
    5.2589    7.9909    4.3190 C   0  0  0  0  0  0  0  0  0  0  0  0
    4.9255    8.9814    4.0483 H   0  0  0  0  0  0  0  0  0  0  0  0
    5.4035    7.0302    3.3352 C   0  0  0  0  0  0  0  0  0  0  0  0
    5.1535    7.2706    2.3124 H   0  0  0  0  0  0  0  0  0  0  0  0
    5.8158    5.7340    3.6544 C   0  0  0  0  0  0  0  0  0  0  0  0
    6.4070    5.0352    1.4994 C   0  0  0  0  0  3  0  0  0  0  0  0
    6.6564    6.0722    1.2788 H   0  0  0  0  0  0  0  0  0  0  0  0
    6.7104    4.0632    0.4951 C   0  0  0  0  0  0  0  0  0  0  0  0
    7.6354    4.3845   -0.5240 C   0  0  0  0  0  0  0  0  0  0  0  0
    8.0929    3.3858   -1.3604 C   0  0  0  0  0  0  0  0  0  0  0  0
    8.8149    3.6294   -2.1268 H   0  0  0  0  0  0  0  0  0  0  0  0
    7.6672    2.0647   -1.2269 C   0  0  0  0  0  0  0  0  0  0  0  0
    6.7059    1.7671   -0.2774 C   0  0  0  0  0  0  0  0  0  0  0  0
    6.3329    0.7563   -0.1973 H   0  0  0  0  0  0  0  0  0  0  0  0
    6.1810    2.7406    0.5728 C   0  0  0  0  0  0  0  0  0  0  0  0
    8.1716    5.7769   -0.6940 C   0  0  0  0  0  0  0  0  0  0  0  0
    7.3629    6.4945   -0.8283 H   0  0  0  0  0  0  0  0  0  0  0  0
    8.8131    5.8238   -1.5703 H   0  0  0  0  0  0  0  0  0  0  0  0
    8.7607    6.0802    0.1711 H   0  0  0  0  0  0  0  0  0  0  0  0
    8.2004    0.9933   -2.1246 C   0  0  0  0  0  0  0  0  0  0  0  0
    8.4284    0.0966   -1.5523 H   0  0  0  0  0  0  0  0  0  0  0  0
    9.0982    1.3239   -2.6406 H   0  0  0  0  0  0  0  0  0  0  0  0
    7.4527    0.7282   -2.8723 H   0  0  0  0  0  0  0  0  0  0  0  0
    5.0585    2.4137    1.4531 C   0  0  0  0  0  0  0  0  0  0  0  0
    4.7220    1.3818    1.3278 H   0  0  0  0  0  0  0  0  0  0  0  0
    4.2155    3.1174    1.3403 H   0  0  0  0  0  0  0  0  0  0  0  0
  1  3  1  6  0  0  0
  1  2  1  0  0  0  0
  2  5  1  6  0  0  0
  4  1  1  0  0  0  0
  4 18  1  0  0  0  0
  5  6  1  0  0  0  0
  5  7  1  0  0  0  0
  8  5  1  0  0  0  0
  9  2  1  0  0  0  0
  9 10  1  0  0  0  0
 10 11  1  0  0  0  0
 12 10  2  0  0  0  0
 12 13  1  0  0  0  0
 14 12  1  0  0  0  0
 15 14  1  0  0  0  0
 16 18  1  0  0  0  0
 16 14  2  0  0  0  0
 17 16  1  0  0  0  0
 18  9  2  0  0  0  0
 19  4  1  0  0  0  0
 20 19  1  0  0  0  0
 21 28  1  0  0  0  0
 21 19  1  0  0  0  0
 22 21  2  0  0  0  0
 23 25  2  0  0  0  0
 23 22  1  0  0  0  0
 24 23  1  0  0  0  0
 25 26  1  0  0  0  0
 26 27  1  0  0  0  0
 26 28  2  0  0  0  0
 28 37  1  0  0  0  0
 29 22  1  0  0  0  0
 29 32  1  0  0  0  0
 30 29  1  0  0  0  0
 31 29  1  0  0  0  0
 33 34  1  0  0  0  0
 33 25  1  0  0  0  0
 35 33  1  0  0  0  0
 36 33  1  0  0  0  0
 37  1  1  0  0  0  0
 38 37  1  0  0  0  0
 39 37  1  0  0  0  0
M  END
$$$$
