CSD_code = WUCQUG | q = 0 | S = 0 | Stoichiometry = C10H10ClCuN2S | MND = 4
 OpenBabel04212202113D

 25 25  0  0  1  0  0  0  0  0999 V2000
    0.2202    1.8183    8.5755 Cu  0  0  0  0  0  0  0  0  0  0  0  0
   -1.1031    2.8368    9.9106 Cl  0  0  0  0  0 15  0  0  0  0  0  0
    3.4103    1.0274    7.0803 S   0  0  0  0  0  0  0  0  0  0  0  0
    4.1311    0.9378    9.6559 N   0  0  0  0  0  0  0  0  0  0  0  0
    1.9888    1.4498    9.4016 N   0  0  0  0  0  0  0  0  0  0  0  0
    3.6243    1.0922   10.9284 C   0  0  0  0  0  0  0  0  0  0  0  0
    4.1933    0.9844   12.1859 C   0  0  0  0  0  0  0  0  0  0  0  0
    3.3634    1.2231   13.2646 C   0  0  0  0  0  0  0  0  0  0  0  0
    2.0189    1.5596   13.0963 C   0  0  0  0  0  0  0  0  0  0  0  0
    1.4435    1.6671   11.8464 C   0  0  0  0  0  0  0  0  0  0  0  0
    2.2662    1.4244   10.7542 C   0  0  0  0  0  0  0  0  0  0  0  0
    3.1159    1.1653    8.7857 C   0  0  0  0  0  0  0  0  0  0  0  0
    1.8910    1.7095    6.3137 C   0  0  0  0  0  0  0  0  0  0  0  0
    0.6305    1.0843    6.8187 C   0  0  2  0  0  0  0  0  0  0  0  0
   -0.5816    1.7442    6.7950 C   0  0  0  0  0  3  0  0  0  0  0  0
    5.0758    0.7037    9.4003 H   0  0  0  0  0  0  0  0  0  0  0  0
    5.2337    0.7291   12.3139 H   0  0  0  0  0  0  0  0  0  0  0  0
    3.7665    1.1514   14.2633 H   0  0  0  0  0  0  0  0  0  0  0  0
    1.4136    1.7428   13.9705 H   0  0  0  0  0  0  0  0  0  0  0  0
    0.4112    1.9437   11.7000 H   0  0  0  0  0  0  0  0  0  0  0  0
    1.8984    2.7905    6.4559 H   0  0  0  0  0  0  0  0  0  0  0  0
    2.0446    1.4854    5.2542 H   0  0  0  0  0  0  0  0  0  0  0  0
    0.6453    0.0003    6.8601 H   0  0  0  0  0  0  0  0  0  0  0  0
   -0.6511    2.7501    6.4041 H   0  0  0  0  0  0  0  0  0  0  0  0
   -1.5053    1.1859    6.8058 H   0  0  0  0  0  0  0  0  0  0  0  0
  3 12  1  0  0  0  0
  4  6  1  0  0  0  0
  5 11  1  0  0  0  0
  6  7  1  0  0  0  0
  7 17  1  0  0  0  0
  7  8  2  0  0  0  0
  8 18  1  0  0  0  0
  9  8  1  0  0  0  0
  9 19  1  0  0  0  0
 10  9  2  0  0  0  0
 11  6  2  0  0  0  0
 11 10  1  0  0  0  0
 12  5  2  0  0  0  0
 12  4  1  0  0  0  0
 13 21  1  0  0  0  0
 13 14  1  0  0  0  0
 13  3  1  0  0  0  0
 14 23  1  6  0  0  0
 14  1  1  0  0  0  0
 15 25  1  0  0  0  0
 15 14  1  0  0  0  0
 16  4  1  0  0  0  0
 20 10  1  0  0  0  0
 22 13  1  0  0  0  0
 24 15  1  0  0  0  0
M  END
$$$$
