CSD_code = WUFCUV | q = 0 | S = 0 | Stoichiometry = C7H6Cl2N4Pd | MND = 4
 OpenBabel04212202113D

 20 22  0  0  1  0  0  0  0  0999 V2000
    5.5953    4.4424    7.4899 Pd  0  0  0  0  0  0  0  0  0  0  0  0
    6.2943    4.5730    9.5664 Cl  0  0  0  0  0  0  0  0  0  0  0  0
    5.9221    2.2602    7.4659 Cl  0  0  0  0  0  0  0  0  0  0  0  0
    4.7604    6.7456    6.1041 N   0  0  0  0  0  0  0  0  0  0  0  0
    5.2323    6.4367    7.3274 N   0  0  1  0  0  0  0  0  0  0  0  0
    5.2966    7.5588    8.0126 C   0  0  0  0  0  3  0  0  0  0  0  0
    5.6486    7.5574    9.0273 H   0  0  0  0  0  0  0  0  0  0  0  0
    4.8540    8.6303    7.2138 C   0  0  0  0  0  0  0  0  0  0  0  0
    4.7935    9.6600    7.4983 H   0  0  0  0  0  0  0  0  0  0  0  0
    4.5198    8.0807    6.0053 C   0  0  0  0  0  0  0  0  0  0  0  0
    4.1399    8.5051    5.0993 H   0  0  0  0  0  0  0  0  0  0  0  0
    4.9231    4.5059    5.5808 N   0  0  0  0  0  0  0  0  0  0  0  0
    4.1248    6.0683    3.9793 N   0  0  0  0  0  0  0  0  0  0  0  0
    4.5889    5.7446    5.1685 C   0  0  1  0  0  3  0  0  0  0  0  0
    3.9708    5.0851    3.1047 C   0  0  0  0  0  0  0  0  0  0  0  0
    3.5888    5.3759    2.1372 H   0  0  0  0  0  0  0  0  0  0  0  0
    4.2839    3.7675    3.4228 C   0  0  0  0  0  0  0  0  0  0  0  0
    4.1576    2.9707    2.7104 H   0  0  0  0  0  0  0  0  0  0  0  0
    4.7665    3.5160    4.6955 C   0  0  0  0  0  0  0  0  0  0  0  0
    5.0411    2.5269    5.0468 H   0  0  0  0  0  0  0  0  0  0  0  0
  1  2  1  0  0  0  0
  3  1  1  0  0  0  0
  4  5  1  0  0  0  0
  5  1  1  0  0  0  0
  5  6  1  1  0  0  0
  6  7  1  0  0  0  0
  8  9  1  0  0  0  0
  8  6  1  0  0  0  0
 10  4  1  0  0  0  0
 10  8  2  0  0  0  0
 11 10  1  0  0  0  0
 12  1  1  0  0  0  0
 14 13  1  1  0  0  0
 14 12  1  0  0  0  0
 14  4  1  0  0  0  0
 15 17  1  0  0  0  0
 15 13  2  0  0  0  0
 16 15  1  0  0  0  0
 17 19  2  0  0  0  0
 18 17  1  0  0  0  0
 19 20  1  0  0  0  0
 19 12  1  0  0  0  0
M  END
$$$$
