CSD_code = WUFDIK | q = 0 | S = 0 | Stoichiometry = C9H10Cl2N4Pd | MND = 4
 OpenBabel04212202113D

 26 28  0  0  1  0  0  0  0  0999 V2000
    9.6357    1.3983   13.8579 Pd  0  0  0  0  0  0  0  0  0  0  0  0
    9.9367    2.2019   15.8791 Cl  0  0  0  0  0  0  0  0  0  0  0  0
    8.8539   -0.4721   14.7512 Cl  0  0  0  0  0  0  0  0  0  0  0  0
   10.2752    2.8204   11.4755 N   0  0  0  0  0  0  0  0  0  0  0  0
   10.3266    3.0430   12.8148 N   0  0  2  0  0  0  0  0  0  0  0  0
   10.8150    4.2574   12.9971 C   0  0  2  0  0  3  0  0  0  0  0  0
   11.0873    4.8359   11.7374 C   0  0  0  0  0  0  0  0  0  0  0  0
   11.4898    5.8126   11.5642 H   0  0  0  0  0  0  0  0  0  0  0  0
   10.7396    3.9117   10.7868 C   0  0  0  0  0  0  0  0  0  0  0  0
    9.4057    0.7427   11.9693 N   0  0  0  0  0  0  0  0  0  0  0  0
    9.7407    1.4025    9.7150 N   0  0  0  0  0  0  0  0  0  0  0  0
    9.7924    1.6161   11.0152 C   0  0  1  0  0  3  0  0  0  0  0  0
    9.2702    0.2337    9.3065 C   0  0  0  0  0  0  0  0  0  0  0  0
    9.2417    0.0911    8.2360 H   0  0  0  0  0  0  0  0  0  0  0  0
    8.8443   -0.7376   10.2040 C   0  0  0  0  0  0  0  0  0  0  0  0
    8.4619   -1.6871    9.8720 H   0  0  0  0  0  0  0  0  0  0  0  0
    8.9315   -0.4349   11.5519 C   0  0  0  0  0  0  0  0  0  0  0  0
    8.6270   -1.1215   12.3352 H   0  0  0  0  0  0  0  0  0  0  0  0
   11.0181    4.8479   14.3370 C   0  0  0  0  0  0  0  0  0  0  0  0
   11.7650    4.2748   14.8865 H   0  0  0  0  0  0  0  0  0  0  0  0
   10.0974    4.7834   14.9165 H   0  0  0  0  0  0  0  0  0  0  0  0
   11.3379    5.8822   14.2533 H   0  0  0  0  0  0  0  0  0  0  0  0
   10.8111    3.9818    9.3118 C   0  0  0  0  0  0  0  0  0  0  0  0
   11.2235    4.9421    9.0156 H   0  0  0  0  0  0  0  0  0  0  0  0
    9.8215    3.8612    8.8751 H   0  0  0  0  0  0  0  0  0  0  0  0
   11.4358    3.1814    8.9204 H   0  0  0  0  0  0  0  0  0  0  0  0
  1  3  1  0  0  0  0
  1  2  1  0  0  0  0
  5  4  1  1  0  0  0
  5  6  1  0  0  0  0
  5  1  1  0  0  0  0
  6 19  1  1  0  0  0
  7  6  1  0  0  0  0
  8  7  1  0  0  0  0
  9  4  1  0  0  0  0
  9  7  2  0  0  0  0
 10  1  1  0  0  0  0
 12 11  1  6  0  0  0
 12  4  1  0  0  0  0
 12 10  1  0  0  0  0
 13 11  2  0  0  0  0
 13 15  1  0  0  0  0
 14 13  1  0  0  0  0
 15 17  2  0  0  0  0
 16 15  1  0  0  0  0
 17 10  1  0  0  0  0
 17 18  1  0  0  0  0
 19 20  1  0  0  0  0
 19 21  1  0  0  0  0
 22 19  1  0  0  0  0
 23  9  1  0  0  0  0
 24 23  1  0  0  0  0
 25 23  1  0  0  0  0
 26 23  1  0  0  0  0
M  END
$$$$
