CSD_code = WUFFAE | q = 0 | S = 0 | Stoichiometry = C10H11Cl2N3Pt | MND = 4
 OpenBabel04212202113D

 27 29  0  0  1  0  0  0  0  0999 V2000
    0.0944    7.5407    3.5016 Pt  0  0  0  0  0  0  0  0  0  0  0  0
   -0.3333    5.3777    3.8057 Cl  0  0  0  0  0  0  0  0  0  0  0  0
    0.3604    7.0836    1.3270 Cl  0  0  0  0  0  0  0  0  0  0  0  0
    0.0928    9.4878    5.5795 N   0  0  0  0  0  0  0  0  0  0  0  0
   -0.1196    8.1509    5.4225 N   0  0  1  0  0  0  0  0  0  0  0  0
   -0.4594    7.6477    6.5984 C   0  0  2  0  0  3  0  0  0  0  0  0
   -0.4730    8.6886    7.5444 C   0  0  0  0  0  0  0  0  0  0  0  0
   -0.7133    8.5965    8.5836 H   0  0  0  0  0  0  0  0  0  0  0  0
   -0.1246    9.8412    6.8864 C   0  0  0  0  0  0  0  0  0  0  0  0
    0.4923    9.4924    3.3118 N   0  0  0  0  0  0  0  0  0  0  0  0
    0.4566   10.2146    4.4518 C   0  0  2  0  0  3  0  0  0  0  0  0
    0.7726   11.5698    4.4582 C   0  0  0  0  0  0  0  0  0  0  0  0
    0.7641   12.1393    5.3674 H   0  0  0  0  0  0  0  0  0  0  0  0
    1.1115   12.1878    3.2674 C   0  0  0  0  0  0  0  0  0  0  0  0
    1.3587   13.2376    3.2587 H   0  0  0  0  0  0  0  0  0  0  0  0
    1.1291   11.4391    2.0981 C   0  0  0  0  0  0  0  0  0  0  0  0
    1.3840   11.8856    1.1516 H   0  0  0  0  0  0  0  0  0  0  0  0
    0.8183   10.0976    2.1667 C   0  0  0  0  0  0  0  0  0  0  0  0
    0.8228    9.4570    1.2932 H   0  0  0  0  0  0  0  0  0  0  0  0
   -0.7642    6.2216    6.8356 C   0  0  0  0  0  0  0  0  0  0  0  0
    0.1053    5.6078    6.6058 H   0  0  0  0  0  0  0  0  0  0  0  0
   -1.5570    5.8889    6.1678 H   0  0  0  0  0  0  0  0  0  0  0  0
   -1.0592    6.0695    7.8699 H   0  0  0  0  0  0  0  0  0  0  0  0
   -0.0214   11.1997    7.4756 C   0  0  0  0  0  0  0  0  0  0  0  0
   -0.3135   11.1385    8.5211 H   0  0  0  0  0  0  0  0  0  0  0  0
   -0.6880   11.9025    6.9768 H   0  0  0  0  0  0  0  0  0  0  0  0
    0.9997   11.5784    7.4334 H   0  0  0  0  0  0  0  0  0  0  0  0
  1  2  1  0  0  0  0
  1  5  1  0  0  0  0
  3  1  1  0  0  0  0
  4  9  1  0  0  0  0
  5  4  1  6  0  0  0
  5  6  1  0  0  0  0
  6 20  1  1  0  0  0
  6  7  1  0  0  0  0
  7  8  1  0  0  0  0
  9 24  1  0  0  0  0
  9  7  2  0  0  0  0
 10  1  1  0  0  0  0
 10 11  1  0  0  0  0
 11 12  1  1  0  0  0
 11  4  1  0  0  0  0
 12 13  1  0  0  0  0
 14 12  2  0  0  0  0
 15 14  1  0  0  0  0
 16 18  2  0  0  0  0
 16 14  1  0  0  0  0
 17 16  1  0  0  0  0
 18 10  1  0  0  0  0
 19 18  1  0  0  0  0
 20 23  1  0  0  0  0
 21 20  1  0  0  0  0
 22 20  1  0  0  0  0
 24 25  1  0  0  0  0
 26 24  1  0  0  0  0
 27 24  1  0  0  0  0
M  END
$$$$
