CSD_code = WUFQUK | q = 0 | S = 0 | Stoichiometry = C12H16Cl2N2Pd | MND = 4
 OpenBabel04212202113D

 33 35  0  0  0  0  0  0  0  0999 V2000
    2.4948    1.2841    2.5736 Pd  0  0  2  0  0  0  0  0  0  0  0  0
   -1.8257    2.4444    6.2472 Cl  0  0  0  0  0  0  0  0  0  0  0  0
    1.3477    2.9905    1.7562 Cl  0  0  0  0  0  0  0  0  0  0  0  0
    3.4421   -0.2839    3.4381 N   0  0  0  0  0  0  0  0  0  0  0  0
    3.8887    1.3293    0.7922 N   0  0  0  0  0  4  0  0  0  0  0  0
    1.3121    1.1117    4.1774 C   0  0  0  0  0  0  0  0  0  0  0  0
    0.2086    1.8501    4.5828 C   0  0  0  0  0  0  0  0  0  0  0  0
   -0.1460    2.6892    3.9994 H   0  0  0  0  0  0  0  0  0  0  0  0
   -0.4564    1.5131    5.7558 C   0  0  0  0  0  0  0  0  0  0  0  0
   -0.0538    0.4458    6.5499 C   0  0  0  0  0  0  0  0  0  0  0  0
   -0.5946    0.2114    7.4533 H   0  0  0  0  0  0  0  0  0  0  0  0
    1.0400   -0.2985    6.1638 C   0  0  0  0  0  0  0  0  0  0  0  0
    1.3705   -1.1318    6.7677 H   0  0  0  0  0  0  0  0  0  0  0  0
    1.7236    0.0265    4.9903 C   0  0  0  0  0  0  0  0  0  0  0  0
    2.8755   -0.6872    4.5189 C   0  0  0  0  0  0  0  0  0  0  0  0
    3.2607   -1.5475    5.0714 H   0  0  0  0  0  0  0  0  0  0  0  0
    4.6109   -0.9631    2.9460 C   0  0  0  0  0  0  0  0  0  0  0  0
    5.5030   -0.4397    3.3178 H   0  0  0  0  0  0  0  0  0  0  0  0
    4.6423   -1.9930    3.3317 H   0  0  0  0  0  0  0  0  0  0  0  0
    4.6439   -0.9872    1.4153 C   0  0  0  0  0  0  0  0  0  0  0  0
    3.6713   -1.3268    1.0487 H   0  0  0  0  0  0  0  0  0  0  0  0
    5.3951   -1.7137    1.0999 H   0  0  0  0  0  0  0  0  0  0  0  0
    5.0017    0.3727    0.8095 C   0  0  0  0  0  0  0  0  0  0  0  0
    5.3701    0.2242   -0.2189 H   0  0  0  0  0  0  0  0  0  0  0  0
    5.8198    0.8035    1.3960 H   0  0  0  0  0  0  0  0  0  0  0  0
    4.4235    2.6868    0.6508 C   0  0  0  0  0  0  0  0  0  0  0  0
    5.0310    2.9377    1.5240 H   0  0  0  0  0  0  0  0  0  0  0  0
    3.5957    3.3947    0.5914 H   0  0  0  0  0  0  0  0  0  0  0  0
    5.0397    2.7762   -0.2548 H   0  0  0  0  0  0  0  0  0  0  0  0
    3.0010    1.0456   -0.3408 C   0  0  0  0  0  0  0  0  0  0  0  0
    2.5416    0.0597   -0.2288 H   0  0  0  0  0  0  0  0  0  0  0  0
    3.5556    1.0736   -1.2900 H   0  0  0  0  0  0  0  0  0  0  0  0
    2.2061    1.7932   -0.3702 H   0  0  0  0  0  0  0  0  0  0  0  0
  1  3  1  1  0  0  0
  1  4  1  0  0  0  0
  1  6  2  0  0  0  0
  4 15  1  0  0  0  0
  5 23  1  0  0  0  0
  5  1  1  0  0  0  0
  6  7  1  0  0  0  0
  6 14  1  0  0  0  0
  7  9  2  0  0  0  0
  8  7  1  0  0  0  0
  9  2  1  0  0  0  0
  9 10  1  0  0  0  0
 10 11  1  0  0  0  0
 12 10  2  0  0  0  0
 12 13  1  0  0  0  0
 14 12  1  0  0  0  0
 15 14  2  0  0  0  0
 15 16  1  0  0  0  0
 17 18  1  0  0  0  0
 17 19  1  0  0  0  0
 17  4  1  0  0  0  0
 20 17  1  0  0  0  0
 21 20  1  0  0  0  0
 22 20  1  0  0  0  0
 23 25  1  0  0  0  0
 23 20  1  0  0  0  0
 24 23  1  0  0  0  0
 26  5  1  0  0  0  0
 26 27  1  0  0  0  0
 28 26  1  0  0  0  0
 29 26  1  0  0  0  0
 30 31  1  0  0  0  0
 30  5  1  0  0  0  0
 32 30  1  0  0  0  0
 33 30  1  0  0  0  0
M  END
$$$$
