CSD_code = WUGJEN | q = 1 | S = 0 | Stoichiometry = C12H13BCl2N8Rh(1+) | MND = 6
 OpenBabel04212202113D

 37 42  0  0  1  0  0  0  0  0999 V2000
   -1.7864    9.3951   12.3738 Rh  0  0  0  0  0  0  0  0  0  0  0  0
   -2.7385    7.5713   13.3423 Cl  0  0  0  0  0  0  0  0  0  0  0  0
   -2.0132    8.1391   10.2854 Cl  0  0  0  0  0  0  0  0  0  0  0  0
   -3.4526   10.4354   12.5376 N   0  0  0  0  0  0  0  0  0  0  0  0
   -3.4267   11.7129   12.9336 N   0  0  2  0  0  0  0  0  0  0  0  0
   -0.1687    8.2142   12.0186 N   0  0  0  0  0  0  0  0  0  0  0  0
   -0.5470    7.5680   10.9190 N   0  0  0  0  0  0  0  0  0  0  0  0
   -1.2916   10.1448   14.0920 N   0  0  0  0  0  0  0  0  0  0  0  0
   -1.4579   11.4429   14.3520 N   0  0  1  0  0  0  0  0  0  0  0  0
   -0.9502   11.0673   11.5036 N   0  0  1  0  0  0  0  0  0  0  0  0
   -1.1960   12.2631   12.0493 N   0  0  0  0  0  0  0  0  0  0  0  0
   -2.0878   12.3722   13.2978 B   0  0  1  0  0  0  0  0  0  0  0  0
   -2.2074   13.4768   13.6752 H   0  0  0  0  0  0  0  0  0  0  0  0
   -4.6750   12.1916   12.9494 C   0  0  0  0  0  3  0  0  0  0  0  0
   -4.8798   13.2017   13.2392 H   0  0  0  0  0  0  0  0  0  0  0  0
   -5.5344   11.1867   12.5500 C   0  0  0  0  0  0  0  0  0  0  0  0
   -6.5986   11.2344   12.4555 H   0  0  0  0  0  0  0  0  0  0  0  0
   -4.7152   10.0908   12.3011 C   0  0  0  0  0  0  0  0  0  0  0  0
   -4.9853    9.0994   11.9882 H   0  0  0  0  0  0  0  0  0  0  0  0
    0.3071    6.5960   10.5739 C   0  0  0  0  0  3  0  0  0  0  0  0
    0.1610    5.9687    9.7189 H   0  0  0  0  0  0  0  0  0  0  0  0
    1.3081    6.6292   11.5228 C   0  0  0  0  0  0  0  0  0  0  0  0
    2.1690    5.9952   11.5702 H   0  0  0  0  0  0  0  0  0  0  0  0
    0.9657    7.6547   12.4097 C   0  0  0  0  0  0  0  0  0  0  0  0
    1.4910    7.9955   13.2807 H   0  0  0  0  0  0  0  0  0  0  0  0
   -1.0397   11.6907   15.5972 C   0  0  0  0  0  3  0  0  0  0  0  0
   -1.0854   12.6762   16.0133 H   0  0  0  0  0  0  0  0  0  0  0  0
   -0.5902   10.5079   16.1530 C   0  0  0  0  0  0  0  0  0  0  0  0
   -0.1941   10.3554   17.1348 H   0  0  0  0  0  0  0  0  0  0  0  0
   -0.7707    9.5510   15.1605 C   0  0  0  0  0  0  0  0  0  0  0  0
   -0.5720    8.4964   15.1847 H   0  0  0  0  0  0  0  0  0  0  0  0
   -0.1570   11.2476   10.4502 C   0  0  0  0  0  3  0  0  0  0  0  0
    0.1846   10.4276    9.8466 H   0  0  0  0  0  0  0  0  0  0  0  0
    0.1151   12.6036   10.3092 C   0  0  0  0  0  0  0  0  0  0  0  0
    0.7195   13.0706    9.5608 H   0  0  0  0  0  0  0  0  0  0  0  0
   -0.5659   13.2098   11.3476 C   0  0  0  0  0  0  0  0  0  0  0  0
   -0.6349   14.2430   11.6181 H   0  0  0  0  0  0  0  0  0  0  0  0
  1  4  1  0  0  0  0
  1  2  1  0  0  0  0
  1  8  1  0  0  0  0
  3  7  1  0  0  0  0
  4  5  1  0  0  0  0
  5 14  1  1  0  0  0
  5 12  1  0  0  0  0
  6  1  1  0  0  0  0
  6 24  1  0  0  0  0
  7  6  1  0  0  0  0
  8  9  1  0  0  0  0
  8 30  1  0  0  0  0
  9 26  1  1  0  0  0
 10 32  1  1  0  0  0
 10 11  1  0  0  0  0
 10  1  1  0  0  0  0
 11 12  1  0  0  0  0
 12 13  1  1  0  0  0
 12  9  1  0  0  0  0
 14 15  1  0  0  0  0
 16 14  1  0  0  0  0
 17 16  1  0  0  0  0
 18  4  1  0  0  0  0
 18 16  2  0  0  0  0
 19 18  1  0  0  0  0
 20  7  1  0  0  0  0
 20 22  1  0  0  0  0
 21 20  1  0  0  0  0
 22 23  1  0  0  0  0
 22 24  2  0  0  0  0
 24 25  1  0  0  0  0
 26 27  1  0  0  0  0
 26 28  1  0  0  0  0
 28 29  1  0  0  0  0
 30 31  1  0  0  0  0
 30 28  2  0  0  0  0
 33 32  1  0  0  0  0
 34 32  1  0  0  0  0
 34 36  2  0  0  0  0
 35 34  1  0  0  0  0
 36 37  1  0  0  0  0
 36 11  1  0  0  0  0
M  END
$$$$
