CSD_code = WUGQEU | q = 1 | S = 0 | Stoichiometry = C21H36ClN6Zn(1+) | MND = 4
 OpenBabel04212202113D

 65 67  0  0  1  0  0  0  0  0999 V2000
    2.5799    6.2366    5.9925 Zn  0  0  2  0  0  0  0  0  0  0  0  0
    1.6459    4.6824    7.0501 Cl  0  0  0  0  0  0  0  0  0  0  0  0
    1.2203    7.4700    5.0609 N   0  0  0  0  0  0  0  0  0  0  0  0
    0.9953    8.7563    5.3735 N   0  0  0  0  0  0  0  0  0  0  0  0
    1.6607    9.2733    5.9273 H   0  0  0  0  0  0  0  0  0  0  0  0
   -0.1673    9.2057    4.8749 C   0  0  1  0  0  3  0  0  0  0  0  0
   -0.7273    8.1346    4.1928 C   0  0  0  0  0  0  0  0  0  0  0  0
   -1.6571    8.1125    3.6653 H   0  0  0  0  0  0  0  0  0  0  0  0
    0.1682    7.0840    4.3437 C   0  0  0  0  0  0  0  0  0  0  0  0
    0.0904    6.0774    3.9796 H   0  0  0  0  0  0  0  0  0  0  0  0
   -0.6857   10.5995    5.0671 C   0  0  0  0  0  0  0  0  0  0  0  0
    0.2695   11.4302    5.9282 C   0  0  0  0  0  0  0  0  0  0  0  0
    0.3870   10.9947    6.9187 H   0  0  0  0  0  0  0  0  0  0  0  0
   -0.1383   12.4295    6.0541 H   0  0  0  0  0  0  0  0  0  0  0  0
    1.2452   11.5291    5.4556 H   0  0  0  0  0  0  0  0  0  0  0  0
   -0.8389   11.2563    3.6884 C   0  0  0  0  0  0  0  0  0  0  0  0
    0.1203   11.3113    3.1782 H   0  0  0  0  0  0  0  0  0  0  0  0
   -1.2251   12.2651    3.8030 H   0  0  0  0  0  0  0  0  0  0  0  0
   -1.5294   10.6939    3.0667 H   0  0  0  0  0  0  0  0  0  0  0  0
   -2.0545   10.5134    5.7558 C   0  0  0  0  0  0  0  0  0  0  0  0
   -2.7586    9.9512    5.1494 H   0  0  0  0  0  0  0  0  0  0  0  0
   -2.4537   11.5124    5.9071 H   0  0  0  0  0  0  0  0  0  0  0  0
   -1.9684   10.0263    6.7242 H   0  0  0  0  0  0  0  0  0  0  0  0
    3.7781    5.4729    4.5023 N   0  0  0  0  0  0  0  0  0  0  0  0
    3.4218    5.4715    3.2080 N   0  0  0  0  0  0  0  0  0  0  0  0
    2.6966    6.0878    2.8749 H   0  0  0  0  0  0  0  0  0  0  0  0
    4.1212    4.5816    2.4868 C   0  0  1  0  0  3  0  0  0  0  0  0
    4.9901    3.9695    3.3790 C   0  0  0  0  0  0  0  0  0  0  0  0
    5.7056    3.2029    3.1700 H   0  0  0  0  0  0  0  0  0  0  0  0
    4.7327    4.5529    4.6125 C   0  0  0  0  0  0  0  0  0  0  0  0
    5.1841    4.3369    5.5617 H   0  0  0  0  0  0  0  0  0  0  0  0
    3.9331    4.3539    1.0168 C   0  0  0  0  0  0  0  0  0  0  0  0
    3.5590    2.8812    0.8016 C   0  0  0  0  0  0  0  0  0  0  0  0
    4.3454    2.2250    1.1629 H   0  0  0  0  0  0  0  0  0  0  0  0
    3.4124    2.6897   -0.2577 H   0  0  0  0  0  0  0  0  0  0  0  0
    2.6386    2.6371    1.3268 H   0  0  0  0  0  0  0  0  0  0  0  0
    5.2558    4.6635    0.3025 C   0  0  0  0  0  0  0  0  0  0  0  0
    5.5425    5.7017    0.4541 H   0  0  0  0  0  0  0  0  0  0  0  0
    5.1469    4.4893   -0.7642 H   0  0  0  0  0  0  0  0  0  0  0  0
    6.0537    4.0269    0.6736 H   0  0  0  0  0  0  0  0  0  0  0  0
    2.8251    5.2504    0.4573 C   0  0  0  0  0  0  0  0  0  0  0  0
    1.8701    5.0411    0.9357 H   0  0  0  0  0  0  0  0  0  0  0  0
    2.7103    5.0576   -0.6058 H   0  0  0  0  0  0  0  0  0  0  0  0
    3.0696    6.3044    0.5772 H   0  0  0  0  0  0  0  0  0  0  0  0
    3.7430    7.4034    7.2227 N   0  0  0  0  0  0  0  0  0  0  0  0
    5.0726    7.2604    7.3419 N   0  0  0  0  0  0  0  0  0  0  0  0
    5.6033    6.7846    6.6287 H   0  0  0  0  0  0  0  0  0  0  0  0
    5.5448    7.8050    8.4739 C   0  0  1  0  0  3  0  0  0  0  0  0
    4.4424    8.3379    9.1274 C   0  0  0  0  0  0  0  0  0  0  0  0
    4.4262    8.8514   10.0651 H   0  0  0  0  0  0  0  0  0  0  0  0
    3.3527    8.0570    8.3141 C   0  0  0  0  0  0  0  0  0  0  0  0
    2.3175    8.2882    8.4768 H   0  0  0  0  0  0  0  0  0  0  0  0
    6.9881    7.7890    8.8797 C   0  0  0  0  0  0  0  0  0  0  0  0
    7.0987    7.0685   10.2303 C   0  0  0  0  0  0  0  0  0  0  0  0
    6.5233    7.5849   10.9930 H   0  0  0  0  0  0  0  0  0  0  0  0
    8.1375    7.0373   10.5468 H   0  0  0  0  0  0  0  0  0  0  0  0
    6.7309    6.0481   10.1535 H   0  0  0  0  0  0  0  0  0  0  0  0
    7.4711    9.2386    9.0231 C   0  0  0  0  0  0  0  0  0  0  0  0
    7.3889    9.7682    8.0766 H   0  0  0  0  0  0  0  0  0  0  0  0
    8.5120    9.2499    9.3337 H   0  0  0  0  0  0  0  0  0  0  0  0
    6.8858    9.7695    9.7683 H   0  0  0  0  0  0  0  0  0  0  0  0
    7.8456    7.0622    7.8402 C   0  0  0  0  0  0  0  0  0  0  0  0
    7.5377    6.0238    7.7324 H   0  0  0  0  0  0  0  0  0  0  0  0
    8.8826    7.0659    8.1649 H   0  0  0  0  0  0  0  0  0  0  0  0
    7.8009    7.5584    6.8723 H   0  0  0  0  0  0  0  0  0  0  0  0
  1  2  1  1  0  0  0
  1 45  1  0  0  0  0
  3  4  1  0  0  0  0
  3  1  1  0  0  0  0
  4  5  1  0  0  0  0
  6 11  1  1  0  0  0
  6  4  1  0  0  0  0
  7  9  2  0  0  0  0
  7  6  1  0  0  0  0
  8  7  1  0  0  0  0
  9  3  1  0  0  0  0
 10  9  1  0  0  0  0
 11 20  1  0  0  0  0
 11 12  1  0  0  0  0
 12 14  1  0  0  0  0
 12 13  1  0  0  0  0
 15 12  1  0  0  0  0
 16 18  1  0  0  0  0
 16 11  1  0  0  0  0
 17 16  1  0  0  0  0
 19 16  1  0  0  0  0
 20 22  1  0  0  0  0
 20 23  1  0  0  0  0
 21 20  1  0  0  0  0
 24 30  1  0  0  0  0
 24  1  1  0  0  0  0
 25 24  1  0  0  0  0
 26 25  1  0  0  0  0
 27 32  1  1  0  0  0
 27 25  1  0  0  0  0
 27 28  1  0  0  0  0
 28 30  2  0  0  0  0
 29 28  1  0  0  0  0
 30 31  1  0  0  0  0
 33 32  1  0  0  0  0
 33 34  1  0  0  0  0
 33 36  1  0  0  0  0
 35 33  1  0  0  0  0
 37 38  1  0  0  0  0
 37 40  1  0  0  0  0
 37 32  1  0  0  0  0
 39 37  1  0  0  0  0
 41 44  1  0  0  0  0
 41 42  1  0  0  0  0
 41 32  1  0  0  0  0
 43 41  1  0  0  0  0
 45 46  1  0  0  0  0
 45 51  1  0  0  0  0
 46 48  1  0  0  0  0
 47 46  1  0  0  0  0
 48 53  1  1  0  0  0
 48 49  1  0  0  0  0
 49 50  1  0  0  0  0
 51 52  1  0  0  0  0
 51 49  2  0  0  0  0
 53 58  1  0  0  0  0
 53 54  1  0  0  0  0
 54 56  1  0  0  0  0
 54 55  1  0  0  0  0
 57 54  1  0  0  0  0
 58 60  1  0  0  0  0
 58 61  1  0  0  0  0
 59 58  1  0  0  0  0
 62 64  1  0  0  0  0
 62 53  1  0  0  0  0
 63 62  1  0  0  0  0
 65 62  1  0  0  0  0
M  END
$$$$
