CSD_code = WUGRIA | q = 0 | S = 0 | Stoichiometry = C28H20Cl2N2O2S2Ti | MND = 6
 OpenBabel04212202113D

 57 64  0  0  1  0  0  0  0  0999 V2000
    2.5053   11.0871    7.0119 Ti  0  0  0  0  0  0  0  0  0  0  0  0
    0.7201   11.8016    5.9128 Cl  0  0  0  0  0  0  0  0  0  0  0  0
    2.8055   12.8857    8.2517 Cl  0  0  0  0  0  0  0  0  0  0  0  0
    2.3334    9.2441    5.7180 N   0  0  0  0  0  0  0  0  0  0  0  0
    1.2051   10.1551    8.4788 N   0  0  0  0  0  0  0  0  0  0  0  0
    3.5864   11.5563    5.7086 O   0  0  0  0  0  0  0  0  0  0  0  0
    3.7018   10.1042    7.9077 O   0  0  0  0  0  0  0  0  0  0  0  0
    3.4791    7.0252    5.0500 S   0  0  0  0  0  0  0  0  0  0  0  0
   -0.0204    8.1476    9.5589 S   0  0  0  0  0  0  0  0  0  0  0  0
    4.6481   10.9446    5.2703 C   0  0  0  0  0  0  0  0  0  0  0  0
    5.8279   11.6895    5.0270 C   0  0  0  0  0  0  0  0  0  0  0  0
    6.9506   11.0484    4.5505 C   0  0  0  0  0  0  0  0  0  0  0  0
    7.8487   11.6213    4.3706 H   0  0  0  0  0  0  0  0  0  0  0  0
    6.9490    9.6768    4.2984 C   0  0  0  0  0  0  0  0  0  0  0  0
    7.8382    9.1999    3.9164 H   0  0  0  0  0  0  0  0  0  0  0  0
    5.8195    8.9354    4.5434 C   0  0  0  0  0  0  0  0  0  0  0  0
    5.8115    7.8704    4.3581 H   0  0  0  0  0  0  0  0  0  0  0  0
    4.6551    9.5418    5.0385 C   0  0  0  0  0  0  0  0  0  0  0  0
    3.4754    8.7690    5.3004 C   0  0  1  0  0  3  0  0  0  0  0  0
    1.3606    8.2837    5.8064 C   0  0  0  0  0  0  0  0  0  0  0  0
    0.0159    8.4935    6.1187 C   0  0  0  0  0  0  0  0  0  0  0  0
   -0.3451    9.5032    6.2636 H   0  0  0  0  0  0  0  0  0  0  0  0
   -0.8231    7.4015    6.1936 C   0  0  0  0  0  0  0  0  0  0  0  0
   -1.8639    7.5509    6.4372 H   0  0  0  0  0  0  0  0  0  0  0  0
   -0.3553    6.1101    5.9555 C   0  0  0  0  0  0  0  0  0  0  0  0
   -1.0340    5.2748    6.0317 H   0  0  0  0  0  0  0  0  0  0  0  0
    0.9598    5.8868    5.5981 C   0  0  0  0  0  0  0  0  0  0  0  0
    1.3244    4.8956    5.3815 H   0  0  0  0  0  0  0  0  0  0  0  0
    1.8066    6.9790    5.5132 C   0  0  0  0  0  0  0  0  0  0  0  0
    5.7840   13.1552    5.3271 C   0  0  0  0  0  0  0  0  0  0  0  0
    5.1242   13.6598    4.6201 H   0  0  0  0  0  0  0  0  0  0  0  0
    6.7742   13.5986    5.2692 H   0  0  0  0  0  0  0  0  0  0  0  0
    5.3666   13.3145    6.3246 H   0  0  0  0  0  0  0  0  0  0  0  0
    3.7642    8.8483    8.2524 C   0  0  0  0  0  0  0  0  0  0  0  0
    4.9968    8.1532    8.2567 C   0  0  0  0  0  0  0  0  0  0  0  0
    5.0068    6.7985    8.5223 C   0  0  0  0  0  0  0  0  0  0  0  0
    5.9495    6.2716    8.4977 H   0  0  0  0  0  0  0  0  0  0  0  0
    3.8380    6.1008    8.8140 C   0  0  0  0  0  0  0  0  0  0  0  0
    3.8760    5.0394    9.0013 H   0  0  0  0  0  0  0  0  0  0  0  0
    2.6412    6.7732    8.8852 C   0  0  0  0  0  0  0  0  0  0  0  0
    1.7293    6.2520    9.1397 H   0  0  0  0  0  0  0  0  0  0  0  0
    2.5828    8.1462    8.6213 C   0  0  0  0  0  0  0  0  0  0  0  0
    1.3663    8.8929    8.7845 C   0  0  2  0  0  3  0  0  0  0  0  0
   -0.0137   10.6421    8.8913 C   0  0  0  0  0  0  0  0  0  0  0  0
   -0.4566   11.9638    8.8089 C   0  0  0  0  0  0  0  0  0  0  0  0
    0.1900   12.7274    8.4004 H   0  0  0  0  0  0  0  0  0  0  0  0
   -1.7191   12.2670    9.2735 C   0  0  0  0  0  0  0  0  0  0  0  0
   -2.0716   13.2847    9.2123 H   0  0  0  0  0  0  0  0  0  0  0  0
   -2.5473   11.2904    9.8243 C   0  0  0  0  0  0  0  0  0  0  0  0
   -3.5322   11.5591   10.1743 H   0  0  0  0  0  0  0  0  0  0  0  0
   -2.1162    9.9847    9.9468 C   0  0  0  0  0  0  0  0  0  0  0  0
   -2.7361    9.2238   10.3935 H   0  0  0  0  0  0  0  0  0  0  0  0
   -0.8470    9.6748    9.4874 C   0  0  0  0  0  0  0  0  0  0  0  0
    6.2628    8.9035    7.9702 C   0  0  0  0  0  0  0  0  0  0  0  0
    6.7878    8.4703    7.1204 H   0  0  0  0  0  0  0  0  0  0  0  0
    6.9239    8.8618    8.8350 H   0  0  0  0  0  0  0  0  0  0  0  0
    6.0363    9.9459    7.7513 H   0  0  0  0  0  0  0  0  0  0  0  0
  1  7  1  0  0  0  0
  1  3  1  0  0  0  0
  1  5  1  0  0  0  0
  2  1  1  0  0  0  0
  4 20  1  0  0  0  0
  4  1  1  0  0  0  0
  5 43  1  0  0  0  0
  5 44  1  0  0  0  0
  6  1  1  0  0  0  0
  7 34  1  0  0  0  0
  8 19  1  0  0  0  0
  8 29  1  0  0  0  0
 10  6  1  0  0  0  0
 11 10  2  0  0  0  0
 11 30  1  0  0  0  0
 12 11  1  0  0  0  0
 13 12  1  0  0  0  0
 14 16  1  0  0  0  0
 14 12  2  0  0  0  0
 15 14  1  0  0  0  0
 16 18  2  0  0  0  0
 17 16  1  0  0  0  0
 18 10  1  0  0  0  0
 19 18  1  6  0  0  0
 19  4  1  0  0  0  0
 20 21  1  0  0  0  0
 21 23  2  0  0  0  0
 21 22  1  0  0  0  0
 23 24  1  0  0  0  0
 25 26  1  0  0  0  0
 25 23  1  0  0  0  0
 27 25  2  0  0  0  0
 28 27  1  0  0  0  0
 29 27  1  0  0  0  0
 29 20  2  0  0  0  0
 30 33  1  0  0  0  0
 31 30  1  0  0  0  0
 32 30  1  0  0  0  0
 34 35  2  0  0  0  0
 34 42  1  0  0  0  0
 35 36  1  0  0  0  0
 36 38  2  0  0  0  0
 37 36  1  0  0  0  0
 38 40  1  0  0  0  0
 38 39  1  0  0  0  0
 40 41  1  0  0  0  0
 42 40  2  0  0  0  0
 43 42  1  1  0  0  0
 43  9  1  0  0  0  0
 44 53  1  0  0  0  0
 45 44  2  0  0  0  0
 45 47  1  0  0  0  0
 46 45  1  0  0  0  0
 47 49  2  0  0  0  0
 48 47  1  0  0  0  0
 49 51  1  0  0  0  0
 49 50  1  0  0  0  0
 51 52  1  0  0  0  0
 53  9  1  0  0  0  0
 53 51  2  0  0  0  0
 54 35  1  0  0  0  0
 54 56  1  0  0  0  0
 55 54  1  0  0  0  0
 57 54  1  0  0  0  0
M  END
$$$$
