CSD_code = WUGRUM | q = 0 | S = 0 | Stoichiometry = C28H20Cl2N2O2S2Zr | MND = 6
 OpenBabel04212202113D

 57 64  0  0  1  0  0  0  0  0999 V2000
   14.0365   24.4686    1.9637 Zr  0  0  0  0  0  0  0  0  0  0  0  0
   15.2896   26.1733    1.1439 N   0  0  0  0  0  0  0  0  0  0  0  0
   12.5740   26.0282    2.7253 N   0  0  0  0  0  0  0  0  0  0  0  0
   15.1828   24.9166    3.4526 O   0  0  0  0  0  0  0  0  0  0  0  0
   12.8472   24.7138    0.4613 O   0  0  0  0  0  0  0  0  0  0  0  0
   15.5167   28.7422    0.9336 S   0  0  0  0  0  0  0  0  0  0  0  0
   12.0139   28.5518    2.8429 S   0  0  0  0  0  0  0  0  0  0  0  0
   15.4664   22.8979    0.9903 Cl  0  0  0  0  0  0  0  0  0  0  0  0
   12.8143   22.7656    2.9968 Cl  0  0  0  0  0  0  0  0  0  0  0  0
   15.3116   26.0725    4.0410 C   0  0  0  0  0  0  0  0  0  0  0  0
   15.4438   26.1382    5.4535 C   0  0  0  0  0  0  0  0  0  0  0  0
   15.4826   27.3630    6.0806 C   0  0  0  0  0  0  0  0  0  0  0  0
   15.5580   27.3977    7.1576 H   0  0  0  0  0  0  0  0  0  0  0  0
   15.4254   28.5561    5.3598 C   0  0  0  0  0  0  0  0  0  0  0  0
   15.4466   29.5010    5.8789 H   0  0  0  0  0  0  0  0  0  0  0  0
   15.3632   28.5208    3.9907 C   0  0  0  0  0  0  0  0  0  0  0  0
   15.3483   29.4370    3.4171 H   0  0  0  0  0  0  0  0  0  0  0  0
   15.3167   27.2960    3.3044 C   0  0  0  0  0  0  0  0  0  0  0  0
   15.3318   27.2624    1.8715 C   0  0  2  0  0  3  0  0  0  0  0  0
   15.4550   26.4246   -0.1958 C   0  0  0  0  0  0  0  0  0  0  0  0
   15.5424   25.4624   -1.2027 C   0  0  0  0  0  0  0  0  0  0  0  0
   15.5041   24.4123   -0.9375 H   0  0  0  0  0  0  0  0  0  0  0  0
   15.7081   25.8905   -2.5035 C   0  0  0  0  0  0  0  0  0  0  0  0
   15.7869   25.1607   -3.2940 H   0  0  0  0  0  0  0  0  0  0  0  0
   15.7823   27.2468   -2.8173 C   0  0  0  0  0  0  0  0  0  0  0  0
   15.9039   27.5506   -3.8455 H   0  0  0  0  0  0  0  0  0  0  0  0
   15.7226   28.2110   -1.8302 C   0  0  0  0  0  0  0  0  0  0  0  0
   15.8002   29.2608   -2.0623 H   0  0  0  0  0  0  0  0  0  0  0  0
   15.5722   27.7901   -0.5199 C   0  0  0  0  0  0  0  0  0  0  0  0
   15.5346   24.8501    6.2130 C   0  0  0  0  0  0  0  0  0  0  0  0
   15.0176   24.0592    5.6697 H   0  0  0  0  0  0  0  0  0  0  0  0
   15.1124   24.9548    7.2088 H   0  0  0  0  0  0  0  0  0  0  0  0
   16.5798   24.5553    6.3107 H   0  0  0  0  0  0  0  0  0  0  0  0
   12.5710   25.8217   -0.1673 C   0  0  0  0  0  0  0  0  0  0  0  0
   12.4346   25.8197   -1.5810 C   0  0  0  0  0  0  0  0  0  0  0  0
   12.2372   27.0059   -2.2509 C   0  0  0  0  0  0  0  0  0  0  0  0
   12.1598   26.9923   -3.3282 H   0  0  0  0  0  0  0  0  0  0  0  0
   12.1364   28.2210   -1.5729 C   0  0  0  0  0  0  0  0  0  0  0  0
   11.9925   29.1360   -2.1249 H   0  0  0  0  0  0  0  0  0  0  0  0
   12.2004   28.2426   -0.2035 C   0  0  0  0  0  0  0  0  0  0  0  0
   12.0944   29.1725    0.3372 H   0  0  0  0  0  0  0  0  0  0  0  0
   12.4052   27.0594    0.5255 C   0  0  0  0  0  0  0  0  0  0  0  0
   12.3918   27.0753    1.9587 C   0  0  2  0  0  3  0  0  0  0  0  0
   12.3747   26.3045    4.0554 C   0  0  0  0  0  0  0  0  0  0  0  0
   12.4122   25.3767    5.0971 C   0  0  0  0  0  0  0  0  0  0  0  0
   12.5884   24.3316    4.8705 H   0  0  0  0  0  0  0  0  0  0  0  0
   12.1894   25.8267    6.3818 C   0  0  0  0  0  0  0  0  0  0  0  0
   12.2056   25.1222    7.1987 H   0  0  0  0  0  0  0  0  0  0  0  0
   11.9376   27.1721    6.6462 C   0  0  0  0  0  0  0  0  0  0  0  0
   11.7752   27.4948    7.6629 H   0  0  0  0  0  0  0  0  0  0  0  0
   11.8729   28.0991    5.6244 C   0  0  0  0  0  0  0  0  0  0  0  0
   11.6583   29.1376    5.8184 H   0  0  0  0  0  0  0  0  0  0  0  0
   12.0797   27.6540    4.3300 C   0  0  0  0  0  0  0  0  0  0  0  0
   12.5139   24.5047   -2.2942 C   0  0  0  0  0  0  0  0  0  0  0  0
   12.9112   24.6298   -3.2980 H   0  0  0  0  0  0  0  0  0  0  0  0
   11.5176   24.0679   -2.3694 H   0  0  0  0  0  0  0  0  0  0  0  0
   13.1368   23.8107   -1.7299 H   0  0  0  0  0  0  0  0  0  0  0  0
  1  3  1  0  0  0  0
  1  9  1  0  0  0  0
  1  4  1  0  0  0  0
  2 19  1  0  0  0  0
  2  1  1  0  0  0  0
  3 44  1  0  0  0  0
  4 10  1  0  0  0  0
  5  1  1  0  0  0  0
  7 53  1  0  0  0  0
  8  1  1  0  0  0  0
 10 11  1  0  0  0  0
 11 12  2  0  0  0  0
 11 30  1  0  0  0  0
 12 13  1  0  0  0  0
 14 15  1  0  0  0  0
 14 12  1  0  0  0  0
 16 14  2  0  0  0  0
 17 16  1  0  0  0  0
 18 16  1  0  0  0  0
 18 10  2  0  0  0  0
 19  6  1  1  0  0  0
 19 18  1  0  0  0  0
 20  2  1  0  0  0  0
 21 22  1  0  0  0  0
 21 20  2  0  0  0  0
 23 21  1  0  0  0  0
 24 23  1  0  0  0  0
 25 23  2  0  0  0  0
 25 27  1  0  0  0  0
 26 25  1  0  0  0  0
 27 29  2  0  0  0  0
 28 27  1  0  0  0  0
 29 20  1  0  0  0  0
 29  6  1  0  0  0  0
 30 33  1  0  0  0  0
 30 32  1  0  0  0  0
 31 30  1  0  0  0  0
 34  5  1  0  0  0  0
 34 42  1  0  0  0  0
 35 34  2  0  0  0  0
 36 35  1  0  0  0  0
 36 38  2  0  0  0  0
 37 36  1  0  0  0  0
 38 40  1  0  0  0  0
 39 38  1  0  0  0  0
 40 41  1  0  0  0  0
 40 42  2  0  0  0  0
 43 42  1  6  0  0  0
 43  3  1  0  0  0  0
 43  7  1  0  0  0  0
 44 53  2  0  0  0  0
 44 45  1  0  0  0  0
 45 47  2  0  0  0  0
 46 45  1  0  0  0  0
 47 49  1  0  0  0  0
 47 48  1  0  0  0  0
 49 50  1  0  0  0  0
 51 52  1  0  0  0  0
 51 49  2  0  0  0  0
 53 51  1  0  0  0  0
 54 57  1  0  0  0  0
 54 35  1  0  0  0  0
 55 54  1  0  0  0  0
 56 54  1  0  0  0  0
M  END
$$$$
