CSD_code = WUHQUM | q = 0 | S = 0 | Stoichiometry = C19H20Cl2F5N2O2V | MND = 6
 OpenBabel04212202113D

 51 53  0  0  0  0  0  0  0  0999 V2000
    8.4728   11.0178    2.2919 V   0  0  0  0  0  0  0  0  0  0  0  0
    8.3720   10.9556    0.0842 Cl  0  0  0  0  0  0  0  0  0  0  0  0
   10.5591   10.8523    2.6812 Cl  0  0  0  0  0  0  0  0  0  0  0  0
    5.0811    8.8345    1.6242 F   0  0  0  0  0  0  0  0  0  0  0  0
    3.7328    8.7149   -0.7454 F   0  0  0  0  0  0  0  0  0  0  0  0
    3.6955   10.8847   -2.4052 F   0  0  0  0  0  0  0  0  0  0  0  0
    5.0005   13.1721   -1.6768 F   0  0  0  0  0  0  0  0  0  0  0  0
    6.3386   13.2709    0.7107 F   0  0  0  0  0  0  0  0  0  0  0  0
    8.1399   11.0265    4.2284 N   0  0  0  0  0  0  0  0  0  0  0  0
    6.4640   11.1206    2.3671 N   0  0  0  0  0  0  0  0  0  0  0  0
    8.6419   12.9372    2.2633 O   0  0  0  0  0  0  0  0  0  0  0  0
    8.3473    9.0101    2.2710 O   0  0  0  0  0  0  0  0  0  0  0  0
    8.8609   11.0019    5.3399 C   0  0  0  0  0  3  0  0  0  0  0  0
    9.9369   11.0255    5.3130 H   0  0  0  0  0  0  0  0  0  0  0  0
    8.0309   10.9412    6.4728 C   0  0  0  0  0  0  0  0  0  0  0  0
    8.3624   10.9138    7.4933 H   0  0  0  0  0  0  0  0  0  0  0  0
    6.7282   10.9271    6.0190 C   0  0  0  0  0  0  0  0  0  0  0  0
    5.8273   10.8855    6.5995 H   0  0  0  0  0  0  0  0  0  0  0  0
    6.8114   10.9790    4.6127 C   0  0  0  0  0  0  0  0  0  0  0  0
    5.9161   10.9938    3.5557 C   0  0  0  0  0  0  0  0  0  0  0  0
    4.8377   10.9354    3.6867 H   0  0  0  0  0  0  0  0  0  0  0  0
    5.7125   11.0673    1.2200 C   0  0  0  0  0  0  0  0  0  0  0  0
    5.0277    9.9151    0.8231 C   0  0  0  0  0  0  0  0  0  0  0  0
    4.3613    9.8407   -0.3917 C   0  0  0  0  0  0  0  0  0  0  0  0
    4.3470   10.9428   -1.2401 C   0  0  0  0  0  0  0  0  0  0  0  0
    5.0151   12.1086   -0.8686 C   0  0  0  0  0  0  0  0  0  0  0  0
    5.6814   12.1580    0.3430 C   0  0  0  0  0  0  0  0  0  0  0  0
    9.5268   13.6037    1.3646 C   0  0  0  0  0  0  0  0  0  0  0  0
    9.0808   13.5567    0.3625 H   0  0  0  0  0  0  0  0  0  0  0  0
   10.4798   13.0620    1.3582 H   0  0  0  0  0  0  0  0  0  0  0  0
    9.6518   15.0389    1.8650 C   0  0  0  0  0  0  0  0  0  0  0  0
    9.8272   15.7425    1.0553 H   0  0  0  0  0  0  0  0  0  0  0  0
   10.4638   15.1207    2.5890 H   0  0  0  0  0  0  0  0  0  0  0  0
    8.3051   15.2415    2.5533 C   0  0  0  0  0  0  0  0  0  0  0  0
    7.5299   15.4417    1.8137 H   0  0  0  0  0  0  0  0  0  0  0  0
    8.3147   16.0396    3.2915 H   0  0  0  0  0  0  0  0  0  0  0  0
    8.0861   13.8702    3.1809 C   0  0  0  0  0  0  0  0  0  0  0  0
    8.6216   13.7789    4.1377 H   0  0  0  0  0  0  0  0  0  0  0  0
    7.0319   13.6241    3.3323 H   0  0  0  0  0  0  0  0  0  0  0  0
    9.1597    8.2411    1.3806 C   0  0  0  0  0  0  0  0  0  0  0  0
    8.7270    8.3334    0.3757 H   0  0  0  0  0  0  0  0  0  0  0  0
   10.1694    8.6679    1.3720 H   0  0  0  0  0  0  0  0  0  0  0  0
    9.1285    6.7993    1.8827 C   0  0  0  0  0  0  0  0  0  0  0  0
    9.9640    6.6129    2.5586 H   0  0  0  0  0  0  0  0  0  0  0  0
    9.1686    6.0814    1.0672 H   0  0  0  0  0  0  0  0  0  0  0  0
    7.8109    6.7622    2.6508 C   0  0  0  0  0  0  0  0  0  0  0  0
    6.9696    6.6469    1.9664 H   0  0  0  0  0  0  0  0  0  0  0  0
    7.7714    5.9768    3.4012 H   0  0  0  0  0  0  0  0  0  0  0  0
    7.7931    8.1557    3.2649 C   0  0  0  0  0  0  0  0  0  0  0  0
    8.4247    8.2007    4.1651 H   0  0  0  0  0  0  0  0  0  0  0  0
    6.7881    8.5040    3.5107 H   0  0  0  0  0  0  0  0  0  0  0  0
  1 10  1  0  0  0  0
  1  3  1  0  0  0  0
  1  9  1  0  0  0  0
  2  1  1  0  0  0  0
  5 24  1  0  0  0  0
  6 25  1  0  0  0  0
  7 26  1  0  0  0  0
  9 19  1  0  0  0  0
  9 13  1  0  0  0  0
 10 20  1  0  0  0  0
 11 37  1  0  0  0  0
 12 49  1  0  0  0  0
 13 15  1  0  0  0  0
 14 13  1  0  0  0  0
 15 16  1  0  0  0  0
 17 15  2  0  0  0  0
 17 18  1  0  0  0  0
 19 17  1  0  0  0  0
 20 21  1  0  0  0  0
 20 19  2  0  0  0  0
 22 10  1  0  0  0  0
 23 22  1  0  0  0  0
 23  4  1  0  0  0  0
 24 23  2  0  0  0  0
 25 26  2  0  0  0  0
 25 24  1  0  0  0  0
 26 27  1  0  0  0  0
 27  8  1  0  0  0  0
 27 22  2  0  0  0  0
 28 31  1  0  0  0  0
 28 11  1  0  0  0  0
 29 28  1  0  0  0  0
 30 28  1  0  0  0  0
 31 34  1  0  0  0  0
 31 33  1  0  0  0  0
 32 31  1  0  0  0  0
 34 37  1  0  0  0  0
 34 36  1  0  0  0  0
 35 34  1  0  0  0  0
 37 39  1  0  0  0  0
 37 38  1  0  0  0  0
 40 43  1  0  0  0  0
 40 12  1  0  0  0  0
 41 40  1  0  0  0  0
 42 40  1  0  0  0  0
 43 44  1  0  0  0  0
 43 46  1  0  0  0  0
 45 43  1  0  0  0  0
 46 49  1  0  0  0  0
 46 48  1  0  0  0  0
 47 46  1  0  0  0  0
 49 51  1  0  0  0  0
 49 50  1  0  0  0  0
M  END
$$$$
