CSD_code = WUHWOL | q = 0 | S = 0 | Stoichiometry = C4H12Cl3NO3RuS2 | MND = 6
 OpenBabel04212202113D

 26 25  0  0  0  0  0  0  0  0999 V2000
    5.0628   -2.8936   -8.0440 Ru  0  0  0  0  0  0  0  0  0  0  0  0
    7.2952   -2.1840   -8.0396 Cl  0  0  0  0  0  0  0  0  0  0  0  0
    4.4130   -0.6757   -8.2397 Cl  0  0  0  0  0  0  0  0  0  0  0  0
    2.9098   -3.6330   -7.4958 Cl  0  0  0  0  0  0  0  0  0  0  0  0
    4.9213   -3.4823  -10.7888 O   0  0  0  0  0  1  0  0  0  0  0  0
    5.2346   -2.3940   -6.0334 O   0  0  0  0  0  0  0  0  0  0  0  0
    5.6712   -4.8662   -7.4345 O   0  0  0  0  0  0  0  0  0  0  0  0
    4.9736   -3.2460   -9.6667 N   0  0  0  0  0  2  0  0  0  0  0  0
    5.9001   -1.0510   -5.8073 S   0  0  0  0  0  3  0  0  0  0  0  0
    4.6241   -5.8295   -6.9223 S   0  0  0  0  0  3  0  0  0  0  0  0
    4.6795   -0.2460   -4.7144 C   0  0  0  0  0  0  0  0  0  0  0  0
    3.8304    0.0073   -5.3410 H   0  0  0  0  0  0  0  0  0  0  0  0
    5.1179    0.6544   -4.3020 H   0  0  0  0  0  0  0  0  0  0  0  0
    4.3773   -0.9330   -3.9330 H   0  0  0  0  0  0  0  0  0  0  0  0
    7.0997   -1.4808   -4.4982 C   0  0  0  0  0  0  0  0  0  0  0  0
    6.6119   -2.0800   -3.7384 H   0  0  0  0  0  0  0  0  0  0  0  0
    7.5031   -0.5671   -4.0795 H   0  0  0  0  0  0  0  0  0  0  0  0
    7.8892   -2.0467   -4.9816 H   0  0  0  0  0  0  0  0  0  0  0  0
    4.4734   -5.4151   -5.1527 C   0  0  0  0  0  0  0  0  0  0  0  0
    5.4667   -5.3322   -4.7239 H   0  0  0  0  0  0  0  0  0  0  0  0
    3.8901   -6.1828   -4.6576 H   0  0  0  0  0  0  0  0  0  0  0  0
    3.9563   -4.4610   -5.0963 H   0  0  0  0  0  0  0  0  0  0  0  0
    5.7004   -7.2996   -6.6814 C   0  0  0  0  0  0  0  0  0  0  0  0
    5.9510   -7.6822   -7.6650 H   0  0  0  0  0  0  0  0  0  0  0  0
    5.1573   -8.0515   -6.1211 H   0  0  0  0  0  0  0  0  0  0  0  0
    6.6064   -7.0031   -6.1661 H   0  0  0  0  0  0  0  0  0  0  0  0
  1  2  1  0  0  0  0
  1  4  1  0  0  0  0
  1  7  1  0  0  0  0
  1  6  1  0  0  0  0
  3  1  1  0  0  0  0
  5  8  1  0  0  0  0
  6  9  1  0  0  0  0
  7 10  1  0  0  0  0
  8  1  1  0  0  0  0
  9 11  1  0  0  0  0
  9 15  1  0  0  0  0
 10 23  1  0  0  0  0
 10 19  1  0  0  0  0
 11 13  1  0  0  0  0
 11 14  1  0  0  0  0
 12 11  1  0  0  0  0
 15 17  1  0  0  0  0
 15 16  1  0  0  0  0
 18 15  1  0  0  0  0
 19 22  1  0  0  0  0
 19 20  1  0  0  0  0
 19 21  1  0  0  0  0
 23 26  1  0  0  0  0
 23 25  1  0  0  0  0
 24 23  1  0  0  0  0
M  END
$$$$
