CSD_code = WUHZIJ | q = 0 | S = 0 | Stoichiometry = C27H23BCl2N6OTi | MND = 6
 OpenBabel04212202113D

 61 68  0  0  1  0  0  0  0  0999 V2000
    8.2173    2.4566    4.7246 Ti  0  0  0  0  0  0  0  0  0  0  0  0
    8.7427    0.7032    5.9867 Cl  0  0  0  0  0  0  0  0  0  0  0  0
    8.8382    4.0244    6.1648 Cl  0  0  0  0  0  0  0  0  0  0  0  0
    9.5471    2.3922    3.6755 O   0  0  0  0  0  0  0  0  0  0  0  0
    5.1766    2.4993    5.0340 N   0  0  1  0  0  0  0  0  0  0  0  0
    6.3476    2.4328    5.6830 N   0  0  0  0  0  0  0  0  0  0  0  0
    5.9443    1.3951    2.9945 N   0  0  1  0  0  0  0  0  0  0  0  0
    7.1730    1.1510    3.4586 N   0  0  0  0  0  0  0  0  0  0  0  0
    6.0030    3.8755    3.1985 N   0  0  2  0  0  0  0  0  0  0  0  0
    7.2578    3.9669    3.6458 N   0  0  0  0  0  0  0  0  0  0  0  0
    4.1662    2.4656    5.9130 C   0  0  0  0  0  3  0  0  0  0  0  0
    4.7001    2.3738    7.1822 C   0  0  0  0  0  0  0  0  0  0  0  0
    6.0797    2.3551    6.9817 C   0  0  0  0  0  0  0  0  0  0  0  0
    5.5212    0.3549    2.2657 C   0  0  0  0  0  3  0  0  0  0  0  0
    6.5165   -0.6014    2.2568 C   0  0  0  0  0  0  0  0  0  0  0  0
    7.5382   -0.0507    3.0278 C   0  0  0  0  0  0  0  0  0  0  0  0
    5.6195    5.0487    2.6811 C   0  0  0  0  0  3  0  0  0  0  0  0
    6.6708    5.9373    2.7944 C   0  0  0  0  0  0  0  0  0  0  0  0
    7.6813    5.2045    3.4128 C   0  0  0  0  0  0  0  0  0  0  0  0
   10.4203    1.6710    2.9924 C   0  0  0  0  0  0  0  0  0  0  0  0
   10.2022    1.3861    1.6277 C   0  0  0  0  0  0  0  0  0  0  0  0
   11.0799    0.5447    0.9545 C   0  0  0  0  0  0  0  0  0  0  0  0
   12.1709   -0.0076    1.5997 C   0  0  0  0  0  0  0  0  0  0  0  0
   12.3919    0.2717    2.9366 C   0  0  0  0  0  0  0  0  0  0  0  0
   11.5369    1.1048    3.6465 C   0  0  0  0  0  0  0  0  0  0  0  0
    9.0429    1.9634    0.9262 C   0  0  0  0  0  0  0  0  0  0  0  0
    8.2155    1.1559    0.1486 C   0  0  0  0  0  0  0  0  0  0  0  0
    7.1261    1.6936   -0.5103 C   0  0  0  0  0  0  0  0  0  0  0  0
    6.8625    3.0503   -0.4258 C   0  0  0  0  0  0  0  0  0  0  0  0
    7.6978    3.8667    0.3179 C   0  0  0  0  0  0  0  0  0  0  0  0
    8.7729    3.3277    1.0020 C   0  0  0  0  0  0  0  0  0  0  0  0
   11.7619    1.3853    5.0740 C   0  0  0  0  0  0  0  0  0  0  0  0
   12.0726    0.3486    5.9517 C   0  0  0  0  0  0  0  0  0  0  0  0
   12.2576    0.6031    7.2967 C   0  0  0  0  0  0  0  0  0  0  0  0
   12.1439    1.8950    7.7830 C   0  0  0  0  0  0  0  0  0  0  0  0
   11.8536    2.9350    6.9166 C   0  0  0  0  0  0  0  0  0  0  0  0
   11.6615    2.6846    5.5690 C   0  0  0  0  0  0  0  0  0  0  0  0
    5.1737    2.6205    3.4996 B   0  0  2  0  0  0  0  0  0  0  0  0
    4.0846    2.6838    3.0510 H   0  0  0  0  0  0  0  0  0  0  0  0
    3.1458    2.5078    5.5887 H   0  0  0  0  0  0  0  0  0  0  0  0
    4.1738    2.3271    8.1129 H   0  0  0  0  0  0  0  0  0  0  0  0
    6.8729    2.2918    7.7074 H   0  0  0  0  0  0  0  0  0  0  0  0
    4.5534    0.3536    1.8066 H   0  0  0  0  0  0  0  0  0  0  0  0
    6.5046   -1.5551    1.7714 H   0  0  0  0  0  0  0  0  0  0  0  0
    8.4963   -0.4661    3.2896 H   0  0  0  0  0  0  0  0  0  0  0  0
    4.6389    5.1829    2.2711 H   0  0  0  0  0  0  0  0  0  0  0  0
    6.7005    6.9610    2.4828 H   0  0  0  0  0  0  0  0  0  0  0  0
    8.6702    5.5140    3.7059 H   0  0  0  0  0  0  0  0  0  0  0  0
   10.9070    0.3423   -0.0925 H   0  0  0  0  0  0  0  0  0  0  0  0
   12.8495   -0.6513    1.0609 H   0  0  0  0  0  0  0  0  0  0  0  0
   13.2478   -0.1487    3.4437 H   0  0  0  0  0  0  0  0  0  0  0  0
    8.4247    0.0988    0.0746 H   0  0  0  0  0  0  0  0  0  0  0  0
    6.4843    1.0532   -1.0976 H   0  0  0  0  0  0  0  0  0  0  0  0
    6.0173    3.4728   -0.9486 H   0  0  0  0  0  0  0  0  0  0  0  0
    7.5144    4.9304    0.3577 H   0  0  0  0  0  0  0  0  0  0  0  0
    9.4360    3.9693    1.5675 H   0  0  0  0  0  0  0  0  0  0  0  0
   12.1332   -0.6636    5.5787 H   0  0  0  0  0  0  0  0  0  0  0  0
   12.4800   -0.2114    7.9708 H   0  0  0  0  0  0  0  0  0  0  0  0
   12.2784    2.0905    8.8368 H   0  0  0  0  0  0  0  0  0  0  0  0
   11.7638    3.9446    7.2891 H   0  0  0  0  0  0  0  0  0  0  0  0
   11.4594    3.5074    4.8912 H   0  0  0  0  0  0  0  0  0  0  0  0
  1  6  1  0  0  0  0
  1  2  1  0  0  0  0
  1  3  1  0  0  0  0
  4  1  1  0  0  0  0
  5  6  1  0  0  0  0
  5 11  1  1  0  0  0
  6 13  1  0  0  0  0
  7 14  1  1  0  0  0
  7  8  1  0  0  0  0
  7 38  1  0  0  0  0
  8  1  1  0  0  0  0
  9 17  1  1  0  0  0
  9 38  1  0  0  0  0
  9 10  1  0  0  0  0
 10  1  1  0  0  0  0
 11 12  1  0  0  0  0
 12 41  1  0  0  0  0
 13 12  2  0  0  0  0
 13 42  1  0  0  0  0
 15 14  1  0  0  0  0
 15 16  2  0  0  0  0
 16 45  1  0  0  0  0
 16  8  1  0  0  0  0
 17 18  1  0  0  0  0
 18 19  2  0  0  0  0
 19 10  1  0  0  0  0
 19 48  1  0  0  0  0
 20 25  1  0  0  0  0
 20  4  1  0  0  0  0
 21 20  2  0  0  0  0
 22 23  2  0  0  0  0
 22 21  1  0  0  0  0
 23 24  1  0  0  0  0
 24 51  1  0  0  0  0
 24 25  2  0  0  0  0
 25 32  1  0  0  0  0
 26 31  1  0  0  0  0
 26 21  1  0  0  0  0
 27 26  2  0  0  0  0
 28 29  2  0  0  0  0
 28 27  1  0  0  0  0
 29 30  1  0  0  0  0
 30 55  1  0  0  0  0
 30 31  2  0  0  0  0
 31 56  1  0  0  0  0
 32 37  2  0  0  0  0
 32 33  1  0  0  0  0
 33 34  2  0  0  0  0
 34 35  1  0  0  0  0
 34 58  1  0  0  0  0
 35 59  1  0  0  0  0
 36 60  1  0  0  0  0
 36 35  2  0  0  0  0
 37 36  1  0  0  0  0
 38 39  1  6  0  0  0
 38  5  1  0  0  0  0
 40 11  1  0  0  0  0
 43 14  1  0  0  0  0
 44 15  1  0  0  0  0
 46 17  1  0  0  0  0
 47 18  1  0  0  0  0
 49 22  1  0  0  0  0
 50 23  1  0  0  0  0
 52 27  1  0  0  0  0
 53 28  1  0  0  0  0
 54 29  1  0  0  0  0
 57 33  1  0  0  0  0
 61 37  1  0  0  0  0
M  END
$$$$
