CSD_code = WUJDIQ | q = 0 | S = 0 | Stoichiometry = C22H21BrCuN3O2S2 | MND = 5
 OpenBabel04212202113D

 52 55  0  0  1  0  0  0  0  0999 V2000
    3.3921    4.7997    7.1238 S   0  0  0  0  0  0  0  0  0  0  0  0
    4.9307    8.2712    5.2306 O   0  0  0  0  0  0  0  0  0  0  0  0
    4.7234    3.5401    7.2469 C   0  0  0  0  0  0  0  0  0  0  0  0
    4.2727    2.6316    6.8470 H   0  0  0  0  0  0  0  0  0  0  0  0
    5.5360    3.8785    6.6069 H   0  0  0  0  0  0  0  0  0  0  0  0
    5.1591    3.3631    8.6654 C   0  0  0  0  0  0  0  0  0  0  0  0
    6.4349    3.7349    9.0685 C   0  0  0  0  0  0  0  0  0  0  0  0
    7.1230    4.1681    8.3592 H   0  0  0  0  0  0  0  0  0  0  0  0
    5.0165    9.3006    9.6479 C   0  0  0  0  0  0  0  0  0  0  0  0
    4.3675   10.0944    9.3061 H   0  0  0  0  0  0  0  0  0  0  0  0
    4.0218    8.9028    4.4055 C   0  0  0  0  0  0  0  0  0  0  0  0
    3.6172    8.1239    3.7482 H   0  0  0  0  0  0  0  0  0  0  0  0
    4.4795    9.6858    3.7873 H   0  0  0  0  0  0  0  0  0  0  0  0
    3.1803    9.3300    4.9661 H   0  0  0  0  0  0  0  0  0  0  0  0
    4.2727    2.8382    9.6008 C   0  0  0  0  0  0  0  0  0  0  0  0
    3.2751    2.5621    9.2889 H   0  0  0  0  0  0  0  0  0  0  0  0
    4.6585    2.6801   10.9186 C   0  0  0  0  0  0  0  0  0  0  0  0
    3.9624    2.2742   11.6378 H   0  0  0  0  0  0  0  0  0  0  0  0
    6.8210    3.5643   10.3878 C   0  0  0  0  0  0  0  0  0  0  0  0
    7.8196    3.8445   10.6892 H   0  0  0  0  0  0  0  0  0  0  0  0
    5.9369    3.0398   11.3144 C   0  0  0  0  0  0  0  0  0  0  0  0
    6.2397    2.9128   12.3434 H   0  0  0  0  0  0  0  0  0  0  0  0
    5.9727    9.0908    6.4139 Cu  0  0  1  0  0  0  0  0  0  0  0  0
    5.1362   11.1923    6.3214 Br  0  0  0  0  0  0  0  0  0  0  0  0
    3.2151    7.7110    7.3158 S   0  0  0  0  0  0  0  0  0  0  0  0
    6.3616    7.2969    7.0438 N   0  0  0  0  0  0  0  0  0  0  0  0
    5.5440    6.2685    7.0429 N   0  0  0  0  0  0  0  0  0  0  0  0
    4.2856    6.2784    7.1331 C   0  0  0  0  0  0  0  0  0  0  0  0
    8.1887    6.0347    7.6407 O   0  0  0  0  0  0  0  0  0  0  0  0
    7.6069    9.4976    7.2353 N   0  0  0  0  0  0  0  0  0  0  0  0
    7.6538    7.0974    7.3845 C   0  0  0  0  0  0  0  0  0  0  0  0
    9.4401   10.8610    7.8809 C   0  0  0  0  0  0  0  0  0  0  0  0
    9.8286   11.8569    8.0184 H   0  0  0  0  0  0  0  0  0  0  0  0
    8.3359    8.4119    7.5108 C   0  0  2  0  0  3  0  0  0  0  0  0
    3.1810    7.6785    9.1622 C   0  0  0  0  0  0  0  0  0  0  0  0
    2.4548    8.4473    9.4203 H   0  0  0  0  0  0  0  0  0  0  0  0
    2.8243    6.6980    9.4759 H   0  0  0  0  0  0  0  0  0  0  0  0
    7.1443    8.5679   10.4787 C   0  0  0  0  0  0  0  0  0  0  0  0
    8.1546    8.7920   10.7910 H   0  0  0  0  0  0  0  0  0  0  0  0
    9.6441    8.4928    7.9676 C   0  0  0  0  0  0  0  0  0  0  0  0
   10.1668    7.5700    8.1659 H   0  0  0  0  0  0  0  0  0  0  0  0
    8.1458   10.6999    7.4189 C   0  0  0  0  0  0  0  0  0  0  0  0
    7.5297   11.5605    7.1989 H   0  0  0  0  0  0  0  0  0  0  0  0
    6.6832    7.2629   10.5051 C   0  0  0  0  0  0  0  0  0  0  0  0
    7.3300    6.4622   10.8289 H   0  0  0  0  0  0  0  0  0  0  0  0
   10.2111    9.7395    8.1537 C   0  0  0  0  0  0  0  0  0  0  0  0
   11.2261    9.8382    8.5070 H   0  0  0  0  0  0  0  0  0  0  0  0
    4.5451    7.9908    9.6763 C   0  0  0  0  0  0  0  0  0  0  0  0
    5.3884    6.9753   10.1105 C   0  0  0  0  0  0  0  0  0  0  0  0
    5.0348    5.9543   10.1386 H   0  0  0  0  0  0  0  0  0  0  0  0
    6.3055    9.5879   10.0572 C   0  0  0  0  0  0  0  0  0  0  0  0
    6.6550   10.6106   10.0437 H   0  0  0  0  0  0  0  0  0  0  0  0
  1 28  1  0  0  0  0
  1  3  1  0  0  0  0
  2 23  1  0  0  0  0
  3  6  1  0  0  0  0
  4  3  1  0  0  0  0
  5  3  1  0  0  0  0
  6  7  2  0  0  0  0
  6 15  1  0  0  0  0
  7 19  1  0  0  0  0
  8  7  1  0  0  0  0
  9 48  2  0  0  0  0
  9 51  1  0  0  0  0
 10  9  1  0  0  0  0
 11 14  1  0  0  0  0
 11  2  1  0  0  0  0
 12 11  1  0  0  0  0
 13 11  1  0  0  0  0
 15 17  2  0  0  0  0
 16 15  1  0  0  0  0
 17 21  1  0  0  0  0
 17 18  1  0  0  0  0
 19 20  1  0  0  0  0
 19 21  2  0  0  0  0
 21 22  1  0  0  0  0
 23 24  1  1  0  0  0
 23 26  1  0  0  0  0
 23 30  1  0  0  0  0
 25 35  1  0  0  0  0
 26 31  1  0  0  0  0
 27 26  1  0  0  0  0
 27 28  2  0  0  0  0
 28 25  1  0  0  0  0
 30 42  1  0  0  0  0
 30 34  1  0  0  0  0
 31 29  2  0  0  0  0
 32 33  1  0  0  0  0
 32 46  1  0  0  0  0
 34 31  1  1  0  0  0
 34 40  1  0  0  0  0
 35 36  1  0  0  0  0
 35 37  1  0  0  0  0
 35 48  1  0  0  0  0
 38 44  1  0  0  0  0
 38 39  1  0  0  0  0
 40 46  2  0  0  0  0
 40 41  1  0  0  0  0
 42 32  2  0  0  0  0
 43 42  1  0  0  0  0
 44 45  1  0  0  0  0
 46 47  1  0  0  0  0
 48 49  1  0  0  0  0
 49 50  1  0  0  0  0
 49 44  2  0  0  0  0
 51 38  2  0  0  0  0
 52 51  1  0  0  0  0
M  END
$$$$
