CSD_code = WUJNEW | q = 0 | S = 0 | Stoichiometry = C19H32ClO2PRuS | MND = 9
 OpenBabel04212202113D

 57 58  0  0  1  0  0  0  0  0999 V2000
    0.9533   14.6173    5.2539 C   0  0  0  0  0  0  0  0  0  0  0  0
    0.0708   14.8310    5.8372 H   0  0  0  0  0  0  0  0  0  0  0  0
    1.2953   15.4016    4.6010 H   0  0  0  0  0  0  0  0  0  0  0  0
    1.5851   13.4511    5.3450 C   0  0  0  0  0  0  0  0  0  0  0  0
    2.4715   13.2482    4.7624 H   0  0  0  0  0  0  0  0  0  0  0  0
    1.1475   12.3933    6.2274 C   0  0  0  0  0  0  0  0  0  0  0  0
    0.2761   12.6244    6.8373 H   0  0  0  0  0  0  0  0  0  0  0  0
    1.7204   11.2014    6.3547 C   0  0  0  0  0  0  0  0  0  0  0  0
    1.3848   10.4631    7.0655 H   0  0  0  0  0  0  0  0  0  0  0  0
    1.2821    9.3597    3.2570 C   0  0  0  0  0  0  0  0  0  0  0  0
    2.4327    8.9423    2.5349 C   0  0  0  0  0  0  0  0  0  0  0  0
    2.9023    7.6038    2.6445 C   0  0  1  0  0  0  0  0  0  0  0  0
    2.2033    6.6644    3.4710 C   0  0  0  0  0  0  0  0  0  0  0  0
    1.0879    7.1025    4.2191 C   0  0  0  0  0  0  0  0  0  0  0  0
    0.6735    8.4720    4.1731 C   0  0  2  0  0  0  0  0  0  0  0  0
    5.7863    6.5858    4.7821 C   0  0  0  0  0  0  0  0  0  0  0  0
    5.2103    5.7892    5.2490 H   0  0  0  0  0  0  0  0  0  0  0  0
    5.7418    6.4785    3.7027 H   0  0  0  0  0  0  0  0  0  0  0  0
    6.8233    6.5182    5.1074 H   0  0  0  0  0  0  0  0  0  0  0  0
    6.2337    9.3902    4.5448 C   0  0  0  0  0  0  0  0  0  0  0  0
    6.0875    9.4041    3.4660 H   0  0  0  0  0  0  0  0  0  0  0  0
    7.2634    9.1219    4.7777 H   0  0  0  0  0  0  0  0  0  0  0  0
    6.0011   10.3755    4.9435 H   0  0  0  0  0  0  0  0  0  0  0  0
    5.5984    8.1948    7.0573 C   0  0  0  0  0  0  0  0  0  0  0  0
    6.6787    8.0608    7.1139 H   0  0  0  0  0  0  0  0  0  0  0  0
    5.0862    7.3841    7.5741 H   0  0  0  0  0  0  0  0  0  0  0  0
    5.3080    9.1441    7.5037 H   0  0  0  0  0  0  0  0  0  0  0  0
    0.7040   10.7113    2.9514 C   0  0  0  0  0  0  0  0  0  0  0  0
   -0.2744   10.8538    3.3974 H   0  0  0  0  0  0  0  0  0  0  0  0
    0.6043   10.8266    1.8726 H   0  0  0  0  0  0  0  0  0  0  0  0
    1.3720   11.4930    3.3115 H   0  0  0  0  0  0  0  0  0  0  0  0
    3.0612    9.9122    1.5733 C   0  0  0  0  0  0  0  0  0  0  0  0
    3.2077   10.8658    2.0770 H   0  0  0  0  0  0  0  0  0  0  0  0
    2.4119   10.0679    0.7100 H   0  0  0  0  0  0  0  0  0  0  0  0
    4.0272    9.5720    1.2180 H   0  0  0  0  0  0  0  0  0  0  0  0
    3.9580    7.1517    1.6633 C   0  0  0  0  0  0  0  0  0  0  0  0
    4.9001    7.6738    1.8237 H   0  0  0  0  0  0  0  0  0  0  0  0
    3.6174    7.3713    0.6510 H   0  0  0  0  0  0  0  0  0  0  0  0
    4.1469    6.0856    1.7189 H   0  0  0  0  0  0  0  0  0  0  0  0
    2.5947    5.2072    3.5318 C   0  0  0  0  0  0  0  0  0  0  0  0
    1.9452    4.6146    2.8846 H   0  0  0  0  0  0  0  0  0  0  0  0
    2.5052    4.8372    4.5504 H   0  0  0  0  0  0  0  0  0  0  0  0
    3.6221    5.0457    3.2239 H   0  0  0  0  0  0  0  0  0  0  0  0
    0.2850    6.1344    5.0437 C   0  0  0  0  0  0  0  0  0  0  0  0
   -0.7708    6.3909    5.0139 H   0  0  0  0  0  0  0  0  0  0  0  0
    0.6198    6.1800    6.0829 H   0  0  0  0  0  0  0  0  0  0  0  0
    0.3931    5.1159    4.6850 H   0  0  0  0  0  0  0  0  0  0  0  0
   -0.4981    8.8981    5.0204 C   0  0  0  0  0  0  0  0  0  0  0  0
   -0.4989    9.9728    5.1801 H   0  0  0  0  0  0  0  0  0  0  0  0
   -0.4346    8.4260    5.9990 H   0  0  0  0  0  0  0  0  0  0  0  0
   -1.4421    8.6121    4.5518 H   0  0  0  0  0  0  0  0  0  0  0  0
    5.0786    8.1991    5.3096 P   0  0  0  0  0  4  0  0  0  0  0  0
    3.2186   10.6043    5.5168 S   0  0  0  0  0  0  0  0  0  0  0  0
    2.3658    8.0634    7.0197 Cl  0  0  0  0  0  0  0  0  0  0  0  0
    2.8773    8.5106    4.7908 Ru  0  0  0  0  0  0  0  0  0  0  0  0
    3.4033   11.3662    4.2844 O   0  0  0  0  0  0  0  0  0  0  0  0
    4.2703   10.8018    6.4996 O   0  0  0  0  0  0  0  0  0  0  0  0
  1  4  2  0  0  0  0
  1  2  1  0  0  0  0
  3  1  1  0  0  0  0
  4  6  1  0  0  0  0
  5  4  1  0  0  0  0
  6  8  2  0  0  0  0
  6  7  1  0  0  0  0
  8  9  1  0  0  0  0
 10 15  1  0  0  0  0
 11 12  1  0  0  0  0
 11 10  2  0  0  0  0
 12 36  1  6  0  0  0
 12 13  1  0  0  0  0
 12 55  1  0  0  0  0
 13 40  1  0  0  0  0
 13 14  2  0  0  0  0
 14 44  1  0  0  0  0
 15 14  1  0  0  0  0
 15 55  1  0  0  0  0
 15 48  1  1  0  0  0
 16 19  1  0  0  0  0
 16 17  1  0  0  0  0
 16 52  1  0  0  0  0
 18 16  1  0  0  0  0
 20 22  1  0  0  0  0
 20 23  1  0  0  0  0
 20 52  1  0  0  0  0
 21 20  1  0  0  0  0
 24 25  1  0  0  0  0
 24 27  1  0  0  0  0
 24 26  1  0  0  0  0
 28 10  1  0  0  0  0
 28 31  1  0  0  0  0
 28 29  1  0  0  0  0
 30 28  1  0  0  0  0
 32 33  1  0  0  0  0
 32 11  1  0  0  0  0
 34 32  1  0  0  0  0
 35 32  1  0  0  0  0
 36 39  1  0  0  0  0
 36 37  1  0  0  0  0
 38 36  1  0  0  0  0
 40 42  1  0  0  0  0
 41 40  1  0  0  0  0
 43 40  1  0  0  0  0
 44 46  1  0  0  0  0
 45 44  1  0  0  0  0
 47 44  1  0  0  0  0
 48 49  1  0  0  0  0
 48 50  1  0  0  0  0
 51 48  1  0  0  0  0
 52 24  1  0  0  0  0
 53  8  1  0  0  0  0
 53 57  2  0  0  0  0
 55 52  1  0  0  0  0
 55 53  1  0  0  0  0
 55 54  1  0  0  0  0
 56 53  2  0  0  0  0
M  END
$$$$
