CSD_code = WUJPOI | q = 0 | S = 0 | Stoichiometry = C16H18Cl2N6O2Zn | MND = 4
 OpenBabel04212202113D

 45 48  0  0  0  0  0  0  0  0999 V2000
    4.5733    1.7220    3.8849 Zn  0  0  0  0  0  0  0  0  0  0  0  0
    3.3447    0.6884    5.3966 Cl  0  0  0  0  0  0  0  0  0  0  0  0
    6.4914    1.0651    3.0214 Cl  0  0  0  0  0  0  0  0  0  0  0  0
    1.7942    1.8574   -1.6520 O   0  0  0  0  0  0  0  0  0  0  0  0
    5.8797    7.4550    5.8619 O   0  0  0  0  0  0  0  0  0  0  0  0
    3.1129    2.9167    1.4248 C   0  0  0  0  0  3  0  0  0  0  0  0
    3.3374    3.8744    1.8738 H   0  0  0  0  0  0  0  0  0  0  0  0
    3.0767    0.6699    1.5414 C   0  0  0  0  0  0  0  0  0  0  0  0
    2.5275    0.6248    0.2337 C   0  0  0  0  0  0  0  0  0  0  0  0
    2.3005    1.8383   -0.4226 C   0  0  0  0  0  0  0  0  0  0  0  0
    2.7574   -1.4514    0.9533 C   0  0  0  0  0  0  0  0  0  0  0  0
    2.7009   -2.5214    0.9019 H   0  0  0  0  0  0  0  0  0  0  0  0
    3.2103   -0.6657    1.9766 C   0  0  0  0  0  0  0  0  0  0  0  0
    3.5894   -0.9879    2.9253 H   0  0  0  0  0  0  0  0  0  0  0  0
    1.6121    3.1431   -2.2477 C   0  0  0  0  0  0  0  0  0  0  0  0
    2.5782    3.6575   -2.2817 H   0  0  0  0  0  0  0  0  0  0  0  0
    0.9356    3.7321   -1.6194 H   0  0  0  0  0  0  0  0  0  0  0  0
    6.0284    4.3435    4.2282 C   0  0  0  0  0  3  0  0  0  0  0  0
    6.7634    3.8120    3.6399 H   0  0  0  0  0  0  0  0  0  0  0  0
    3.9858    4.4227    5.1839 C   0  0  0  0  0  0  0  0  0  0  0  0
    4.2873    5.7141    5.6872 C   0  0  0  0  0  0  0  0  0  0  0  0
    5.5435    6.2562    5.3931 C   0  0  0  0  0  0  0  0  0  0  0  0
    2.2494    5.1760    6.3519 C   0  0  0  0  0  0  0  0  0  0  0  0
    1.3118    5.3120    6.8550 H   0  0  0  0  0  0  0  0  0  0  0  0
    1.0419    2.9393   -3.6391 C   0  0  0  0  0  0  0  0  0  0  0  0
    0.0889    2.4203   -3.5827 H   0  0  0  0  0  0  0  0  0  0  0  0
    1.7252    2.3473   -4.2419 H   0  0  0  0  0  0  0  0  0  0  0  0
    0.8929    3.9033   -4.1161 H   0  0  0  0  0  0  0  0  0  0  0  0
    2.6803    4.1060    5.6172 C   0  0  0  0  0  0  0  0  0  0  0  0
    2.1613    3.1887    5.4294 H   0  0  0  0  0  0  0  0  0  0  0  0
    7.1808    7.9450    5.5313 C   0  0  0  0  0  0  0  0  0  0  0  0
    7.9073    7.1367    5.6520 H   0  0  0  0  0  0  0  0  0  0  0  0
    7.3684    8.7320    6.2650 H   0  0  0  0  0  0  0  0  0  0  0  0
    7.2372    8.4946    4.1138 C   0  0  0  0  0  0  0  0  0  0  0  0
    8.2168    8.9269    3.9334 H   0  0  0  0  0  0  0  0  0  0  0  0
    6.4799    9.2627    3.9750 H   0  0  0  0  0  0  0  0  0  0  0  0
    7.0690    7.6929    3.4000 H   0  0  0  0  0  0  0  0  0  0  0  0
    3.3733    1.8426    2.1363 N   0  0  0  0  0  0  0  0  0  0  0  0
    2.3458   -0.6835   -0.0935 N   0  0  0  0  0  0  0  0  0  0  0  0
    1.9781   -1.0167   -0.9690 H   0  0  0  0  0  0  0  0  0  0  0  0
    6.3844    5.5456    4.6543 N   0  0  0  0  0  0  0  0  0  0  0  0
    4.8797    3.7356    4.4444 N   0  0  0  0  0  0  0  0  0  0  0  0
    3.2055    6.1449    6.3934 N   0  0  0  0  0  0  0  0  0  0  0  0
    3.1433    7.0248    6.8775 H   0  0  0  0  0  0  0  0  0  0  0  0
    2.5977    2.9688    0.2048 N   0  0  0  0  0  0  0  0  0  0  0  0
  1 42  1  0  0  0  0
  1  2  1  0  0  0  0
  3  1  1  0  0  0  0
  4 10  1  0  0  0  0
  6  7  1  0  0  0  0
  6 38  1  0  0  0  0
  8 13  1  0  0  0  0
  8 38  1  0  0  0  0
  9  8  2  0  0  0  0
 10 45  2  0  0  0  0
 10  9  1  0  0  0  0
 11 13  2  0  0  0  0
 12 11  1  0  0  0  0
 13 14  1  0  0  0  0
 15  4  1  0  0  0  0
 15 17  1  0  0  0  0
 16 15  1  0  0  0  0
 18 42  1  0  0  0  0
 18 41  1  0  0  0  0
 19 18  1  0  0  0  0
 20 29  1  0  0  0  0
 20 21  2  0  0  0  0
 21 43  1  0  0  0  0
 22 21  1  0  0  0  0
 22  5  1  0  0  0  0
 23 43  1  0  0  0  0
 23 24  1  0  0  0  0
 25 26  1  0  0  0  0
 25 15  1  0  0  0  0
 27 25  1  0  0  0  0
 28 25  1  0  0  0  0
 29 23  2  0  0  0  0
 30 29  1  0  0  0  0
 31 32  1  0  0  0  0
 31  5  1  0  0  0  0
 31 33  1  0  0  0  0
 34 31  1  0  0  0  0
 35 34  1  0  0  0  0
 36 34  1  0  0  0  0
 37 34  1  0  0  0  0
 38  1  1  0  0  0  0
 39  9  1  0  0  0  0
 39 11  1  0  0  0  0
 40 39  1  0  0  0  0
 41 22  2  0  0  0  0
 42 20  1  0  0  0  0
 43 44  1  0  0  0  0
 45  6  1  0  0  0  0
M  END
$$$$
