CSD_code = WUJQOI | q = 0 | S = 0 | Stoichiometry = C10H22Cl2N10Pt | MND = 4
 OpenBabel04212202113D

 45 46  0  0  0  0  0  0  0  0999 V2000
    2.0598    2.6345    2.5565 Pt  0  0  0  0  0  0  0  0  0  0  0  0
    0.9090    4.5880    2.6192 Cl  0  0  0  0  0  0  0  0  0  0  0  0
    3.2554    0.6103    2.4904 Cl  0  0  0  0  0  0  0  0  0  0  0  0
   -0.8622    0.5700    4.5714 N   0  0  0  0  0  0  0  0  0  0  0  0
   -1.4782    1.2155    3.5950 N   0  0  0  0  0  0  0  0  0  0  0  0
   -0.6826    1.8932    2.8422 N   0  0  0  0  0  2  0  0  0  0  0  0
    0.5166    1.7178    3.3073 N   0  0  0  0  0  0  0  0  0  0  0  0
    1.4541    0.5331    5.1527 N   0  0  0  0  0  0  0  0  0  0  0  0
    1.3065   -0.2425    5.7758 H   0  0  0  0  0  0  0  0  0  0  0  0
    2.3571    0.5879    4.6919 H   0  0  0  0  0  0  0  0  0  0  0  0
    0.4106    0.8917    4.3844 C   0  0  0  0  0  0  0  0  0  0  0  0
   -2.9186    1.1995    3.4428 C   0  0  0  0  0  0  0  0  0  0  0  0
   -3.3709   -0.2597    3.4509 C   0  0  0  0  0  0  0  0  0  0  0  0
   -2.9451   -0.7948    2.6051 H   0  0  0  0  0  0  0  0  0  0  0  0
   -4.4539   -0.3109    3.3853 H   0  0  0  0  0  0  0  0  0  0  0  0
   -3.0474   -0.7438    4.3685 H   0  0  0  0  0  0  0  0  0  0  0  0
   -3.2610    1.8886    2.1283 C   0  0  0  0  0  0  0  0  0  0  0  0
   -2.8754    2.9041    2.1210 H   0  0  0  0  0  0  0  0  0  0  0  0
   -4.3396    1.9159    2.0012 H   0  0  0  0  0  0  0  0  0  0  0  0
   -2.8209    1.3544    1.2905 H   0  0  0  0  0  0  0  0  0  0  0  0
   -3.5031    1.9595    4.6351 C   0  0  0  0  0  0  0  0  0  0  0  0
   -3.1970    1.4865    5.5650 H   0  0  0  0  0  0  0  0  0  0  0  0
   -4.5879    1.9599    4.5791 H   0  0  0  0  0  0  0  0  0  0  0  0
   -3.1525    2.9891    4.6328 H   0  0  0  0  0  0  0  0  0  0  0  0
    5.2487    4.2804    0.5593 N   0  0  0  0  0  0  0  0  0  0  0  0
    5.0100    5.0754    1.5890 N   0  0  0  0  0  0  0  0  0  0  0  0
    4.0401    4.6750    2.3360 N   0  0  0  0  0  2  0  0  0  0  0  0
    3.5909    3.5753    1.8124 N   0  0  0  0  0  0  0  0  0  0  0  0
    4.1242    2.2865   -0.1222 N   0  0  0  0  0  0  0  0  0  0  0  0
    4.8621    2.0675   -0.7697 H   0  0  0  0  0  0  0  0  0  0  0  0
    3.6374    1.5028    0.3011 H   0  0  0  0  0  0  0  0  0  0  0  0
    4.3425    3.3233    0.7057 C   0  0  0  0  0  0  0  0  0  0  0  0
    5.7398    6.3083    1.8031 C   0  0  0  0  0  0  0  0  0  0  0  0
    5.3483    6.8558    3.1696 C   0  0  0  0  0  0  0  0  0  0  0  0
    5.6121    6.1510    3.9536 H   0  0  0  0  0  0  0  0  0  0  0  0
    4.2767    7.0273    3.2166 H   0  0  0  0  0  0  0  0  0  0  0  0
    5.8676    7.7929    3.3492 H   0  0  0  0  0  0  0  0  0  0  0  0
    7.2310    5.9846    1.7300 C   0  0  0  0  0  0  0  0  0  0  0  0
    7.8122    6.8955    1.8399 H   0  0  0  0  0  0  0  0  0  0  0  0
    7.4653    5.5270    0.7726 H   0  0  0  0  0  0  0  0  0  0  0  0
    7.5101    5.2954    2.5237 H   0  0  0  0  0  0  0  0  0  0  0  0
    5.3334    7.2695    0.6843 C   0  0  0  0  0  0  0  0  0  0  0  0
    5.8696    8.2084    0.7889 H   0  0  0  0  0  0  0  0  0  0  0  0
    4.2654    7.4699    0.7307 H   0  0  0  0  0  0  0  0  0  0  0  0
    5.5673    6.8346   -0.2843 H   0  0  0  0  0  0  0  0  0  0  0  0
  1  2  1  0  0  0  0
  1  7  1  0  0  0  0
  3  1  1  0  0  0  0
  5  4  1  0  0  0  0
  6  7  1  0  0  0  0
  6  5  1  0  0  0  0
  7 11  1  0  0  0  0
  8  9  1  0  0  0  0
 10  8  1  0  0  0  0
 11  4  2  0  0  0  0
 11  8  1  0  0  0  0
 12 13  1  0  0  0  0
 12  5  1  0  0  0  0
 12 21  1  0  0  0  0
 13 16  1  0  0  0  0
 14 13  1  0  0  0  0
 15 13  1  0  0  0  0
 17 12  1  0  0  0  0
 18 17  1  0  0  0  0
 19 17  1  0  0  0  0
 20 17  1  0  0  0  0
 21 22  1  0  0  0  0
 23 21  1  0  0  0  0
 24 21  1  0  0  0  0
 25 32  2  0  0  0  0
 25 26  1  0  0  0  0
 26 33  1  0  0  0  0
 26 27  1  0  0  0  0
 28 27  1  0  0  0  0
 28  1  1  0  0  0  0
 29 31  1  0  0  0  0
 29 32  1  0  0  0  0
 30 29  1  0  0  0  0
 32 28  1  0  0  0  0
 33 34  1  0  0  0  0
 34 36  1  0  0  0  0
 34 37  1  0  0  0  0
 34 35  1  0  0  0  0
 38 33  1  0  0  0  0
 38 39  1  0  0  0  0
 38 41  1  0  0  0  0
 40 38  1  0  0  0  0
 42 44  1  0  0  0  0
 42 43  1  0  0  0  0
 42 33  1  0  0  0  0
 45 42  1  0  0  0  0
M  END
$$$$
