CSD_code = WUJRID | q = 0 | S = 0 | Stoichiometry = C12H20CdI2N8 | MND = 6
 OpenBabel04212202113D

 43 44  0  0  1  0  0  0  0  0999 V2000
    7.1623    3.8816    5.7018 N   0  0  0  0  0  0  0  0  0  0  0  0
    7.5790    4.3552    4.9151 H   0  0  0  0  0  0  0  0  0  0  0  0
    6.2130    4.1533    5.8991 H   0  0  0  0  0  0  0  0  0  0  0  0
    8.0185   -4.7034    3.6178 N   0  0  0  0  0  0  0  0  0  0  0  0
    7.6175   -5.1607    4.4221 H   0  0  0  0  0  0  0  0  0  0  0  0
    8.9589   -4.9887    3.3985 H   0  0  0  0  0  0  0  0  0  0  0  0
    6.2473    3.6348    8.5019 C   0  0  0  0  0  0  0  0  0  0  0  0
    6.1505    3.5871    9.5839 H   0  0  0  0  0  0  0  0  0  0  0  0
    5.4437    4.2691    8.1245 H   0  0  0  0  0  0  0  0  0  0  0  0
    7.2007    4.0944    8.2515 H   0  0  0  0  0  0  0  0  0  0  0  0
    5.3804   -1.3264    7.6814 C   0  0  0  0  0  0  0  0  0  0  0  0
    5.1551   -1.7127    6.6864 H   0  0  0  0  0  0  0  0  0  0  0  0
    4.5069   -1.4287    8.3203 H   0  0  0  0  0  0  0  0  0  0  0  0
    6.1954   -1.9167    8.1032 H   0  0  0  0  0  0  0  0  0  0  0  0
    8.8330   -4.5093    0.7788 C   0  0  0  0  0  0  0  0  0  0  0  0
    8.8872   -4.4763   -0.3067 H   0  0  0  0  0  0  0  0  0  0  0  0
    7.8824   -4.9485    1.0728 H   0  0  0  0  0  0  0  0  0  0  0  0
    9.6395   -5.1536    1.1321 H   0  0  0  0  0  0  0  0  0  0  0  0
    9.8228    0.4428    1.5122 C   0  0  0  0  0  0  0  0  0  0  0  0
   10.7407    0.5102    0.9338 H   0  0  0  0  0  0  0  0  0  0  0  0
    9.9811    0.8691    2.5036 H   0  0  0  0  0  0  0  0  0  0  0  0
    9.0484    1.0222    1.0080 H   0  0  0  0  0  0  0  0  0  0  0  0
    5.9828    1.0208    2.9669 I   0  0  0  0  0  0  0  0  0  0  0  0
    9.2879   -1.8095    6.2790 I   0  0  0  0  0  0  0  0  0  0  0  0
    7.6249   -0.4005    4.6288 Cd  0  0  0  0  0  0  0  0  0  0  0  0
    8.4733    1.9659    5.3095 N   0  0  0  0  0  0  0  0  0  0  0  0
    8.9830    2.5408    4.6434 H   0  0  0  0  0  0  0  0  0  0  0  0
    8.4549   -2.6985    2.4977 N   0  0  0  0  0  0  0  0  0  0  0  0
    6.7179    1.8518    6.7748 N   0  0  0  0  0  0  0  0  0  0  0  0
    7.6852   -3.3920    3.4412 C   0  0  0  0  0  0  0  0  0  0  0  0
    6.7357   -2.7681    4.0083 N   0  0  0  0  0  0  0  0  0  0  0  0
    6.2391   -3.3259    4.6985 H   0  0  0  0  0  0  0  0  0  0  0  0
    8.7032   -1.3906    2.6814 N   0  0  0  0  0  0  0  0  0  0  0  0
    5.7952    0.0961    7.5861 C   0  0  2  0  0  3  0  0  0  0  0  0
    6.5017    0.5416    6.5695 N   0  0  0  0  0  0  0  0  0  0  0  0
    6.1523    2.2596    7.9482 C   0  0  0  0  0  0  0  0  0  0  0  0
    7.5037    2.5702    5.8636 C   0  0  0  0  0  0  0  0  0  0  0  0
    8.9742   -3.1298    1.3115 C   0  0  2  0  0  3  0  0  0  0  0  0
    9.3848   -0.9701    1.6377 C   0  0  0  0  0  0  0  0  0  0  0  0
    5.5531    1.1484    8.4906 C   0  0  0  0  0  0  0  0  0  0  0  0
    5.0155    1.0943    9.4151 H   0  0  0  0  0  0  0  0  0  0  0  0
    9.5770   -2.0367    0.7375 C   0  0  0  0  0  0  0  0  0  0  0  0
   10.0850   -2.0030   -0.2045 H   0  0  0  0  0  0  0  0  0  0  0  0
  1 37  1  0  0  0  0
  1  3  1  0  0  0  0
  2  1  1  0  0  0  0
  4  5  1  0  0  0  0
  6  4  1  0  0  0  0
  7  8  1  0  0  0  0
  9  7  1  0  0  0  0
 10  7  1  0  0  0  0
 11 14  1  0  0  0  0
 11 13  1  0  0  0  0
 12 11  1  0  0  0  0
 15 17  1  0  0  0  0
 15 18  1  0  0  0  0
 16 15  1  0  0  0  0
 19 39  1  0  0  0  0
 19 21  1  0  0  0  0
 20 19  1  0  0  0  0
 22 19  1  0  0  0  0
 23 25  1  0  0  0  0
 25 24  1  0  0  0  0
 25 35  1  0  0  0  0
 26 37  2  0  0  0  0
 27 26  1  0  0  0  0
 28 33  1  0  0  0  0
 28 30  1  0  0  0  0
 29 36  1  0  0  0  0
 30  4  1  0  0  0  0
 30 31  2  0  0  0  0
 31 32  1  0  0  0  0
 33 25  1  0  0  0  0
 34 11  1  1  0  0  0
 34 40  1  0  0  0  0
 35 29  1  0  0  0  0
 35 34  1  0  0  0  0
 36 40  2  0  0  0  0
 36  7  1  0  0  0  0
 37 29  1  0  0  0  0
 38 15  1  6  0  0  0
 38 28  1  0  0  0  0
 39 33  1  0  0  0  0
 40 41  1  0  0  0  0
 42 38  1  0  0  0  0
 42 39  2  0  0  0  0
 43 42  1  0  0  0  0
M  END
$$$$
