CSD_code = WUJRAV | q = 0 | S = 0 | Stoichiometry = C12H20Br2CdN8 | MND = 6
 OpenBabel04212202113D

 43 46  0  0  1  0  0  0  0  0999 V2000
    5.7427    0.3562   13.6250 Cd  0  0  0  0  0  0  0  0  0  0  0  0
    4.2725   -1.2764   12.3086 Br  0  0  0  0  0  0  0  0  0  0  0  0
    7.2500    1.9630   14.9326 Br  0  0  0  0  0  0  0  0  0  0  0  0
    6.6405    1.2575   11.6292 N   0  0  1  0  0  0  0  0  0  0  0  0
    6.4630    2.5857   11.5437 N   0  0  0  0  0  0  0  0  0  0  0  0
    5.4688   -3.7856   14.6252 N   0  0  0  0  0  0  0  0  0  0  0  0
    5.9287   -4.2015   13.8288 H   0  0  0  0  0  0  0  0  0  0  0  0
    4.4954   -4.0354   14.7010 H   0  0  0  0  0  0  0  0  0  0  0  0
    4.7810   -0.4779   15.6184 N   0  0  2  0  0  0  0  0  0  0  0  0
    5.9471    4.5243   12.7504 N   0  0  0  0  0  0  0  0  0  0  0  0
    6.9165    4.7866   12.6645 H   0  0  0  0  0  0  0  0  0  0  0  0
    5.4997    4.9082   13.5696 H   0  0  0  0  0  0  0  0  0  0  0  0
    4.9493   -1.8028   15.7562 N   0  0  0  0  0  0  0  0  0  0  0  0
    4.6452    2.5662   12.9301 N   0  0  0  0  0  0  0  0  0  0  0  0
    4.0981    3.0810   13.6154 H   0  0  0  0  0  0  0  0  0  0  0  0
    6.7964   -1.8480   14.4098 N   0  0  0  0  0  0  0  0  0  0  0  0
    7.3533   -2.3891   13.7532 H   0  0  0  0  0  0  0  0  0  0  0  0
    4.0022   -0.0740   16.6004 C   0  0  2  0  0  3  0  0  0  0  0  0
    7.4035    0.8943   10.6194 C   0  0  1  0  0  3  0  0  0  0  0  0
    7.1099    3.0918   10.4554 C   0  0  0  0  0  0  0  0  0  0  0  0
    3.6647   -1.1721   17.4134 C   0  0  0  0  0  0  0  0  0  0  0  0
    3.0539   -1.1612   18.2930 H   0  0  0  0  0  0  0  0  0  0  0  0
    5.6336    3.2247   12.4754 C   0  0  1  0  0  3  0  0  0  0  0  0
    4.2806   -2.2651   16.8505 C   0  0  0  0  0  0  0  0  0  0  0  0
    7.0817    4.5166   10.0366 C   0  0  0  0  0  0  0  0  0  0  0  0
    7.8629    5.0887   10.5387 H   0  0  0  0  0  0  0  0  0  0  0  0
    6.1198    4.9725   10.2591 H   0  0  0  0  0  0  0  0  0  0  0  0
    7.2642    4.5740    8.9662 H   0  0  0  0  0  0  0  0  0  0  0  0
    4.2946   -3.6733   17.3225 C   0  0  0  0  0  0  0  0  0  0  0  0
    4.1031   -3.6894   18.3928 H   0  0  0  0  0  0  0  0  0  0  0  0
    5.2547   -4.1442   17.1252 H   0  0  0  0  0  0  0  0  0  0  0  0
    3.5131   -4.2581   16.8356 H   0  0  0  0  0  0  0  0  0  0  0  0
    5.7919   -2.4812   14.8642 C   0  0  1  0  0  3  0  0  0  0  0  0
    7.7206    2.0238    9.8415 C   0  0  0  0  0  0  0  0  0  0  0  0
    8.3154    2.0488    8.9514 H   0  0  0  0  0  0  0  0  0  0  0  0
    3.5980    1.3491   16.7360 C   0  0  0  0  0  0  0  0  0  0  0  0
    4.4823    1.9856   16.7077 H   0  0  0  0  0  0  0  0  0  0  0  0
    3.0698    1.5062   17.6722 H   0  0  0  0  0  0  0  0  0  0  0  0
    2.9460    1.6304   15.9074 H   0  0  0  0  0  0  0  0  0  0  0  0
    7.8140   -0.5199   10.4246 C   0  0  0  0  0  0  0  0  0  0  0  0
    8.4937   -0.8232   11.2228 H   0  0  0  0  0  0  0  0  0  0  0  0
    8.3142   -0.6417    9.4680 H   0  0  0  0  0  0  0  0  0  0  0  0
    6.9367   -1.1657   10.4597 H   0  0  0  0  0  0  0  0  0  0  0  0
  1 16  1  0  0  0  0
  1  3  1  0  0  0  0
  1  9  1  0  0  0  0
  2  1  1  0  0  0  0
  4  5  1  1  0  0  0
  4  1  1  0  0  0  0
  5 23  1  0  0  0  0
  6  8  1  0  0  0  0
  7  6  1  0  0  0  0
  9 13  1  6  0  0  0
  9 18  1  0  0  0  0
 10 12  1  0  0  0  0
 11 10  1  0  0  0  0
 13 24  1  0  0  0  0
 14 15  1  0  0  0  0
 14  1  1  0  0  0  0
 16 33  1  0  0  0  0
 17 16  1  0  0  0  0
 18 36  1  6  0  0  0
 18 21  1  0  0  0  0
 19 40  1  1  0  0  0
 19  4  1  0  0  0  0
 20  5  1  0  0  0  0
 21 22  1  0  0  0  0
 23 10  1  6  0  0  0
 23 14  1  0  0  0  0
 24 29  1  0  0  0  0
 24 21  2  0  0  0  0
 25 27  1  0  0  0  0
 25 20  1  0  0  0  0
 25 26  1  0  0  0  0
 28 25  1  0  0  0  0
 29 30  1  0  0  0  0
 31 29  1  0  0  0  0
 32 29  1  0  0  0  0
 33  6  1  1  0  0  0
 33 13  1  0  0  0  0
 34 20  2  0  0  0  0
 34 19  1  0  0  0  0
 35 34  1  0  0  0  0
 36 38  1  0  0  0  0
 37 36  1  0  0  0  0
 39 36  1  0  0  0  0
 40 43  1  0  0  0  0
 40 41  1  0  0  0  0
 42 40  1  0  0  0  0
M  END
$$$$
