CSD_code = WUJXEE | q = 0 | S = 0 | Stoichiometry = C27H27Cl2NOP2Pt | MND = 4
 OpenBabel04212202113D

 61 65  0  0  0  0  0  0  0  0999 V2000
    1.8794    2.9779    3.2832 Pt  0  0  0  0  0  0  0  0  0  0  0  0
    0.7509    4.2720    4.8019 Cl  0  0  0  0  0  0  0  0  0  0  0  0
   -0.0102    2.7218    1.9958 Cl  0  0  0  0  0  0  0  0  0  0  0  0
    2.9801    1.6661    1.7827 P   0  0  0  0  0  4  0  0  0  0  0  0
    3.6968    3.0262    4.6349 P   0  0  0  0  0  4  0  0  0  0  0  0
    4.6051    1.6174    1.9070 O   0  0  0  0  0  0  0  0  0  0  0  0
    5.0357    3.7341    3.9151 N   0  0  0  0  0  0  0  0  0  0  0  0
    5.4203    2.7459    1.6570 C   0  0  0  0  0  0  0  0  0  0  0  0
    5.3815    3.0111    0.5932 H   0  0  0  0  0  0  0  0  0  0  0  0
    6.4366    2.4241    1.9062 H   0  0  0  0  0  0  0  0  0  0  0  0
    5.0210    3.9694    2.4909 C   0  0  0  0  0  0  0  0  0  0  0  0
    5.6966    4.7961    2.2517 H   0  0  0  0  0  0  0  0  0  0  0  0
    3.9977    4.2541    2.2034 H   0  0  0  0  0  0  0  0  0  0  0  0
    6.3071    3.9148    4.5862 C   0  0  0  0  0  0  0  0  0  0  0  0
    7.0860    3.2644    4.1764 H   0  0  0  0  0  0  0  0  0  0  0  0
    6.1843    3.6967    5.6462 H   0  0  0  0  0  0  0  0  0  0  0  0
    6.6402    4.9521    4.4829 H   0  0  0  0  0  0  0  0  0  0  0  0
    2.7338    2.0456    0.0171 C   0  0  0  0  0  0  0  0  0  0  0  0
    3.0603    1.1123   -0.9590 C   0  0  0  0  0  0  0  0  0  0  0  0
    3.4214    0.1360   -0.6652 H   0  0  0  0  0  0  0  0  0  0  0  0
    2.9101    1.4384   -2.2947 C   0  0  0  0  0  0  0  0  0  0  0  0
    3.1539    0.7127   -3.0568 H   0  0  0  0  0  0  0  0  0  0  0  0
    2.4393    2.6915   -2.6549 C   0  0  0  0  0  0  0  0  0  0  0  0
    2.3162    2.9391   -3.6990 H   0  0  0  0  0  0  0  0  0  0  0  0
    2.1196    3.6238   -1.6812 C   0  0  0  0  0  0  0  0  0  0  0  0
    1.7482    4.5973   -1.9644 H   0  0  0  0  0  0  0  0  0  0  0  0
    2.2685    3.3028   -0.3440 C   0  0  0  0  0  0  0  0  0  0  0  0
    1.9962    4.0111    0.4296 H   0  0  0  0  0  0  0  0  0  0  0  0
    2.6765   -0.1099    1.9257 C   0  0  0  0  0  0  0  0  0  0  0  0
    1.3466   -0.5196    1.9225 C   0  0  0  0  0  0  0  0  0  0  0  0
    0.5675    0.2232    1.8146 H   0  0  0  0  0  0  0  0  0  0  0  0
    1.0388   -1.8596    2.0636 C   0  0  0  0  0  0  0  0  0  0  0  0
    0.0072   -2.1781    2.0606 H   0  0  0  0  0  0  0  0  0  0  0  0
    2.0534   -2.7919    2.2145 C   0  0  0  0  0  0  0  0  0  0  0  0
    1.8127   -3.8388    2.3285 H   0  0  0  0  0  0  0  0  0  0  0  0
    3.3766   -2.3830    2.2205 C   0  0  0  0  0  0  0  0  0  0  0  0
    4.1667   -3.1103    2.3382 H   0  0  0  0  0  0  0  0  0  0  0  0
    3.6934   -1.0440    2.0776 C   0  0  0  0  0  0  0  0  0  0  0  0
    4.7221   -0.7202    2.0903 H   0  0  0  0  0  0  0  0  0  0  0  0
    3.9944    1.2574    4.9939 C   0  0  0  0  0  0  0  0  0  0  0  0
    2.8389    0.4915    5.1437 C   0  0  0  0  0  0  0  0  0  0  0  0
    1.8695    0.9829    5.0778 H   0  0  0  0  0  0  0  0  0  0  0  0
    2.9244   -0.8664    5.3809 C   0  0  0  0  0  0  0  0  0  0  0  0
    2.0261   -1.4538    5.4966 H   0  0  0  0  0  0  0  0  0  0  0  0
    4.1682   -1.4742    5.4538 C   0  0  0  0  0  0  0  0  0  0  0  0
    4.2393   -2.5373    5.6292 H   0  0  0  0  0  0  0  0  0  0  0  0
    5.3190   -0.7207    5.2969 C   0  0  0  0  0  0  0  0  0  0  0  0
    6.2873   -1.1973    5.3505 H   0  0  0  0  0  0  0  0  0  0  0  0
    5.2368    0.6432    5.0715 C   0  0  0  0  0  0  0  0  0  0  0  0
    6.1385    1.2236    4.9505 H   0  0  0  0  0  0  0  0  0  0  0  0
    3.6799    3.8022    6.2714 C   0  0  0  0  0  0  0  0  0  0  0  0
    3.6512    3.0762    7.4548 C   0  0  0  0  0  0  0  0  0  0  0  0
    3.6904    1.9959    7.4287 H   0  0  0  0  0  0  0  0  0  0  0  0
    3.5677    3.7433    8.6650 C   0  0  0  0  0  0  0  0  0  0  0  0
    3.5450    3.1803    9.5866 H   0  0  0  0  0  0  0  0  0  0  0  0
    3.5025    5.1260    8.6955 C   0  0  0  0  0  0  0  0  0  0  0  0
    3.4282    5.6404    9.6422 H   0  0  0  0  0  0  0  0  0  0  0  0
    3.5186    5.8512    7.5135 C   0  0  0  0  0  0  0  0  0  0  0  0
    3.4515    6.9286    7.5392 H   0  0  0  0  0  0  0  0  0  0  0  0
    3.6025    5.1919    6.3036 C   0  0  0  0  0  0  0  0  0  0  0  0
    3.5913    5.7382    5.3705 H   0  0  0  0  0  0  0  0  0  0  0  0
  1  5  1  0  0  0  0
  1  2  1  0  0  0  0
  3  1  1  0  0  0  0
  4  6  1  0  0  0  0
  4 29  1  0  0  0  0
  4  1  1  0  0  0  0
  5 40  1  0  0  0  0
  5 51  1  0  0  0  0
  7 14  1  0  0  0  0
  7  5  1  0  0  0  0
  8 10  1  0  0  0  0
  8  6  1  0  0  0  0
  8 11  1  0  0  0  0
  9  8  1  0  0  0  0
 11  7  1  0  0  0  0
 12 11  1  0  0  0  0
 13 11  1  0  0  0  0
 14 16  1  0  0  0  0
 15 14  1  0  0  0  0
 17 14  1  0  0  0  0
 18  4  1  0  0  0  0
 19 20  1  0  0  0  0
 19 18  2  0  0  0  0
 21 19  1  0  0  0  0
 22 21  1  0  0  0  0
 23 21  2  0  0  0  0
 23 25  1  0  0  0  0
 24 23  1  0  0  0  0
 25 27  2  0  0  0  0
 26 25  1  0  0  0  0
 27 18  1  0  0  0  0
 27 28  1  0  0  0  0
 29 38  1  0  0  0  0
 30 29  2  0  0  0  0
 30 32  1  0  0  0  0
 31 30  1  0  0  0  0
 32 34  2  0  0  0  0
 33 32  1  0  0  0  0
 34 36  1  0  0  0  0
 34 35  1  0  0  0  0
 36 37  1  0  0  0  0
 38 39  1  0  0  0  0
 38 36  2  0  0  0  0
 40 49  2  0  0  0  0
 40 41  1  0  0  0  0
 41 43  2  0  0  0  0
 42 41  1  0  0  0  0
 43 45  1  0  0  0  0
 43 44  1  0  0  0  0
 45 46  1  0  0  0  0
 47 48  1  0  0  0  0
 47 45  2  0  0  0  0
 49 47  1  0  0  0  0
 50 49  1  0  0  0  0
 51 60  2  0  0  0  0
 51 52  1  0  0  0  0
 52 54  2  0  0  0  0
 53 52  1  0  0  0  0
 54 56  1  0  0  0  0
 54 55  1  0  0  0  0
 56 57  1  0  0  0  0
 58 59  1  0  0  0  0
 58 56  2  0  0  0  0
 60 58  1  0  0  0  0
 61 60  1  0  0  0  0
M  END
$$$$
