CSD_code = WUKBIP | q = 0 | S = 0 | Stoichiometry = C28H30CdI2N4 | MND = 4
 OpenBabel04212202113D

 65 68  0  0  0  0  0  0  0  0999 V2000
    6.9431    7.0034    2.1903 I   0  0  0  0  0  0  0  0  0  0  0  0
   11.6700    7.1482    2.6321 I   0  0  0  0  0  0  0  0  0  0  0  0
    9.4148    7.1685    1.1423 Cd  0  0  0  0  0  0  0  0  0  0  0  0
    9.8375    5.9341   -0.7872 N   0  0  0  0  0  0  0  0  0  0  0  0
   10.7416   -0.5656    5.1784 N   0  0  0  0  0  0  0  0  0  0  0  0
    9.7441    8.6514   -0.6255 N   0  0  0  0  0  0  0  0  0  0  0  0
   10.7782    0.2617    4.0993 C   0  0  0  0  0  0  0  0  0  0  0  0
   10.2707    4.0065    0.5028 C   0  0  0  0  0  0  0  0  0  0  0  0
   11.4608    0.7286    1.8255 C   0  0  0  0  0  0  0  0  0  0  0  0
   10.1615    1.5286    4.1228 C   0  0  0  0  0  0  0  0  0  0  0  0
    9.8867   11.7556    3.5946 C   0  0  0  0  0  0  0  0  0  0  0  0
    9.8008    6.0541   -3.2206 C   0  0  0  0  0  0  0  0  0  0  0  0
   10.8349    1.9856    1.8415 C   0  0  0  0  0  0  0  0  0  0  0  0
    9.7087   13.7981    7.2607 C   0  0  0  0  0  0  0  0  0  0  0  0
    9.7811    8.0724   -1.8779 C   0  0  0  0  0  0  0  0  0  0  0  0
   10.2678   14.4209    6.0852 N   0  0  0  0  0  0  0  0  0  0  0  0
   10.9777   14.2915    3.7797 C   0  0  0  0  0  0  0  0  0  0  0  0
   10.0582   10.4361    0.8851 C   0  0  0  0  0  0  0  0  0  0  0  0
    9.6967    8.8176   -3.0563 C   0  0  0  0  0  0  0  0  0  0  0  0
   10.8900    2.8118    0.6785 C   0  0  0  0  0  3  0  0  0  0  0  0
   10.3872    4.7696   -0.6820 C   0  0  0  0  0  0  0  0  0  0  0  0
    9.8326    6.6586   -1.9617 C   0  0  0  0  0  0  0  0  0  0  0  0
    9.7301    6.8131   -4.3705 C   0  0  0  0  0  0  0  0  0  0  0  0
   11.3379   -1.8774    5.1190 C   0  0  0  0  0  0  0  0  0  0  0  0
    9.6768    8.1968   -4.2883 C   0  0  0  0  0  0  0  0  0  0  0  0
   11.4335   -0.1104    2.9093 C   0  0  0  0  0  0  0  0  0  0  0  0
   10.5975   11.6400    1.2035 C   0  0  0  0  0  3  0  0  0  0  0  0
   10.7523   15.7759    6.1827 C   0  0  0  0  0  0  0  0  0  0  0  0
   10.1876    2.3571    3.0318 C   0  0  0  0  0  0  0  0  0  0  0  0
   10.5017   12.3107    2.4601 C   0  0  0  0  0  0  0  0  0  0  0  0
   11.0501   13.5959    2.6006 C   0  0  0  0  0  0  0  0  0  0  0  0
   10.2127    9.8308   -0.3835 C   0  0  0  0  0  0  0  0  0  0  0  0
    9.8144   12.4405    4.7789 C   0  0  0  0  0  0  0  0  0  0  0  0
   10.3508   13.7369    4.9126 C   0  0  0  0  0  0  0  0  0  0  0  0
    9.6406    4.4190    1.2872 H   0  0  0  0  0  0  0  0  0  0  0  0
   11.9775    0.4127    0.9298 H   0  0  0  0  0  0  0  0  0  0  0  0
    9.6533    1.8681    5.0094 H   0  0  0  0  0  0  0  0  0  0  0  0
    9.4650   10.7634    3.5505 H   0  0  0  0  0  0  0  0  0  0  0  0
    9.7892    4.9758   -3.2877 H   0  0  0  0  0  0  0  0  0  0  0  0
    9.8313   14.4586    8.1154 H   0  0  0  0  0  0  0  0  0  0  0  0
    8.6406   13.5962    7.1335 H   0  0  0  0  0  0  0  0  0  0  0  0
   10.2187   12.8576    7.4833 H   0  0  0  0  0  0  0  0  0  0  0  0
   11.4212   15.2723    3.8278 H   0  0  0  0  0  0  0  0  0  0  0  0
    9.4692    9.8877    1.6164 H   0  0  0  0  0  0  0  0  0  0  0  0
    9.6061    9.8926   -2.9955 H   0  0  0  0  0  0  0  0  0  0  0  0
   11.4884    2.4268   -0.1406 H   0  0  0  0  0  0  0  0  0  0  0  0
   10.9782    4.3474   -1.5008 H   0  0  0  0  0  0  0  0  0  0  0  0
    9.6971    6.3260   -5.3334 H   0  0  0  0  0  0  0  0  0  0  0  0
   11.1374   -2.4111    6.0446 H   0  0  0  0  0  0  0  0  0  0  0  0
   10.9174   -2.4604    4.2949 H   0  0  0  0  0  0  0  0  0  0  0  0
   12.4230   -1.8170    4.9874 H   0  0  0  0  0  0  0  0  0  0  0  0
    9.6028    8.7906   -5.1869 H   0  0  0  0  0  0  0  0  0  0  0  0
   11.9334   -1.0621    2.8368 H   0  0  0  0  0  0  0  0  0  0  0  0
   11.1620   12.1605    0.4371 H   0  0  0  0  0  0  0  0  0  0  0  0
   10.4844   16.1895    7.1519 H   0  0  0  0  0  0  0  0  0  0  0  0
   11.8416   15.8202    6.0802 H   0  0  0  0  0  0  0  0  0  0  0  0
   10.3022   16.4059    5.4111 H   0  0  0  0  0  0  0  0  0  0  0  0
    9.7078    3.3204    3.1085 H   0  0  0  0  0  0  0  0  0  0  0  0
   11.5405   14.0515    1.7515 H   0  0  0  0  0  0  0  0  0  0  0  0
   10.7672   10.3862   -1.1464 H   0  0  0  0  0  0  0  0  0  0  0  0
    9.3301   11.9651    5.6150 H   0  0  0  0  0  0  0  0  0  0  0  0
   10.1277   -0.1367    6.4119 C   0  0  0  0  0  0  0  0  0  0  0  0
   10.2600   -0.9042    7.1702 H   0  0  0  0  0  0  0  0  0  0  0  0
   10.5871    0.7853    6.7780 H   0  0  0  0  0  0  0  0  0  0  0  0
    9.0549    0.0341    6.2819 H   0  0  0  0  0  0  0  0  0  0  0  0
  3  1  1  0  0  0  0
  3  2  1  0  0  0  0
  4 21  1  0  0  0  0
  4  3  1  0  0  0  0
  5 62  1  0  0  0  0
  6 32  1  0  0  0  0
  6  3  1  0  0  0  0
  7 10  1  0  0  0  0
  7  5  1  0  0  0  0
  8 20  1  0  0  0  0
  8 35  1  0  0  0  0
  9 13  2  0  0  0  0
  9 26  1  0  0  0  0
 10 37  1  0  0  0  0
 11 33  1  0  0  0  0
 12 22  1  0  0  0  0
 13 29  1  0  0  0  0
 14 42  1  0  0  0  0
 14 40  1  0  0  0  0
 15  6  1  0  0  0  0
 16 28  1  0  0  0  0
 16 14  1  0  0  0  0
 17 43  1  0  0  0  0
 17 34  1  0  0  0  0
 18 27  1  0  0  0  0
 18 44  1  0  0  0  0
 19 45  1  0  0  0  0
 19 15  1  0  0  0  0
 20 13  1  0  0  0  0
 21  8  2  0  0  0  0
 22 15  2  0  0  0  0
 22  4  1  0  0  0  0
 23 25  1  0  0  0  0
 23 12  2  0  0  0  0
 24  5  1  0  0  0  0
 24 49  1  0  0  0  0
 25 19  2  0  0  0  0
 26  7  2  0  0  0  0
 27 30  1  0  0  0  0
 28 55  1  0  0  0  0
 29 58  1  0  0  0  0
 29 10  2  0  0  0  0
 30 31  1  0  0  0  0
 30 11  2  0  0  0  0
 31 17  2  0  0  0  0
 32 18  2  0  0  0  0
 33 34  2  0  0  0  0
 33 61  1  0  0  0  0
 34 16  1  0  0  0  0
 36  9  1  0  0  0  0
 38 11  1  0  0  0  0
 39 12  1  0  0  0  0
 41 14  1  0  0  0  0
 46 20  1  0  0  0  0
 47 21  1  0  0  0  0
 48 23  1  0  0  0  0
 50 24  1  0  0  0  0
 51 24  1  0  0  0  0
 52 25  1  0  0  0  0
 53 26  1  0  0  0  0
 54 27  1  0  0  0  0
 56 28  1  0  0  0  0
 57 28  1  0  0  0  0
 59 31  1  0  0  0  0
 60 32  1  0  0  0  0
 62 64  1  0  0  0  0
 62 63  1  0  0  0  0
 65 62  1  0  0  0  0
M  END
$$$$
