CSD_code = WUKCAG | q = 0 | S = 0 | Stoichiometry = C26H22ClCuN6O2S2 | MND = 3
 OpenBabel04212202113D

 60 63  0  0  1  0  0  0  0  0999 V2000
    3.0547    4.4604    4.4377 Cu  0  0  0  0  0  0  0  0  0  0  0  0
    5.3134    4.2953    4.4161 Cl  0  0  0  0  0  0  0  0  0  0  0  0
    2.0674    6.5286    4.7559 S   0  0  0  0  0  0  0  0  0  0  0  0
    1.7702    2.5572    4.1483 S   0  0  0  0  0  0  0  0  0  0  0  0
    0.7439    9.0754    4.9825 O   0  0  0  0  0  0  0  0  0  0  0  0
    0.0936    0.2684    3.6301 O   0  0  0  0  0  0  0  0  0  0  0  0
    3.0317    8.9889    5.0866 N   0  0  0  0  0  0  0  0  0  0  0  0
    4.5817    7.3021    4.8456 N   0  0  0  0  0  0  0  0  0  0  0  0
    5.6029    9.3913    5.1433 N   0  0  0  0  0  0  0  0  0  0  0  0
    2.3608   -0.0168    3.8064 N   0  0  0  0  0  0  0  0  0  0  0  0
    4.1436    1.4265    4.0158 N   0  0  0  0  0  0  0  0  0  0  0  0
    4.8426   -0.7953    3.7494 N   0  0  0  0  0  0  0  0  0  0  0  0
    2.9856   11.6763    6.0746 C   0  0  0  0  0  0  0  0  0  0  0  0
    3.0035   13.0435    6.2856 C   0  0  0  0  0  0  0  0  0  0  0  0
    1.9675   13.8391    5.8233 C   0  0  0  0  0  0  0  0  0  0  0  0
    0.8965   13.2626    5.1598 C   0  0  0  0  0  0  0  0  0  0  0  0
    0.8689   11.8967    4.9538 C   0  0  0  0  0  0  0  0  0  0  0  0
    1.9184   11.0928    5.3952 C   0  0  0  0  0  0  0  0  0  0  0  0
    1.8005    9.6298    5.1422 C   0  0  0  0  0  0  0  0  0  0  0  0
    3.2762    7.6683    4.9002 C   0  0  1  0  0  3  0  0  0  0  0  0
    5.7183    8.0767    4.9571 C   0  0  0  0  0  0  0  0  0  0  0  0
    6.9667    7.4452    4.8710 C   0  0  0  0  0  0  0  0  0  0  0  0
    8.1005    8.2202    4.9839 C   0  0  0  0  0  0  0  0  0  0  0  0
    7.9744    9.5936    5.1761 C   0  0  0  0  0  0  0  0  0  0  0  0
    6.7026   10.1246    5.2472 C   0  0  0  0  0  0  0  0  0  0  0  0
   -0.1709   -2.4566    2.9204 C   0  0  0  0  0  0  0  0  0  0  0  0
   -0.3446   -3.8217    2.7965 C   0  0  0  0  0  0  0  0  0  0  0  0
    0.5918   -4.6887    3.3359 C   0  0  0  0  0  0  0  0  0  0  0  0
    1.6964   -4.1850    4.0040 C   0  0  0  0  0  0  0  0  0  0  0  0
    1.8806   -2.8189    4.1229 C   0  0  0  0  0  0  0  0  0  0  0  0
    0.9490   -1.9423    3.5712 C   0  0  0  0  0  0  0  0  0  0  0  0
    1.0507   -0.4602    3.6759 C   0  0  0  0  0  0  0  0  0  0  0  0
    2.7981    1.2555    3.9759 C   0  0  2  0  0  3  0  0  0  0  0  0
    5.1526    0.4909    3.9121 C   0  0  0  0  0  0  0  0  0  0  0  0
    6.4812    0.9312    3.9849 C   0  0  0  0  0  0  0  0  0  0  0  0
    7.4869   -0.0050    3.8819 C   0  0  0  0  0  0  0  0  0  0  0  0
    7.1579   -1.3472    3.7094 C   0  0  0  0  0  0  0  0  0  0  0  0
    5.8210   -1.6842    3.6501 C   0  0  0  0  0  0  0  0  0  0  0  0
    3.7899   11.0727    6.4687 H   0  0  0  0  0  0  0  0  0  0  0  0
    3.8294   13.4918    6.8185 H   0  0  0  0  0  0  0  0  0  0  0  0
    1.9917   14.9060    5.9885 H   0  0  0  0  0  0  0  0  0  0  0  0
    0.0823   13.8782    4.8081 H   0  0  0  0  0  0  0  0  0  0  0  0
    0.0398   11.4257    4.4476 H   0  0  0  0  0  0  0  0  0  0  0  0
    3.9054    9.5447    5.1487 H   0  0  0  0  0  0  0  0  0  0  0  0
    4.7611    6.2972    4.7040 H   0  0  0  0  0  0  0  0  0  0  0  0
    7.0180    6.3789    4.7202 H   0  0  0  0  0  0  0  0  0  0  0  0
    9.0775    7.7648    4.9229 H   0  0  0  0  0  0  0  0  0  0  0  0
    8.8410   10.2279    5.2671 H   0  0  0  0  0  0  0  0  0  0  0  0
    6.5335   11.1830    5.3937 H   0  0  0  0  0  0  0  0  0  0  0  0
   -0.8934   -1.7636    2.5165 H   0  0  0  0  0  0  0  0  0  0  0  0
   -1.2118   -4.2111    2.2846 H   0  0  0  0  0  0  0  0  0  0  0  0
    0.4578   -5.7564    3.2441 H   0  0  0  0  0  0  0  0  0  0  0  0
    2.4167   -4.8619    4.4396 H   0  0  0  0  0  0  0  0  0  0  0  0
    2.7338   -2.4486    4.6720 H   0  0  0  0  0  0  0  0  0  0  0  0
    3.1432   -0.6933    3.7253 H   0  0  0  0  0  0  0  0  0  0  0  0
    4.4702    2.3952    4.1469 H   0  0  0  0  0  0  0  0  0  0  0  0
    6.6907    1.9803    4.1191 H   0  0  0  0  0  0  0  0  0  0  0  0
    8.5210    0.3010    3.9348 H   0  0  0  0  0  0  0  0  0  0  0  0
    7.9205   -2.1038    3.6241 H   0  0  0  0  0  0  0  0  0  0  0  0
    5.4957   -2.7073    3.5154 H   0  0  0  0  0  0  0  0  0  0  0  0
  1  3  1  0  0  0  0
  2  1  1  0  0  0  0
  4  1  1  0  0  0  0
  5 19  2  0  0  0  0
  6 32  2  0  0  0  0
  7 19  1  0  0  0  0
  7 44  1  0  0  0  0
  8 20  1  0  0  0  0
  8 21  1  0  0  0  0
  9 25  1  0  0  0  0
 10 33  1  0  0  0  0
 11 56  1  0  0  0  0
 12 34  1  0  0  0  0
 13 14  1  0  0  0  0
 13 39  1  0  0  0  0
 14 40  1  0  0  0  0
 15 41  1  0  0  0  0
 15 14  2  0  0  0  0
 16 15  1  0  0  0  0
 17 16  2  0  0  0  0
 17 18  1  0  0  0  0
 18 13  2  0  0  0  0
 19 18  1  0  0  0  0
 20  3  1  1  0  0  0
 20  7  1  0  0  0  0
 21  9  2  0  0  0  0
 22 21  1  0  0  0  0
 22 23  2  0  0  0  0
 23 24  1  0  0  0  0
 24 25  2  0  0  0  0
 24 48  1  0  0  0  0
 25 49  1  0  0  0  0
 26 31  1  0  0  0  0
 27 26  2  0  0  0  0
 27 28  1  0  0  0  0
 28 29  2  0  0  0  0
 29 30  1  0  0  0  0
 29 53  1  0  0  0  0
 30 54  1  0  0  0  0
 31 32  1  0  0  0  0
 31 30  2  0  0  0  0
 32 10  1  0  0  0  0
 33 11  1  0  0  0  0
 33  4  1  1  0  0  0
 34 35  2  0  0  0  0
 34 11  1  0  0  0  0
 35 57  1  0  0  0  0
 36 58  1  0  0  0  0
 36 35  1  0  0  0  0
 37 36  2  0  0  0  0
 38 37  1  0  0  0  0
 38 12  2  0  0  0  0
 42 16  1  0  0  0  0
 43 17  1  0  0  0  0
 45  8  1  0  0  0  0
 46 22  1  0  0  0  0
 47 23  1  0  0  0  0
 50 26  1  0  0  0  0
 51 27  1  0  0  0  0
 52 28  1  0  0  0  0
 55 10  1  0  0  0  0
 59 37  1  0  0  0  0
 60 38  1  0  0  0  0
M  END
$$$$
