CSD_code = WUKCIO | q = 1 | S = 0 | Stoichiometry = C21H36ClN6Zn(1+) | MND = 4
 OpenBabel04212202113D

 65 67  0  0  1  0  0  0  0  0999 V2000
    9.7219    7.6817    9.4243 Zn  0  0  2  0  0  0  0  0  0  0  0  0
   11.4919    8.9860    9.2239 Cl  0  0  0  0  0  0  0  0  0  0  0  0
    8.6937    8.6138   10.8529 N   0  0  0  0  0  0  0  0  0  0  0  0
    9.2433    9.7267   11.3612 N   0  0  0  0  0  0  0  0  0  0  0  0
   10.1290   10.0604   11.0006 H   0  0  0  0  0  0  0  0  0  0  0  0
    8.4913   10.2662   12.3303 C   0  0  1  0  0  3  0  0  0  0  0  0
    7.3807    9.4426   12.4537 C   0  0  0  0  0  0  0  0  0  0  0  0
    6.5583    9.5537   13.1273 H   0  0  0  0  0  0  0  0  0  0  0  0
    7.5549    8.4332   11.5156 C   0  0  0  0  0  0  0  0  0  0  0  0
    6.9182    7.5992   11.2950 H   0  0  0  0  0  0  0  0  0  0  0  0
    8.8983   11.5141   13.0556 C   0  0  0  0  0  0  0  0  0  0  0  0
   10.2445   11.2641   13.7502 C   0  0  0  0  0  0  0  0  0  0  0  0
   10.1695   10.4244   14.4373 H   0  0  0  0  0  0  0  0  0  0  0  0
   10.5318   12.1447   14.3179 H   0  0  0  0  0  0  0  0  0  0  0  0
   11.0319   11.0547   13.0298 H   0  0  0  0  0  0  0  0  0  0  0  0
    9.0378   12.6565   12.0397 C   0  0  0  0  0  0  0  0  0  0  0  0
    9.8160   12.4484   11.3091 H   0  0  0  0  0  0  0  0  0  0  0  0
    9.2980   13.5755   12.5575 H   0  0  0  0  0  0  0  0  0  0  0  0
    8.0998   12.8155   11.5127 H   0  0  0  0  0  0  0  0  0  0  0  0
    7.8419   11.8803   14.0991 C   0  0  0  0  0  0  0  0  0  0  0  0
    6.8792   12.0591   13.6277 H   0  0  0  0  0  0  0  0  0  0  0  0
    8.1389   12.7865   14.6196 H   0  0  0  0  0  0  0  0  0  0  0  0
    7.7330   11.0865   14.8334 H   0  0  0  0  0  0  0  0  0  0  0  0
   10.5793    5.9612    9.9549 N   0  0  0  0  0  0  0  0  0  0  0  0
   11.9160    5.9698   10.0667 N   0  0  0  0  0  0  0  0  0  0  0  0
   12.4267    6.8280    9.8940 H   0  0  0  0  0  0  0  0  0  0  0  0
   12.4036    4.7697   10.4093 C   0  0  1  0  0  3  0  0  0  0  0  0
   11.3036    3.9306   10.5262 C   0  0  0  0  0  0  0  0  0  0  0  0
   11.2994    2.8936   10.7857 H   0  0  0  0  0  0  0  0  0  0  0  0
   10.1974    4.7182   10.2345 C   0  0  0  0  0  0  0  0  0  0  0  0
    9.1607    4.4453   10.2144 H   0  0  0  0  0  0  0  0  0  0  0  0
   13.8721    4.5275   10.5940 C   0  0  0  0  0  0  0  0  0  0  0  0
   14.5970    4.8541    9.2807 C   0  0  0  0  0  0  0  0  0  0  0  0
   14.2078    4.2452    8.4679 H   0  0  0  0  0  0  0  0  0  0  0  0
   15.6574    4.6432    9.3870 H   0  0  0  0  0  0  0  0  0  0  0  0
   14.4860    5.9025    9.0140 H   0  0  0  0  0  0  0  0  0  0  0  0
   14.1177    3.0648   10.9669 C   0  0  0  0  0  0  0  0  0  0  0  0
   13.6154    2.8141   11.8975 H   0  0  0  0  0  0  0  0  0  0  0  0
   15.1823    2.8933   11.0986 H   0  0  0  0  0  0  0  0  0  0  0  0
   13.7606    2.4012   10.1837 H   0  0  0  0  0  0  0  0  0  0  0  0
   14.3874    5.4400   11.7159 C   0  0  0  0  0  0  0  0  0  0  0  0
   14.2717    6.4907   11.4599 H   0  0  0  0  0  0  0  0  0  0  0  0
   15.4429    5.2478   11.8865 H   0  0  0  0  0  0  0  0  0  0  0  0
   13.8511    5.2468   12.6421 H   0  0  0  0  0  0  0  0  0  0  0  0
    8.9995    7.7050    7.5695 N   0  0  0  0  0  0  0  0  0  0  0  0
    9.7223    8.3679    6.6541 N   0  0  0  0  0  0  0  0  0  0  0  0
   10.5607    8.8603    6.9388 H   0  0  0  0  0  0  0  0  0  0  0  0
    9.1879    8.2830    5.4283 C   0  0  2  0  0  3  0  0  0  0  0  0
    8.0415    7.5116    5.5648 C   0  0  0  0  0  0  0  0  0  0  0  0
    7.3520    7.2276    4.7991 H   0  0  0  0  0  0  0  0  0  0  0  0
    7.9702    7.1789    6.9113 C   0  0  0  0  0  0  0  0  0  0  0  0
    7.2327    6.5932    7.4238 H   0  0  0  0  0  0  0  0  0  0  0  0
    9.8154    8.9409    4.2357 C   0  0  0  0  0  0  0  0  0  0  0  0
   11.2460    8.4091    4.0704 C   0  0  0  0  0  0  0  0  0  0  0  0
   11.8689    8.6672    4.9237 H   0  0  0  0  0  0  0  0  0  0  0  0
   11.6958    8.8422    3.1814 H   0  0  0  0  0  0  0  0  0  0  0  0
   11.2409    7.3274    3.9575 H   0  0  0  0  0  0  0  0  0  0  0  0
    9.8456   10.4583    4.4668 C   0  0  0  0  0  0  0  0  0  0  0  0
    8.8395   10.8411    4.6211 H   0  0  0  0  0  0  0  0  0  0  0  0
   10.2687   10.9516    3.5963 H   0  0  0  0  0  0  0  0  0  0  0  0
   10.4523   10.7176    5.3315 H   0  0  0  0  0  0  0  0  0  0  0  0
    9.0025    8.6277    2.9786 C   0  0  0  0  0  0  0  0  0  0  0  0
    8.9644    7.5562    2.8004 H   0  0  0  0  0  0  0  0  0  0  0  0
    9.4639    9.0999    2.1159 H   0  0  0  0  0  0  0  0  0  0  0  0
    7.9879    9.0060    3.0707 H   0  0  0  0  0  0  0  0  0  0  0  0
  1  2  1  6  0  0  0
  1 24  1  0  0  0  0
  1  3  1  0  0  0  0
  3  4  1  0  0  0  0
  3  9  1  0  0  0  0
  4  6  1  0  0  0  0
  5  4  1  0  0  0  0
  6  7  1  0  0  0  0
  6 11  1  1  0  0  0
  7  8  1  0  0  0  0
  9  7  2  0  0  0  0
 10  9  1  0  0  0  0
 11 12  1  0  0  0  0
 11 20  1  0  0  0  0
 12 14  1  0  0  0  0
 12 13  1  0  0  0  0
 15 12  1  0  0  0  0
 16 18  1  0  0  0  0
 16 11  1  0  0  0  0
 17 16  1  0  0  0  0
 19 16  1  0  0  0  0
 20 22  1  0  0  0  0
 20 23  1  0  0  0  0
 21 20  1  0  0  0  0
 24 25  1  0  0  0  0
 24 30  1  0  0  0  0
 25 27  1  0  0  0  0
 26 25  1  0  0  0  0
 27 28  1  0  0  0  0
 27 32  1  6  0  0  0
 28 29  1  0  0  0  0
 30 28  2  0  0  0  0
 31 30  1  0  0  0  0
 32 37  1  0  0  0  0
 32 41  1  0  0  0  0
 33 35  1  0  0  0  0
 33 32  1  0  0  0  0
 34 33  1  0  0  0  0
 36 33  1  0  0  0  0
 37 39  1  0  0  0  0
 37 38  1  0  0  0  0
 40 37  1  0  0  0  0
 41 43  1  0  0  0  0
 41 44  1  0  0  0  0
 42 41  1  0  0  0  0
 45  1  1  0  0  0  0
 46 47  1  0  0  0  0
 46 45  1  0  0  0  0
 48 53  1  6  0  0  0
 48 49  1  0  0  0  0
 48 46  1  0  0  0  0
 49 51  2  0  0  0  0
 50 49  1  0  0  0  0
 51 52  1  0  0  0  0
 51 45  1  0  0  0  0
 53 58  1  0  0  0  0
 54 53  1  0  0  0  0
 54 55  1  0  0  0  0
 56 54  1  0  0  0  0
 57 54  1  0  0  0  0
 58 59  1  0  0  0  0
 58 61  1  0  0  0  0
 60 58  1  0  0  0  0
 62 65  1  0  0  0  0
 62 53  1  0  0  0  0
 63 62  1  0  0  0  0
 64 62  1  0  0  0  0
M  END
$$$$
