CSD_code = WULNAU | q = 0 | S = 0 | Stoichiometry = C22H18Cl2N2Pt | MND = 4
 OpenBabel04212202113D

 45 48  0  0  0  0  0  0  0  0999 V2000
    0.0370    0.4060    8.5230 Pt  0  0  0  0  0  0  0  0  0  0  0  0
   -0.0337   -1.3553    7.1340 Cl  0  0  0  0  0  0  0  0  0  0  0  0
    0.1429   -0.9367   10.3188 Cl  0  0  0  0  0  0  0  0  0  0  0  0
    0.1206    1.9720    9.7894 N   0  0  0  0  0  0  0  0  0  0  0  0
   -0.0709    1.5877    6.8933 N   0  0  0  0  0  0  0  0  0  0  0  0
   -0.8313    2.9034    9.8104 C   0  0  0  0  0  3  0  0  0  0  0  0
   -1.6038    2.8263    9.0545 H   0  0  0  0  0  0  0  0  0  0  0  0
   -0.8606    3.9443   10.7321 C   0  0  0  0  0  0  0  0  0  0  0  0
    0.1702    4.0053   11.6717 C   0  0  0  0  0  0  0  0  0  0  0  0
    0.1784    4.7843   12.4187 H   0  0  0  0  0  0  0  0  0  0  0  0
    1.1579    3.0370   11.6451 C   0  0  0  0  0  0  0  0  0  0  0  0
    1.9637    3.0490   12.3615 H   0  0  0  0  0  0  0  0  0  0  0  0
    1.1002    2.0342   10.6939 C   0  0  0  0  0  0  0  0  0  0  0  0
    1.8418    1.2478   10.6571 H   0  0  0  0  0  0  0  0  0  0  0  0
   -1.9428    4.9373   10.7096 C   0  0  0  0  0  0  0  0  0  0  0  0
   -3.2613    4.5445   10.4910 C   0  0  0  0  0  0  0  0  0  0  0  0
   -3.4920    3.4981   10.3577 H   0  0  0  0  0  0  0  0  0  0  0  0
   -4.2768    5.4827   10.4802 C   0  0  0  0  0  0  0  0  0  0  0  0
   -5.2966    5.1666   10.3194 H   0  0  0  0  0  0  0  0  0  0  0  0
   -3.9900    6.8232   10.6784 C   0  0  0  0  0  0  0  0  0  0  0  0
   -4.7842    7.5544   10.6690 H   0  0  0  0  0  0  0  0  0  0  0  0
   -2.6812    7.2228   10.8916 C   0  0  0  0  0  0  0  0  0  0  0  0
   -2.4524    8.2670   11.0447 H   0  0  0  0  0  0  0  0  0  0  0  0
   -1.6639    6.2871   10.9116 C   0  0  0  0  0  0  0  0  0  0  0  0
   -0.6426    6.6048   11.0628 H   0  0  0  0  0  0  0  0  0  0  0  0
    0.8747    2.4857    6.6227 C   0  0  0  0  0  3  0  0  0  0  0  0
    1.6440    2.6231    7.3735 H   0  0  0  0  0  0  0  0  0  0  0  0
    0.9021    3.2363    5.4525 C   0  0  0  0  0  0  0  0  0  0  0  0
   -0.1250    3.0322    4.5292 C   0  0  0  0  0  0  0  0  0  0  0  0
   -0.1343    3.5778    3.5981 H   0  0  0  0  0  0  0  0  0  0  0  0
   -1.1071    2.1011    4.8159 C   0  0  0  0  0  0  0  0  0  0  0  0
   -1.9098    1.9118    4.1212 H   0  0  0  0  0  0  0  0  0  0  0  0
   -1.0470    1.3946    6.0038 C   0  0  0  0  0  0  0  0  0  0  0  0
   -1.7841    0.6430    6.2514 H   0  0  0  0  0  0  0  0  0  0  0  0
    1.9800    4.2035    5.2070 C   0  0  0  0  0  0  0  0  0  0  0  0
    3.2989    3.8904    5.5281 C   0  0  0  0  0  0  0  0  0  0  0  0
    3.5324    2.9207    5.9417 H   0  0  0  0  0  0  0  0  0  0  0  0
    4.3115    4.8000    5.2863 C   0  0  0  0  0  0  0  0  0  0  0  0
    5.3315    4.5435    5.5302 H   0  0  0  0  0  0  0  0  0  0  0  0
    4.0211    6.0348    4.7299 C   0  0  0  0  0  0  0  0  0  0  0  0
    4.8130    6.7440    4.5424 H   0  0  0  0  0  0  0  0  0  0  0  0
    2.7119    6.3559    4.4120 C   0  0  0  0  0  0  0  0  0  0  0  0
    2.4805    7.3182    3.9801 H   0  0  0  0  0  0  0  0  0  0  0  0
    1.6975    5.4461    4.6445 C   0  0  0  0  0  0  0  0  0  0  0  0
    0.6758    5.7065    4.4091 H   0  0  0  0  0  0  0  0  0  0  0  0
  1  4  1  0  0  0  0
  1  3  1  0  0  0  0
  2  1  1  0  0  0  0
  4  6  1  0  0  0  0
  4 13  1  0  0  0  0
  5  1  1  0  0  0  0
  6  8  1  0  0  0  0
  7  6  1  0  0  0  0
  8  9  2  0  0  0  0
  9 10  1  0  0  0  0
 11  9  1  0  0  0  0
 11 12  1  0  0  0  0
 13 11  2  0  0  0  0
 14 13  1  0  0  0  0
 15  8  1  0  0  0  0
 15 24  1  0  0  0  0
 16 15  2  0  0  0  0
 17 16  1  0  0  0  0
 18 16  1  0  0  0  0
 18 20  2  0  0  0  0
 19 18  1  0  0  0  0
 20 22  1  0  0  0  0
 21 20  1  0  0  0  0
 22 24  2  0  0  0  0
 22 23  1  0  0  0  0
 24 25  1  0  0  0  0
 26  5  1  0  0  0  0
 26 27  1  0  0  0  0
 28 26  1  0  0  0  0
 29 31  1  0  0  0  0
 29 28  2  0  0  0  0
 30 29  1  0  0  0  0
 31 33  2  0  0  0  0
 32 31  1  0  0  0  0
 33 34  1  0  0  0  0
 33  5  1  0  0  0  0
 35 28  1  0  0  0  0
 35 36  1  0  0  0  0
 36 37  1  0  0  0  0
 38 36  2  0  0  0  0
 38 39  1  0  0  0  0
 40 38  1  0  0  0  0
 41 40  1  0  0  0  0
 42 44  1  0  0  0  0
 42 40  2  0  0  0  0
 43 42  1  0  0  0  0
 44 35  2  0  0  0  0
 45 44  1  0  0  0  0
M  END
$$$$
