CSD_code = WULSIH | q = 0 | S = 0 | Stoichiometry = C16H14Cl2N2PdS2 | MND = 4
 OpenBabel04212202113D

 37 40  0  0  1  0  0  0  0  0999 V2000
    1.0283   -0.0004    7.9537 Pd  0  0  0  0  0  0  0  0  0  0  0  0
    1.2019   -1.4586    3.7523 S   0  0  0  0  0  0  0  0  0  0  0  0
    3.0110    1.0876    7.6482 Cl  0  0  0  0  0  0  0  0  0  0  0  0
   -0.2988    1.7023    5.5086 C   0  0  0  0  0  0  0  0  0  0  0  0
   -0.3137    2.0090    6.5556 H   0  0  0  0  0  0  0  0  0  0  0  0
    0.3625    0.0680    3.8322 C   0  0  0  0  0  0  0  0  0  0  0  0
    0.9283   -0.3514    6.0426 N   0  0  0  0  0  0  0  0  0  0  0  0
   -0.8681    2.4481    4.4994 C   0  0  0  0  0  0  0  0  0  0  0  0
   -1.3565    3.3821    4.7308 H   0  0  0  0  0  0  0  0  0  0  0  0
    0.3208    0.5024    5.1678 C   0  0  0  0  0  0  0  0  0  0  0  0
   -0.2117    0.8244    2.8233 C   0  0  0  0  0  0  0  0  0  0  0  0
   -0.1794    0.4912    1.7983 H   0  0  0  0  0  0  0  0  0  0  0  0
    1.4288   -1.4016    5.4780 C   0  0  2  0  0  3  0  0  0  0  0  0
   -0.8235    2.0124    3.1742 C   0  0  0  0  0  0  0  0  0  0  0  0
   -1.2778    2.6174    2.4047 H   0  0  0  0  0  0  0  0  0  0  0  0
    2.1307   -2.4518    6.2564 C   0  0  0  0  0  0  0  0  0  0  0  0
    2.4690   -3.2612    5.6148 H   0  0  0  0  0  0  0  0  0  0  0  0
    1.4431   -2.8481    7.0161 H   0  0  0  0  0  0  0  0  0  0  0  0
    2.9941   -2.0000    6.7629 H   0  0  0  0  0  0  0  0  0  0  0  0
    0.8545    1.4589   12.1546 S   0  0  0  0  0  0  0  0  0  0  0  0
   -0.9544   -1.0882    8.2591 Cl  0  0  0  0  0  0  0  0  0  0  0  0
    2.3557   -1.7024   10.3994 C   0  0  0  0  0  0  0  0  0  0  0  0
    2.3707   -2.0094    9.3524 H   0  0  0  0  0  0  0  0  0  0  0  0
    1.6940   -0.0677   12.0752 C   0  0  0  0  0  0  0  0  0  0  0  0
    1.1285    0.3511    9.8647 N   0  0  0  0  0  0  0  0  0  0  0  0
    2.9249   -2.4479   11.4089 C   0  0  0  0  0  0  0  0  0  0  0  0
    3.4135   -3.3819   11.1778 H   0  0  0  0  0  0  0  0  0  0  0  0
    1.7360   -0.5025   10.7397 C   0  0  0  0  0  0  0  0  0  0  0  0
    2.2682   -0.8237   13.0844 C   0  0  0  0  0  0  0  0  0  0  0  0
    2.2356   -0.4902   14.1093 H   0  0  0  0  0  0  0  0  0  0  0  0
    0.6278    1.4014   10.4289 C   0  0  1  0  0  3  0  0  0  0  0  0
    2.8801   -2.0118   12.7339 C   0  0  0  0  0  0  0  0  0  0  0  0
    3.3344   -2.6164   13.5037 H   0  0  0  0  0  0  0  0  0  0  0  0
   -0.0741    2.4513    9.6502 C   0  0  0  0  0  0  0  0  0  0  0  0
   -0.4126    3.2608   10.2915 H   0  0  0  0  0  0  0  0  0  0  0  0
    0.6135    2.8475    8.8905 H   0  0  0  0  0  0  0  0  0  0  0  0
   -0.9375    1.9992    9.1437 H   0  0  0  0  0  0  0  0  0  0  0  0
  1 21  1  0  0  0  0
  1 25  1  0  0  0  0
  2  6  1  0  0  0  0
  2 13  1  0  0  0  0
  3  1  1  0  0  0  0
  4  5  1  0  0  0  0
  6 10  2  0  0  0  0
  7  1  1  0  0  0  0
  8  9  1  0  0  0  0
  8  4  2  0  0  0  0
 10  4  1  0  0  0  0
 10  7  1  0  0  0  0
 11 14  2  0  0  0  0
 11  6  1  0  0  0  0
 12 11  1  0  0  0  0
 13  7  1  0  0  0  0
 13 16  1  6  0  0  0
 14  8  1  0  0  0  0
 15 14  1  0  0  0  0
 16 19  1  0  0  0  0
 16 18  1  0  0  0  0
 17 16  1  0  0  0  0
 22 28  2  0  0  0  0
 22 26  1  0  0  0  0
 23 22  1  0  0  0  0
 24 20  1  0  0  0  0
 24 29  2  0  0  0  0
 25 31  1  0  0  0  0
 25 28  1  0  0  0  0
 26 32  2  0  0  0  0
 27 26  1  0  0  0  0
 28 24  1  0  0  0  0
 29 30  1  0  0  0  0
 31 34  1  1  0  0  0
 31 20  1  0  0  0  0
 32 29  1  0  0  0  0
 32 33  1  0  0  0  0
 34 35  1  0  0  0  0
 36 34  1  0  0  0  0
 37 34  1  0  0  0  0
M  END
$$$$
