CSD_code = WUMJUK | q = 0 | S = 0 | Stoichiometry = C22H37Cl2F3P2Pd | MND = 4
 OpenBabel04212202113D

 67 68  0  0  0  0  0  0  0  0999 V2000
    9.0319    8.4996   14.4876 Pd  0  0  0  0  0  0  0  0  0  0  0  0
   10.7696    9.6672   15.4401 Cl  0  0  0  0  0  0  0  0  0  0  0  0
    7.8751   10.4706   14.5703 Cl  0  0  0  0  0  0  0  0  0  0  0  0
   10.5663    6.9572   13.8643 P   0  0  2  0  0  4  0  0  0  0  0  0
    9.9052    5.4553   13.0161 C   0  0  0  0  0  0  0  0  0  0  0  0
    9.5332    5.7451   12.0305 H   0  0  0  0  0  0  0  0  0  0  0  0
   10.7141    4.7348   12.8815 H   0  0  0  0  0  0  0  0  0  0  0  0
    8.7747    4.8311   13.8311 C   0  0  0  0  0  0  0  0  0  0  0  0
    8.6885    3.7723   13.5667 H   0  0  0  0  0  0  0  0  0  0  0  0
    9.0318    4.8806   14.8911 H   0  0  0  0  0  0  0  0  0  0  0  0
    7.4241    5.4894   13.5460 C   0  0  0  0  0  0  0  0  0  0  0  0
    6.6213    4.8759   13.9620 H   0  0  0  0  0  0  0  0  0  0  0  0
    7.2950    5.5032   12.4621 H   0  0  0  0  0  0  0  0  0  0  0  0
    7.1634    7.2319   14.1439 P   0  0  0  0  0  4  0  0  0  0  0  0
   11.6041    6.1977   15.1602 C   0  0  0  0  0  0  0  0  0  0  0  0
   11.3592    6.5807   16.4753 C   0  0  0  0  0  0  0  0  0  0  0  0
   10.6136    7.3450   16.6739 H   0  0  0  0  0  0  0  0  0  0  0  0
   12.0790    6.0278   17.5180 C   0  0  0  0  0  0  0  0  0  0  0  0
   11.8888    6.3268   18.5373 H   0  0  0  0  0  0  0  0  0  0  0  0
   13.0531    5.0780   17.2417 C   0  0  0  0  0  0  0  0  0  0  0  0
   13.3132    4.6904   15.9332 C   0  0  0  0  0  0  0  0  0  0  0  0
   14.0774    3.9550   15.7315 H   0  0  0  0  0  0  0  0  0  0  0  0
   12.5850    5.2457   14.8988 C   0  0  0  0  0  0  0  0  0  0  0  0
   12.7920    4.9333   13.8867 H   0  0  0  0  0  0  0  0  0  0  0  0
   13.8600    4.4856   18.3623 C   0  0  0  0  0  0  0  0  0  0  0  0
   14.9722    5.1986   18.6195 F   0  0  0  0  0  0  0  0  0  0  0  0
   14.2731    3.2350   18.0965 F   0  0  0  0  0  0  0  0  0  0  0  0
   13.1787    4.4217   19.5157 F   0  0  0  0  0  0  0  0  0  0  0  0
   11.7172    7.7166   12.5676 C   0  0  0  0  0  0  0  0  0  0  0  0
   12.9301    8.3337   13.2618 C   0  0  0  0  0  0  0  0  0  0  0  0
   13.5016    8.9248   12.5483 H   0  0  0  0  0  0  0  0  0  0  0  0
   13.5818    7.5625   13.6693 H   0  0  0  0  0  0  0  0  0  0  0  0
   12.6145    8.9854   14.0743 H   0  0  0  0  0  0  0  0  0  0  0  0
   12.1975    6.7311   11.5000 C   0  0  0  0  0  0  0  0  0  0  0  0
   12.8669    7.2589   10.8219 H   0  0  0  0  0  0  0  0  0  0  0  0
   11.3779    6.3315   10.9079 H   0  0  0  0  0  0  0  0  0  0  0  0
   12.7569    5.9051   11.9317 H   0  0  0  0  0  0  0  0  0  0  0  0
   10.8644    8.8058   11.9023 C   0  0  0  0  0  0  0  0  0  0  0  0
   11.4403    9.3229   11.1364 H   0  0  0  0  0  0  0  0  0  0  0  0
   10.5407    9.5526   12.6414 H   0  0  0  0  0  0  0  0  0  0  0  0
    9.9814    8.3666   11.4276 H   0  0  0  0  0  0  0  0  0  0  0  0
    5.9123    7.8540   12.8675 C   0  0  0  0  0  0  0  0  0  0  0  0
    6.8163    8.3629   11.7380 C   0  0  0  0  0  0  0  0  0  0  0  0
    6.2191    8.7894   10.9342 H   0  0  0  0  0  0  0  0  0  0  0  0
    7.4204    7.5555   11.3198 H   0  0  0  0  0  0  0  0  0  0  0  0
    7.4814    9.1429   12.1244 H   0  0  0  0  0  0  0  0  0  0  0  0
    4.9463    6.7902   12.3386 C   0  0  0  0  0  0  0  0  0  0  0  0
    4.2024    7.2817   11.7130 H   0  0  0  0  0  0  0  0  0  0  0  0
    4.4211    6.2870   13.1450 H   0  0  0  0  0  0  0  0  0  0  0  0
    5.4401    6.0419   11.7243 H   0  0  0  0  0  0  0  0  0  0  0  0
    5.1017    9.0300   13.4101 C   0  0  0  0  0  0  0  0  0  0  0  0
    4.5616    9.5023   12.5905 H   0  0  0  0  0  0  0  0  0  0  0  0
    5.7615    9.7739   13.8521 H   0  0  0  0  0  0  0  0  0  0  0  0
    4.3706    8.7075   14.1470 H   0  0  0  0  0  0  0  0  0  0  0  0
    6.4076    6.9702   15.8632 C   0  0  0  0  0  0  0  0  0  0  0  0
    5.0162    6.3431   15.8641 C   0  0  0  0  0  0  0  0  0  0  0  0
    4.7131    6.1512   16.8928 H   0  0  0  0  0  0  0  0  0  0  0  0
    4.9987    5.3927   15.3335 H   0  0  0  0  0  0  0  0  0  0  0  0
    4.2803    7.0077   15.4209 H   0  0  0  0  0  0  0  0  0  0  0  0
    6.3881    8.3200   16.5818 C   0  0  0  0  0  0  0  0  0  0  0  0
    5.9970    8.1981   17.5914 H   0  0  0  0  0  0  0  0  0  0  0  0
    5.7772    9.0520   16.0617 H   0  0  0  0  0  0  0  0  0  0  0  0
    7.4083    8.7203   16.6543 H   0  0  0  0  0  0  0  0  0  0  0  0
    7.3824    6.0700   16.6310 C   0  0  0  0  0  0  0  0  0  0  0  0
    7.1345    6.0857   17.6915 H   0  0  0  0  0  0  0  0  0  0  0  0
    8.4046    6.4507   16.5183 H   0  0  0  0  0  0  0  0  0  0  0  0
    7.3376    5.0364   16.2956 H   0  0  0  0  0  0  0  0  0  0  0  0
  1  3  1  0  0  0  0
  1  2  1  0  0  0  0
  4 29  1  6  0  0  0
  4  1  1  0  0  0  0
  4 15  1  0  0  0  0
  5  8  1  0  0  0  0
  5  4  1  0  0  0  0
  6  5  1  0  0  0  0
  7  5  1  0  0  0  0
  8 10  1  0  0  0  0
  9  8  1  0  0  0  0
 11  8  1  0  0  0  0
 11 12  1  0  0  0  0
 11 14  1  0  0  0  0
 13 11  1  0  0  0  0
 14  1  1  0  0  0  0
 14 55  1  0  0  0  0
 15 16  1  0  0  0  0
 16 17  1  0  0  0  0
 16 18  2  0  0  0  0
 18 19  1  0  0  0  0
 20 18  1  0  0  0  0
 20 25  1  0  0  0  0
 21 20  2  0  0  0  0
 22 21  1  0  0  0  0
 23 15  2  0  0  0  0
 23 21  1  0  0  0  0
 24 23  1  0  0  0  0
 25 26  1  0  0  0  0
 25 28  1  0  0  0  0
 27 25  1  0  0  0  0
 29 30  1  0  0  0  0
 30 32  1  0  0  0  0
 30 33  1  0  0  0  0
 31 30  1  0  0  0  0
 34 37  1  0  0  0  0
 34 29  1  0  0  0  0
 35 34  1  0  0  0  0
 36 34  1  0  0  0  0
 38 29  1  0  0  0  0
 38 40  1  0  0  0  0
 39 38  1  0  0  0  0
 41 38  1  0  0  0  0
 42 51  1  0  0  0  0
 42 14  1  0  0  0  0
 43 46  1  0  0  0  0
 43 42  1  0  0  0  0
 44 43  1  0  0  0  0
 45 43  1  0  0  0  0
 47 42  1  0  0  0  0
 47 49  1  0  0  0  0
 48 47  1  0  0  0  0
 50 47  1  0  0  0  0
 51 53  1  0  0  0  0
 51 54  1  0  0  0  0
 52 51  1  0  0  0  0
 55 56  1  0  0  0  0
 55 60  1  0  0  0  0
 55 64  1  0  0  0  0
 56 57  1  0  0  0  0
 58 56  1  0  0  0  0
 59 56  1  0  0  0  0
 60 63  1  0  0  0  0
 60 61  1  0  0  0  0
 62 60  1  0  0  0  0
 64 65  1  0  0  0  0
 66 64  1  0  0  0  0
 67 64  1  0  0  0  0
M  END
$$$$
