CSD_code = WUMJEU | q = 0 | S = 0 | Stoichiometry = C25H32Cl2F6P2Pd | MND = 4
 OpenBabel04212202113D

 68 70  0  0  0  0  0  0  0  0999 V2000
    0.1905    3.7271    7.3328 Pd  0  0  0  0  0  0  0  0  0  0  0  0
   -2.0354    3.8866    6.7593 Cl  0  0  0  0  0  0  0  0  0  0  0  0
   -0.3087    1.6795    8.3033 Cl  0  0  0  0  0  0  0  0  0  0  0  0
    0.8639    5.6244    6.2596 P   0  0  2  0  0  4  0  0  0  0  0  0
   -0.3125    7.0974    6.4043 C   0  0  0  0  0  0  0  0  0  0  0  0
   -1.4300    6.9119    5.3789 C   0  0  0  0  0  0  0  0  0  0  0  0
   -2.1779    7.6917    5.5106 H   0  0  0  0  0  0  0  0  0  0  0  0
   -1.9162    5.9472    5.5170 H   0  0  0  0  0  0  0  0  0  0  0  0
   -1.0430    6.9778    4.3625 H   0  0  0  0  0  0  0  0  0  0  0  0
    0.3330    8.4678    6.2131 C   0  0  0  0  0  0  0  0  0  0  0  0
   -0.4234    9.2273    6.4065 H   0  0  0  0  0  0  0  0  0  0  0  0
    0.6870    8.6098    5.1981 H   0  0  0  0  0  0  0  0  0  0  0  0
    1.1539    8.6375    6.9047 H   0  0  0  0  0  0  0  0  0  0  0  0
   -0.8749    7.0053    7.8256 C   0  0  0  0  0  0  0  0  0  0  0  0
   -1.6698    7.7371    7.9567 H   0  0  0  0  0  0  0  0  0  0  0  0
   -0.1005    7.2100    8.5644 H   0  0  0  0  0  0  0  0  0  0  0  0
   -1.2988    6.0146    8.0089 H   0  0  0  0  0  0  0  0  0  0  0  0
    1.0408    5.2169    4.4554 C   0  0  0  0  0  0  0  0  0  0  0  0
    1.8906    5.6651    3.4308 C   0  0  0  0  0  0  0  0  0  0  0  0
    1.8144    5.0993    2.1579 C   0  0  0  0  0  0  0  0  0  0  0  0
    2.4864    5.4441    1.3874 H   0  0  0  0  0  0  0  0  0  0  0  0
    0.8957    4.1139    1.8565 C   0  0  0  0  0  0  0  0  0  0  0  0
    0.8601    3.6996    0.8612 H   0  0  0  0  0  0  0  0  0  0  0  0
    0.0344    3.6758    2.8452 C   0  0  0  0  0  0  0  0  0  0  0  0
   -0.6986    2.9115    2.6394 H   0  0  0  0  0  0  0  0  0  0  0  0
    0.1230    4.2132    4.1140 C   0  0  0  0  0  0  0  0  0  0  0  0
   -0.5566    3.8437    4.8789 H   0  0  0  0  0  0  0  0  0  0  0  0
    2.9507    6.7239    3.5807 C   0  0  0  0  0  0  0  0  0  0  0  0
    4.0335    6.2880    4.2607 F   0  0  0  0  0  0  0  0  0  0  0  0
    2.5396    7.8348    4.2097 F   0  0  0  0  0  0  0  0  0  0  0  0
    3.4296    7.1526    2.4028 F   0  0  0  0  0  0  0  0  0  0  0  0
    2.4772    6.2665    6.8874 C   0  0  0  0  0  0  0  0  0  0  0  0
    2.7825    7.1267    6.2953 H   0  0  0  0  0  0  0  0  0  0  0  0
    2.2810    6.6230    7.9026 H   0  0  0  0  0  0  0  0  0  0  0  0
    3.6052    5.2302    6.9157 C   0  0  0  0  0  0  0  0  0  0  0  0
    4.5593    5.7630    6.8945 H   0  0  0  0  0  0  0  0  0  0  0  0
    3.5617    4.6163    6.0127 H   0  0  0  0  0  0  0  0  0  0  0  0
    3.5754    4.3341    8.1515 C   0  0  0  0  0  0  0  0  0  0  0  0
    3.4183    4.9459    9.0434 H   0  0  0  0  0  0  0  0  0  0  0  0
    4.5305    3.8199    8.2743 H   0  0  0  0  0  0  0  0  0  0  0  0
    2.2130    3.0765    8.0816 P   0  0  2  0  0  4  0  0  0  0  0  0
    2.8915    1.6541    7.0069 C   0  0  0  0  0  0  0  0  0  0  0  0
    4.4002    1.7321    6.7634 C   0  0  0  0  0  0  0  0  0  0  0  0
    4.6853    2.6427    6.2421 H   0  0  0  0  0  0  0  0  0  0  0  0
    4.6914    0.8885    6.1387 H   0  0  0  0  0  0  0  0  0  0  0  0
    4.9689    1.6650    7.6890 H   0  0  0  0  0  0  0  0  0  0  0  0
    2.5437    0.2573    7.5325 C   0  0  0  0  0  0  0  0  0  0  0  0
    2.5620   -0.4454    6.7010 H   0  0  0  0  0  0  0  0  0  0  0  0
    1.5476    0.2403    7.9662 H   0  0  0  0  0  0  0  0  0  0  0  0
    3.2548   -0.0952    8.2733 H   0  0  0  0  0  0  0  0  0  0  0  0
    2.1581    1.8584    5.6714 C   0  0  0  0  0  0  0  0  0  0  0  0
    2.4774    1.1086    4.9488 H   0  0  0  0  0  0  0  0  0  0  0  0
    2.3712    2.8438    5.2487 H   0  0  0  0  0  0  0  0  0  0  0  0
    1.0736    1.7544    5.8136 H   0  0  0  0  0  0  0  0  0  0  0  0
    2.2135    2.6055    9.8557 C   0  0  0  0  0  0  0  0  0  0  0  0
    1.3020    3.1541   10.7691 C   0  0  0  0  0  0  0  0  0  0  0  0
    1.2298    2.6748   12.0707 C   0  0  0  0  0  0  0  0  0  0  0  0
    0.5042    3.0931   12.7514 H   0  0  0  0  0  0  0  0  0  0  0  0
    2.0876    1.6769   12.4975 C   0  0  0  0  0  0  0  0  0  0  0  0
    2.0120    1.2988   13.5046 H   0  0  0  0  0  0  0  0  0  0  0  0
    3.0560    1.1964   11.6351 C   0  0  0  0  0  0  0  0  0  0  0  0
    3.7628    0.4529   11.9717 H   0  0  0  0  0  0  0  0  0  0  0  0
    3.1142    1.6594   10.3329 C   0  0  0  0  0  0  0  0  0  0  0  0
    3.8766    1.2835    9.6712 H   0  0  0  0  0  0  0  0  0  0  0  0
    0.4375    4.3396   10.4307 C   0  0  0  0  0  0  0  0  0  0  0  0
   -0.7435    4.0936    9.8446 F   0  0  0  0  0  0  0  0  0  0  0  0
    1.0702    5.2005    9.5842 F   0  0  0  0  0  0  0  0  0  0  0  0
    0.1562    5.0744   11.5183 F   0  0  0  0  0  0  0  0  0  0  0  0
  1 41  1  0  0  0  0
  1  3  1  0  0  0  0
  2  1  1  0  0  0  0
  4  5  1  1  0  0  0
  4 32  1  0  0  0  0
  4  1  1  0  0  0  0
  5 14  1  0  0  0  0
  6  7  1  0  0  0  0
  6  8  1  0  0  0  0
  6  5  1  0  0  0  0
  9  6  1  0  0  0  0
 10  5  1  0  0  0  0
 10 11  1  0  0  0  0
 10 13  1  0  0  0  0
 12 10  1  0  0  0  0
 14 15  1  0  0  0  0
 14 17  1  0  0  0  0
 14 16  1  0  0  0  0
 18  4  1  0  0  0  0
 19 28  1  0  0  0  0
 19 18  2  0  0  0  0
 20 19  1  0  0  0  0
 21 20  1  0  0  0  0
 22 20  2  0  0  0  0
 22 24  1  0  0  0  0
 23 22  1  0  0  0  0
 24 26  2  0  0  0  0
 25 24  1  0  0  0  0
 26 18  1  0  0  0  0
 26 27  1  0  0  0  0
 28 30  1  0  0  0  0
 28 29  1  0  0  0  0
 31 28  1  0  0  0  0
 32 35  1  0  0  0  0
 32 34  1  0  0  0  0
 33 32  1  0  0  0  0
 35 38  1  0  0  0  0
 36 35  1  0  0  0  0
 37 35  1  0  0  0  0
 38 40  1  0  0  0  0
 38 39  1  0  0  0  0
 41 42  1  6  0  0  0
 41 38  1  0  0  0  0
 41 55  1  0  0  0  0
 42 47  1  0  0  0  0
 43 42  1  0  0  0  0
 43 46  1  0  0  0  0
 44 43  1  0  0  0  0
 45 43  1  0  0  0  0
 47 49  1  0  0  0  0
 47 50  1  0  0  0  0
 48 47  1  0  0  0  0
 51 54  1  0  0  0  0
 51 42  1  0  0  0  0
 52 51  1  0  0  0  0
 53 51  1  0  0  0  0
 55 63  2  0  0  0  0
 55 56  1  0  0  0  0
 56 57  2  0  0  0  0
 57 59  1  0  0  0  0
 57 58  1  0  0  0  0
 59 60  1  0  0  0  0
 61 62  1  0  0  0  0
 61 59  2  0  0  0  0
 63 61  1  0  0  0  0
 64 63  1  0  0  0  0
 65 56  1  0  0  0  0
 65 68  1  0  0  0  0
 66 65  1  0  0  0  0
 67 65  1  0  0  0  0
M  END
$$$$
