CSD_code = WUMTAB | q = 0 | S = 0 | Stoichiometry = C17H15ClN2O3Zn | MND = 4
 OpenBabel04212202113D

 39 42  0  0  1  0  0  0  0  0999 V2000
   -1.8122    9.8737    7.2702 Zn  0  0  0  0  0  0  0  0  0  0  0  0
   -2.8165    8.5866    5.8323 Cl  0  0  0  0  0  0  0  0  0  0  0  0
   -1.4816   11.8989    7.2294 O   0  0  0  0  0  0  0  0  0  0  0  0
   -3.1735   11.0558    8.3136 O   0  0  0  0  0  0  0  0  0  0  0  0
   -4.1926   17.2467    9.2449 O   0  0  0  0  0  0  0  0  0  0  0  0
   -5.0148   17.2335    9.7503 H   0  0  0  0  0  0  0  0  0  0  0  0
    0.2381    9.4674    6.6964 N   0  0  0  0  0  0  0  0  0  0  0  0
   -1.6416    8.6765    9.0396 N   0  0  0  0  0  0  0  0  0  0  0  0
    0.5186    8.3296    6.0733 C   0  0  0  0  0  3  0  0  0  0  0  0
   -0.2911    7.6174    6.0058 H   0  0  0  0  0  0  0  0  0  0  0  0
    1.7599    8.0707    5.5166 C   0  0  0  0  0  0  0  0  0  0  0  0
    1.9427    7.1336    5.0152 H   0  0  0  0  0  0  0  0  0  0  0  0
    2.7476    9.0385    5.6095 C   0  0  0  0  0  0  0  0  0  0  0  0
    3.7252    8.8733    5.1812 H   0  0  0  0  0  0  0  0  0  0  0  0
    2.4495   10.2271    6.2568 C   0  0  0  0  0  0  0  0  0  0  0  0
    3.1837   11.0122    6.3466 H   0  0  0  0  0  0  0  0  0  0  0  0
    1.1804   10.3973    6.7840 C   0  0  0  0  0  0  0  0  0  0  0  0
    0.8915   11.3126    7.2785 H   0  0  0  0  0  0  0  0  0  0  0  0
   -1.1768    9.1818   10.1754 C   0  0  0  0  0  3  0  0  0  0  0  0
   -0.5969   10.0900   10.0897 H   0  0  0  0  0  0  0  0  0  0  0  0
   -1.4130    8.5976   11.4076 C   0  0  0  0  0  0  0  0  0  0  0  0
   -1.0186    9.0463   12.3058 H   0  0  0  0  0  0  0  0  0  0  0  0
   -2.1691    7.4367   11.4591 C   0  0  0  0  0  0  0  0  0  0  0  0
   -2.3793    6.9576   12.4039 H   0  0  0  0  0  0  0  0  0  0  0  0
   -2.6518    6.9091   10.2725 C   0  0  0  0  0  0  0  0  0  0  0  0
   -3.2466    6.0097   10.2631 H   0  0  0  0  0  0  0  0  0  0  0  0
   -2.3663    7.5650    9.0865 C   0  0  0  0  0  0  0  0  0  0  0  0
   -2.7302    7.2023    8.1352 H   0  0  0  0  0  0  0  0  0  0  0  0
   -2.5245   12.0490    7.9173 C   0  0  1  0  0  3  0  0  0  0  0  0
   -2.9714   13.4182    8.2737 C   0  0  0  0  0  0  0  0  0  0  0  0
   -2.2392   14.5284    7.8602 C   0  0  0  0  0  0  0  0  0  0  0  0
   -1.3460   14.3729    7.2751 H   0  0  0  0  0  0  0  0  0  0  0  0
   -2.6543   15.8000    8.1903 C   0  0  0  0  0  0  0  0  0  0  0  0
   -2.1012   16.6718    7.8787 H   0  0  0  0  0  0  0  0  0  0  0  0
   -3.8160   15.9788    8.9393 C   0  0  0  0  0  0  0  0  0  0  0  0
   -4.5517   14.8711    9.3512 C   0  0  0  0  0  0  0  0  0  0  0  0
   -5.4559   15.0133    9.9293 H   0  0  0  0  0  0  0  0  0  0  0  0
   -4.1306   13.5993    9.0201 C   0  0  0  0  0  0  0  0  0  0  0  0
   -4.6912   12.7305    9.3288 H   0  0  0  0  0  0  0  0  0  0  0  0
  1  4  1  0  0  0  0
  1  8  1  0  0  0  0
  2  1  1  0  0  0  0
  3  1  1  0  0  0  0
  3 29  1  0  0  0  0
  5  6  1  0  0  0  0
  7 17  1  0  0  0  0
  7  1  1  0  0  0  0
  8 27  1  0  0  0  0
  8 19  1  0  0  0  0
  9  7  1  0  0  0  0
 10  9  1  0  0  0  0
 11 13  2  0  0  0  0
 11  9  1  0  0  0  0
 12 11  1  0  0  0  0
 13 15  1  0  0  0  0
 14 13  1  0  0  0  0
 15 16  1  0  0  0  0
 15 17  2  0  0  0  0
 17 18  1  0  0  0  0
 19 21  1  0  0  0  0
 20 19  1  0  0  0  0
 21 23  2  0  0  0  0
 21 22  1  0  0  0  0
 23 24  1  0  0  0  0
 25 23  1  0  0  0  0
 26 25  1  0  0  0  0
 27 25  2  0  0  0  0
 28 27  1  0  0  0  0
 29 30  1  1  0  0  0
 29  4  1  0  0  0  0
 30 38  1  0  0  0  0
 31 33  1  0  0  0  0
 31 30  2  0  0  0  0
 32 31  1  0  0  0  0
 33 35  2  0  0  0  0
 34 33  1  0  0  0  0
 35  5  1  0  0  0  0
 35 36  1  0  0  0  0
 36 37  1  0  0  0  0
 38 39  1  0  0  0  0
 38 36  2  0  0  0  0
M  END
$$$$
