CSD_code = WUNNOI | q = 0 | S = 0 | Stoichiometry = C15H26Cl2N2Zn | MND = 4
 OpenBabel04212202113D

 46 50  0  0  1  0  0  0  0  0999 V2000
    6.0569    5.5919   10.8937 Zn  0  0  0  0  0  0  0  0  0  0  0  0
    8.0923    5.2569   11.7097 Cl  0  0  0  0  0  0  0  0  0  0  0  0
    4.2109    5.6335   12.1390 Cl  0  0  0  0  0  0  0  0  0  0  0  0
    6.3853    6.7899    9.1388 N   0  0  2  0  0  4  0  0  0  0  0  0
    6.7669    8.1431    9.5641 C   0  0  0  0  0  0  0  0  0  0  0  0
    6.9978    8.7550    8.6779 H   0  0  0  0  0  0  0  0  0  0  0  0
    7.6711    8.0639   10.1722 H   0  0  0  0  0  0  0  0  0  0  0  0
    5.6543    8.8066   10.3624 C   0  0  0  0  0  0  0  0  0  0  0  0
    5.9755    9.8047   10.6638 H   0  0  0  0  0  0  0  0  0  0  0  0
    5.4615    8.2263   11.2695 H   0  0  0  0  0  0  0  0  0  0  0  0
    4.3833    8.8784    9.5250 C   0  0  0  0  0  0  0  0  0  0  0  0
    4.5424    9.5420    8.6702 H   0  0  0  0  0  0  0  0  0  0  0  0
    3.5642    9.2835   10.1188 H   0  0  0  0  0  0  0  0  0  0  0  0
    4.0282    7.4776    9.0381 C   0  0  0  0  0  0  0  0  0  0  0  0
    3.1561    7.5148    8.3828 H   0  0  0  0  0  0  0  0  0  0  0  0
    3.7818    6.8582    9.9000 H   0  0  0  0  0  0  0  0  0  0  0  0
    5.2009    6.8696    8.2718 C   0  0  2  0  0  0  0  0  0  0  0  0
    5.4396    7.5466    7.4300 H   0  0  0  0  0  0  0  0  0  0  0  0
    4.8635    5.5056    7.6491 C   0  0  2  0  0  0  0  0  0  0  0  0
    3.9738    5.6520    7.0263 H   0  0  0  0  0  0  0  0  0  0  0  0
    7.2103    4.8623    7.7426 C   0  0  2  0  0  0  0  0  0  0  0  0
    8.1078    4.5754    7.1843 H   0  0  0  0  0  0  0  0  0  0  0  0
    5.6759    4.0103    9.4862 N   0  0  2  0  0  4  0  0  0  0  0  0
    5.3448    2.8857   10.3795 C   0  0  0  0  0  0  0  0  0  0  0  0
    4.4010    3.1178   10.8770 H   0  0  0  0  0  0  0  0  0  0  0  0
    6.1279    2.8365   11.1437 H   0  0  0  0  0  0  0  0  0  0  0  0
    5.2660    1.5263    9.6909 C   0  0  0  0  0  0  0  0  0  0  0  0
    4.4509    1.5039    8.9650 H   0  0  0  0  0  0  0  0  0  0  0  0
    5.0557    0.7678   10.4457 H   0  0  0  0  0  0  0  0  0  0  0  0
    6.5913    1.2403    8.9966 C   0  0  0  0  0  0  0  0  0  0  0  0
    7.3893    1.1919    9.7404 H   0  0  0  0  0  0  0  0  0  0  0  0
    6.5560    0.2821    8.4752 H   0  0  0  0  0  0  0  0  0  0  0  0
    6.8775    2.3662    8.0101 C   0  0  0  0  0  0  0  0  0  0  0  0
    6.1146    2.3512    7.2308 H   0  0  0  0  0  0  0  0  0  0  0  0
    7.8454    2.2101    7.5307 H   0  0  0  0  0  0  0  0  0  0  0  0
    6.9052    3.7242    8.7273 C   0  0  1  0  0  0  0  0  0  0  0  0
    7.7152    3.6893    9.4664 H   0  0  0  0  0  0  0  0  0  0  0  0
    7.5254    6.1934    8.4280 C   0  0  0  0  0  0  0  0  0  0  0  0
    8.3277    6.0497    9.1547 H   0  0  0  0  0  0  0  0  0  0  0  0
    7.8765    6.8961    7.6567 H   0  0  0  0  0  0  0  0  0  0  0  0
    4.5417    4.3733    8.6300 C   0  0  0  0  0  0  0  0  0  0  0  0
    3.7196    4.6672    9.2858 H   0  0  0  0  0  0  0  0  0  0  0  0
    4.2071    3.5127    8.0367 H   0  0  0  0  0  0  0  0  0  0  0  0
    6.0438    5.0774    6.7847 C   0  0  0  0  0  0  0  0  0  0  0  0
    5.8120    4.1708    6.2268 H   0  0  0  0  0  0  0  0  0  0  0  0
    6.2914    5.8544    6.0583 H   0  0  0  0  0  0  0  0  0  0  0  0
  1  2  1  0  0  0  0
  1  3  1  0  0  0  0
  4 38  1  6  0  0  0
  4  5  1  0  0  0  0
  4  1  1  0  0  0  0
  5  7  1  0  0  0  0
  5  8  1  0  0  0  0
  6  5  1  0  0  0  0
  8  9  1  0  0  0  0
  8 10  1  0  0  0  0
 11 13  1  0  0  0  0
 11  8  1  0  0  0  0
 12 11  1  0  0  0  0
 14 11  1  0  0  0  0
 14 16  1  0  0  0  0
 15 14  1  0  0  0  0
 17 18  1  6  0  0  0
 17 14  1  0  0  0  0
 17  4  1  0  0  0  0
 19 20  1  6  0  0  0
 19 17  1  0  0  0  0
 19 41  1  0  0  0  0
 21 22  1  6  0  0  0
 21 38  1  0  0  0  0
 21 36  1  0  0  0  0
 23 41  1  6  0  0  0
 23 24  1  0  0  0  0
 23  1  1  0  0  0  0
 24 25  1  0  0  0  0
 24 26  1  0  0  0  0
 27 24  1  0  0  0  0
 27 29  1  0  0  0  0
 28 27  1  0  0  0  0
 30 27  1  0  0  0  0
 30 31  1  0  0  0  0
 32 30  1  0  0  0  0
 33 36  1  0  0  0  0
 33 30  1  0  0  0  0
 34 33  1  0  0  0  0
 35 33  1  0  0  0  0
 36 37  1  1  0  0  0
 36 23  1  0  0  0  0
 38 39  1  0  0  0  0
 40 38  1  0  0  0  0
 41 42  1  0  0  0  0
 43 41  1  0  0  0  0
 44 19  1  0  0  0  0
 44 21  1  0  0  0  0
 45 44  1  0  0  0  0
 46 44  1  0  0  0  0
M  END
$$$$
