CSD_code = WUNSED | q = 0 | S = 0 | Stoichiometry = C16H28Cl4N4Zr | MND = 6
 OpenBabel04212202113D

 53 54  0  0  1  0  0  0  0  0999 V2000
    3.7639    2.4184   -0.0002 Zr  0  0  0  0  0  0  0  0  0  0  0  0
    4.6833    3.3054    2.0187 Cl  0  0  0  0  0  0  0  0  0  0  0  0
    2.2104    4.2328    0.0738 Cl  0  0  0  0  0  0  0  0  0  0  0  0
    2.4074    0.6678    2.4826 N   0  0  0  0  0  0  0  0  0  0  0  0
    2.1987    1.2311    1.2706 C   0  0  1  0  0  3  0  0  0  0  0  0
    0.8541    1.3234    1.1524 N   0  0  0  0  0  0  0  0  0  0  0  0
    0.2390    0.8321    2.2684 C   0  0  0  0  0  0  0  0  0  0  0  0
   -0.8260    0.8159    2.3794 H   0  0  0  0  0  0  0  0  0  0  0  0
    1.2186    0.4143    3.1061 C   0  0  0  0  0  0  0  0  0  0  0  0
    1.1491   -0.0356    4.0742 H   0  0  0  0  0  0  0  0  0  0  0  0
    3.6954    0.2442    3.0101 C   0  0  1  0  0  0  0  0  0  0  0  0
    4.4661    0.5921    2.3081 H   0  0  0  0  0  0  0  0  0  0  0  0
    3.9487    0.8832    4.3731 C   0  0  0  0  0  0  0  0  0  0  0  0
    3.2082    0.5704    5.1060 H   0  0  0  0  0  0  0  0  0  0  0  0
    3.9278    1.9663    4.2804 H   0  0  0  0  0  0  0  0  0  0  0  0
    4.9322    0.5929    4.7304 H   0  0  0  0  0  0  0  0  0  0  0  0
    3.7406   -1.2893    3.0694 C   0  0  0  0  0  0  0  0  0  0  0  0
    3.0097   -1.6548    3.7956 H   0  0  0  0  0  0  0  0  0  0  0  0
    4.7321   -1.5798    3.4176 H   0  0  0  0  0  0  0  0  0  0  0  0
    3.4805   -1.9195    1.7056 C   0  0  0  0  0  0  0  0  0  0  0  0
    2.4683   -1.7119    1.3611 H   0  0  0  0  0  0  0  0  0  0  0  0
    3.6045   -2.9980    1.7588 H   0  0  0  0  0  0  0  0  0  0  0  0
    4.1802   -1.5262    0.9716 H   0  0  0  0  0  0  0  0  0  0  0  0
    0.1261    1.8435    0.0212 C   0  0  0  0  0  0  0  0  0  0  0  0
   -0.0945    2.9044    0.1641 H   0  0  0  0  0  0  0  0  0  0  0  0
   -0.8080    1.2921   -0.0888 H   0  0  0  0  0  0  0  0  0  0  0  0
    0.7228    1.7358   -0.8888 H   0  0  0  0  0  0  0  0  0  0  0  0
    2.8444    1.5312   -2.0194 Cl  0  0  0  0  0  0  0  0  0  0  0  0
    5.3181    0.6034   -0.0734 Cl  0  0  0  0  0  0  0  0  0  0  0  0
    5.3292    3.6059   -1.2707 C   0  0  2  0  0  3  0  0  0  0  0  0
    5.1206    4.1706   -2.4820 N   0  0  0  0  0  0  0  0  0  0  0  0
    6.3095    4.4258   -3.1047 C   0  0  0  0  0  0  0  0  0  0  0  0
    7.2891    4.0076   -2.2672 C   0  0  0  0  0  0  0  0  0  0  0  0
    6.6739    3.5145   -1.1521 N   0  0  0  0  0  0  0  0  0  0  0  0
    7.4019    2.9931   -0.0215 C   0  0  0  0  0  0  0  0  0  0  0  0
    7.6226    1.9323   -0.1656 H   0  0  0  0  0  0  0  0  0  0  0  0
    8.3359    3.5444    0.0892 H   0  0  0  0  0  0  0  0  0  0  0  0
    6.8051    3.0996    0.8886 H   0  0  0  0  0  0  0  0  0  0  0  0
    8.3541    4.0248   -2.3778 H   0  0  0  0  0  0  0  0  0  0  0  0
    6.3789    4.8770   -4.0722 H   0  0  0  0  0  0  0  0  0  0  0  0
    3.8325    4.5930   -3.0101 C   0  0  2  0  0  0  0  0  0  0  0  0
    3.0617    4.2447   -2.3083 H   0  0  0  0  0  0  0  0  0  0  0  0
    3.5803    3.9532   -4.3730 C   0  0  0  0  0  0  0  0  0  0  0  0
    4.3210    4.2662   -5.1056 H   0  0  0  0  0  0  0  0  0  0  0  0
    3.6019    2.8701   -4.2798 H   0  0  0  0  0  0  0  0  0  0  0  0
    2.5968    4.2427   -4.7309 H   0  0  0  0  0  0  0  0  0  0  0  0
    3.7858    6.1265   -3.0700 C   0  0  0  0  0  0  0  0  0  0  0  0
    4.5169    6.4924   -3.7959 H   0  0  0  0  0  0  0  0  0  0  0  0
    2.7943    6.4158   -3.4191 H   0  0  0  0  0  0  0  0  0  0  0  0
    4.0444    6.7574   -1.7063 C   0  0  0  0  0  0  0  0  0  0  0  0
    5.0565    6.5507   -1.3610 H   0  0  0  0  0  0  0  0  0  0  0  0
    3.9196    7.8358   -1.7601 H   0  0  0  0  0  0  0  0  0  0  0  0
    3.3444    6.3639   -0.9728 H   0  0  0  0  0  0  0  0  0  0  0  0
  1  3  1  0  0  0  0
  1  2  1  0  0  0  0
  4 11  1  0  0  0  0
  4  9  1  0  0  0  0
  5  1  1  1  0  0  0
  5  4  1  0  0  0  0
  6  5  1  0  0  0  0
  6  7  1  0  0  0  0
  7  8  1  0  0  0  0
  7  9  2  0  0  0  0
  9 10  1  0  0  0  0
 11 12  1  6  0  0  0
 11 17  1  0  0  0  0
 11 13  1  0  0  0  0
 13 16  1  0  0  0  0
 13 14  1  0  0  0  0
 15 13  1  0  0  0  0
 17 19  1  0  0  0  0
 17 18  1  0  0  0  0
 20 22  1  0  0  0  0
 20 17  1  0  0  0  0
 21 20  1  0  0  0  0
 23 20  1  0  0  0  0
 24 25  1  0  0  0  0
 24  6  1  0  0  0  0
 26 24  1  0  0  0  0
 27 24  1  0  0  0  0
 28  1  1  0  0  0  0
 29  1  1  0  0  0  0
 30 34  1  0  0  0  0
 30  1  1  6  0  0  0
 31 30  1  0  0  0  0
 32 31  1  0  0  0  0
 32 33  2  0  0  0  0
 33 34  1  0  0  0  0
 34 35  1  0  0  0  0
 35 37  1  0  0  0  0
 35 38  1  0  0  0  0
 36 35  1  0  0  0  0
 39 33  1  0  0  0  0
 40 32  1  0  0  0  0
 41 31  1  0  0  0  0
 41 42  1  1  0  0  0
 43 45  1  0  0  0  0
 43 41  1  0  0  0  0
 44 43  1  0  0  0  0
 46 43  1  0  0  0  0
 47 41  1  0  0  0  0
 47 50  1  0  0  0  0
 48 47  1  0  0  0  0
 49 47  1  0  0  0  0
 50 51  1  0  0  0  0
 50 53  1  0  0  0  0
 52 50  1  0  0  0  0
M  END
$$$$
