CSD_code = WUNSAZ | q = 0 | S = 0 | Stoichiometry = C18H32Cl4N4Zr | MND = 6
 OpenBabel04212202113D

 59 60  0  0  1  0  0  0  0  0999 V2000
    0.0001   -0.0002   -0.0000 Zr  0  0  0  0  0  0  0  0  0  0  0  0
    1.2123    1.5330   -1.3840 Cl  0  0  0  0  0  0  0  0  0  0  0  0
    1.8093   -1.5615    0.1525 Cl  0  0  0  0  0  0  0  0  0  0  0  0
    0.0613    1.5098    2.9653 N   0  0  0  0  0  0  0  0  0  0  0  0
   -1.3680    1.3133    3.1655 C   0  0  0  0  0  0  0  0  0  0  0  0
   -1.7561    0.7904    2.2817 H   0  0  0  0  0  0  0  0  0  0  0  0
   -1.5991    0.4305    4.3897 C   0  0  0  0  0  0  0  0  0  0  0  0
   -1.1107   -0.5307    4.2443 H   0  0  0  0  0  0  0  0  0  0  0  0
   -2.6634    0.2536    4.5116 H   0  0  0  0  0  0  0  0  0  0  0  0
   -1.2167    0.8946    5.2965 H   0  0  0  0  0  0  0  0  0  0  0  0
   -2.0664    2.6668    3.2713 C   0  0  0  0  0  0  0  0  0  0  0  0
   -1.7112    3.2363    4.1275 H   0  0  0  0  0  0  0  0  0  0  0  0
   -3.1361    2.5131    3.3762 H   0  0  0  0  0  0  0  0  0  0  0  0
   -1.8940    3.2388    2.3622 H   0  0  0  0  0  0  0  0  0  0  0  0
    0.7833    1.1009    1.8982 C   0  0  2  0  0  3  0  0  0  0  0  0
    2.0516    1.4919    2.1543 N   0  0  0  0  0  0  0  0  0  0  0  0
    3.2104    1.2740    1.2991 C   0  0  0  0  0  0  0  0  0  0  0  0
    2.8643    0.7407    0.4042 H   0  0  0  0  0  0  0  0  0  0  0  0
    3.7927    2.6171    0.8657 C   0  0  0  0  0  0  0  0  0  0  0  0
    3.0383    3.1850    0.3256 H   0  0  0  0  0  0  0  0  0  0  0  0
    4.6312    2.4477    0.1969 H   0  0  0  0  0  0  0  0  0  0  0  0
    4.1389    3.1980    1.7179 H   0  0  0  0  0  0  0  0  0  0  0  0
    4.2263    0.3937    2.0232 C   0  0  0  0  0  0  0  0  0  0  0  0
    4.5960    0.8700    2.9288 H   0  0  0  0  0  0  0  0  0  0  0  0
    5.0675    0.1975    1.3653 H   0  0  0  0  0  0  0  0  0  0  0  0
    3.7677   -0.5588    2.2796 H   0  0  0  0  0  0  0  0  0  0  0  0
    2.1190    2.1330    3.3594 C   0  0  0  0  0  0  0  0  0  0  0  0
    3.0279    2.5281    3.7626 H   0  0  0  0  0  0  0  0  0  0  0  0
    0.8653    2.1441    3.8703 C   0  0  0  0  0  0  0  0  0  0  0  0
    0.5033    2.5501    4.7918 H   0  0  0  0  0  0  0  0  0  0  0  0
   -1.2124   -1.5327    1.3839 Cl  0  0  0  0  0  0  0  0  0  0  0  0
   -1.8094    1.5619   -0.1526 Cl  0  0  0  0  0  0  0  0  0  0  0  0
   -0.7833   -1.1011   -1.8982 C   0  0  1  0  0  3  0  0  0  0  0  0
   -0.0613   -1.5098   -2.9653 N   0  0  0  0  0  0  0  0  0  0  0  0
    1.3680   -1.3134   -3.1656 C   0  0  0  0  0  0  0  0  0  0  0  0
    1.7561   -0.7905   -2.2817 H   0  0  0  0  0  0  0  0  0  0  0  0
    1.5991   -0.4305   -4.3898 C   0  0  0  0  0  0  0  0  0  0  0  0
    1.1107    0.5306   -4.2444 H   0  0  0  0  0  0  0  0  0  0  0  0
    2.6634   -0.2537   -4.5116 H   0  0  0  0  0  0  0  0  0  0  0  0
    1.2168   -0.8946   -5.2965 H   0  0  0  0  0  0  0  0  0  0  0  0
    2.0664   -2.6668   -3.2713 C   0  0  0  0  0  0  0  0  0  0  0  0
    1.7111   -3.2363   -4.1275 H   0  0  0  0  0  0  0  0  0  0  0  0
    3.1361   -2.5132   -3.3761 H   0  0  0  0  0  0  0  0  0  0  0  0
    1.8940   -3.2388   -2.3622 H   0  0  0  0  0  0  0  0  0  0  0  0
   -0.8653   -2.1441   -3.8704 C   0  0  0  0  0  0  0  0  0  0  0  0
   -2.1190   -2.1330   -3.3594 C   0  0  0  0  0  0  0  0  0  0  0  0
   -2.0516   -1.4919   -2.1543 N   0  0  0  0  0  0  0  0  0  0  0  0
   -3.2104   -1.2741   -1.2991 C   0  0  0  0  0  0  0  0  0  0  0  0
   -2.8643   -0.7408   -0.4042 H   0  0  0  0  0  0  0  0  0  0  0  0
   -3.7927   -2.6171   -0.8657 C   0  0  0  0  0  0  0  0  0  0  0  0
   -3.0382   -3.1849   -0.3256 H   0  0  0  0  0  0  0  0  0  0  0  0
   -4.6312   -2.4477   -0.1969 H   0  0  0  0  0  0  0  0  0  0  0  0
   -4.1388   -3.1981   -1.7179 H   0  0  0  0  0  0  0  0  0  0  0  0
   -4.2264   -0.3938   -2.0231 C   0  0  0  0  0  0  0  0  0  0  0  0
   -4.5961   -0.8701   -2.9287 H   0  0  0  0  0  0  0  0  0  0  0  0
   -5.0676   -0.1976   -1.3653 H   0  0  0  0  0  0  0  0  0  0  0  0
   -3.7677    0.5588   -2.2796 H   0  0  0  0  0  0  0  0  0  0  0  0
   -3.0279   -2.5280   -3.7627 H   0  0  0  0  0  0  0  0  0  0  0  0
   -0.5033   -2.5500   -4.7918 H   0  0  0  0  0  0  0  0  0  0  0  0
  1  3  1  0  0  0  0
  1 31  1  0  0  0  0
  2  1  1  0  0  0  0
  4  5  1  0  0  0  0
  4 29  1  0  0  0  0
  5 11  1  0  0  0  0
  5  7  1  0  0  0  0
  6  5  1  0  0  0  0
  7  9  1  0  0  0  0
  7 10  1  0  0  0  0
  8  7  1  0  0  0  0
 11 13  1  0  0  0  0
 11 12  1  0  0  0  0
 14 11  1  0  0  0  0
 15  1  1  6  0  0  0
 15 16  1  0  0  0  0
 15  4  1  0  0  0  0
 16 27  1  0  0  0  0
 17 23  1  0  0  0  0
 17 16  1  0  0  0  0
 18 17  1  0  0  0  0
 19 17  1  0  0  0  0
 19 22  1  0  0  0  0
 20 19  1  0  0  0  0
 21 19  1  0  0  0  0
 23 26  1  0  0  0  0
 23 24  1  0  0  0  0
 25 23  1  0  0  0  0
 27 28  1  0  0  0  0
 27 29  2  0  0  0  0
 29 30  1  0  0  0  0
 32  1  1  0  0  0  0
 33  1  1  1  0  0  0
 34 33  1  0  0  0  0
 35 34  1  0  0  0  0
 35 36  1  0  0  0  0
 37 38  1  0  0  0  0
 37 35  1  0  0  0  0
 39 37  1  0  0  0  0
 40 37  1  0  0  0  0
 41 35  1  0  0  0  0
 41 44  1  0  0  0  0
 42 41  1  0  0  0  0
 43 41  1  0  0  0  0
 45 46  2  0  0  0  0
 45 34  1  0  0  0  0
 46 47  1  0  0  0  0
 47 33  1  0  0  0  0
 47 48  1  0  0  0  0
 48 50  1  0  0  0  0
 48 49  1  0  0  0  0
 50 51  1  0  0  0  0
 50 52  1  0  0  0  0
 53 50  1  0  0  0  0
 54 56  1  0  0  0  0
 54 48  1  0  0  0  0
 55 54  1  0  0  0  0
 57 54  1  0  0  0  0
 58 46  1  0  0  0  0
 59 45  1  0  0  0  0
M  END
$$$$
