CSD_code = WUNYUB | q = 0 | S = 0 | Stoichiometry = C25H28Cl2N2OPd | MND = 4
 OpenBabel04212202113D

 59 64  0  0  1  0  0  0  0  0999 V2000
   -3.3687   10.3319    5.8026 Pd  0  0  0  0  0  0  0  0  0  0  0  0
   -2.8831   12.5172    5.8237 Cl  0  0  0  0  0  0  0  0  0  0  0  0
   -4.9640   10.4646    4.2140 Cl  0  0  0  0  0  0  0  0  0  0  0  0
   -3.5369    8.3925    5.7744 N   0  0  0  0  0  0  0  0  0  0  0  0
   -1.9085    9.8331    7.2940 N   0  0  0  0  0  4  0  0  0  0  0  0
   -1.1794   10.5499    7.2938 H   0  0  0  0  0  0  0  0  0  0  0  0
   -2.5162    9.7888    8.6348 C   0  0  0  0  0  0  0  0  0  0  0  0
   -3.1962    8.9361    8.6760 H   0  0  0  0  0  0  0  0  0  0  0  0
   -1.7584    9.6373    9.4110 H   0  0  0  0  0  0  0  0  0  0  0  0
   -4.6608    7.7710    5.3129 O   0  0  0  0  0  0  0  0  0  0  0  0
   -5.1148    8.5060    4.7946 H   0  0  0  0  0  0  0  0  0  0  0  0
   -2.5937    7.7302    6.3215 C   0  0  2  0  0  3  0  0  0  0  0  0
   -2.6126    6.2568    6.5849 C   0  0  0  0  0  0  0  0  0  0  0  0
   -1.8497    5.7702    5.9749 H   0  0  0  0  0  0  0  0  0  0  0  0
   -3.5831    5.8529    6.2960 H   0  0  0  0  0  0  0  0  0  0  0  0
   -2.3525    6.0454    8.0642 C   0  0  2  0  0  0  0  0  0  0  0  0
   -3.2575    5.9351    8.6494 H   0  0  0  0  0  0  0  0  0  0  0  0
   -1.2365    6.8664    8.6668 C   0  0  2  0  0  0  0  0  0  0  0  0
   -1.4064    7.2727    9.6566 H   0  0  0  0  0  0  0  0  0  0  0  0
   -0.4798    7.7866    7.7323 C   0  0  0  0  0  0  0  0  0  0  0  0
    0.2319    7.2085    7.1434 H   0  0  0  0  0  0  0  0  0  0  0  0
    0.1037    8.5076    8.3084 H   0  0  0  0  0  0  0  0  0  0  0  0
   -1.3931    8.5594    6.7497 C   0  0  2  0  0  0  0  0  0  0  0  0
   -0.5847    8.9165    5.4857 C   0  0  0  0  0  0  0  0  0  0  0  0
   -1.1748    9.5793    4.8278 H   0  0  0  0  0  0  0  0  0  0  0  0
   -0.3285    8.0180    4.9285 H   0  0  0  0  0  0  0  0  0  0  0  0
    0.3350    9.4303    5.7617 H   0  0  0  0  0  0  0  0  0  0  0  0
   -1.1193    5.3616    8.5941 C   0  0  0  0  0  0  0  0  0  0  0  0
   -1.2797    4.6174    9.9046 C   0  0  0  0  0  0  0  0  0  0  0  0
   -0.3242    4.5548   10.4225 H   0  0  0  0  0  0  0  0  0  0  0  0
   -1.6355    3.6049    9.7233 H   0  0  0  0  0  0  0  0  0  0  0  0
   -1.9909    5.1176   10.5571 H   0  0  0  0  0  0  0  0  0  0  0  0
   -0.1303    4.6751    7.6817 C   0  0  0  0  0  0  0  0  0  0  0  0
   -0.0212    5.1660    6.7195 H   0  0  0  0  0  0  0  0  0  0  0  0
   -0.4527    3.6512    7.5007 H   0  0  0  0  0  0  0  0  0  0  0  0
    0.8485    4.6430    8.1577 H   0  0  0  0  0  0  0  0  0  0  0  0
   -2.5581   12.2018    9.3719 C   0  0  0  0  0  0  0  0  0  0  0  0
   -1.2138   12.1505    9.8303 C   0  0  0  0  0  0  0  0  0  0  0  0
   -0.6639   11.2214    9.8008 H   0  0  0  0  0  0  0  0  0  0  0  0
   -0.5802   13.2525   10.3187 C   0  0  0  0  0  0  0  0  0  0  0  0
    0.4433   13.1808   10.6575 H   0  0  0  0  0  0  0  0  0  0  0  0
   -1.2401   14.4946   10.3858 C   0  0  0  0  0  0  0  0  0  0  0  0
   -0.7160   15.3541   10.7761 H   0  0  0  0  0  0  0  0  0  0  0  0
   -2.5237   14.5964    9.9504 C   0  0  0  0  0  0  0  0  0  0  0  0
   -3.0456   15.5416    9.9834 H   0  0  0  0  0  0  0  0  0  0  0  0
   -3.2137   13.4731    9.4281 C   0  0  0  0  0  0  0  0  0  0  0  0
   -4.4997   13.6050    8.9197 C   0  0  0  0  0  0  0  0  0  0  0  0
   -4.9627   14.5815    8.9081 H   0  0  0  0  0  0  0  0  0  0  0  0
   -5.1840   12.5253    8.3761 C   0  0  0  0  0  0  0  0  0  0  0  0
   -6.4621   12.6985    7.7840 C   0  0  0  0  0  0  0  0  0  0  0  0
   -6.8874   13.6913    7.7825 H   0  0  0  0  0  0  0  0  0  0  0  0
   -7.1209   11.6566    7.2111 C   0  0  0  0  0  0  0  0  0  0  0  0
   -8.0772   11.8004    6.7320 H   0  0  0  0  0  0  0  0  0  0  0  0
   -6.5615   10.3640    7.2613 C   0  0  0  0  0  0  0  0  0  0  0  0
   -7.1202    9.5319    6.8570 H   0  0  0  0  0  0  0  0  0  0  0  0
   -5.3342   10.1503    7.8252 C   0  0  0  0  0  0  0  0  0  0  0  0
   -4.9992    9.1242    7.9417 H   0  0  0  0  0  0  0  0  0  0  0  0
   -4.5671   11.2318    8.3694 C   0  0  0  0  0  0  0  0  0  0  0  0
   -3.2497   11.0933    8.8515 C   0  0  0  0  0  0  0  0  0  0  0  0
  1  2  1  0  0  0  0
  1  5  1  0  0  0  0
  3  1  1  0  0  0  0
  4  1  1  0  0  0  0
  5  7  1  0  0  0  0
  6  5  1  0  0  0  0
  7  8  1  0  0  0  0
  7 59  1  0  0  0  0
  7  9  1  0  0  0  0
 10  4  1  0  0  0  0
 11 10  1  0  0  0  0
 12  4  1  1  0  0  0
 12 13  1  0  0  0  0
 12 23  1  0  0  0  0
 13 16  1  0  0  0  0
 14 13  1  0  0  0  0
 15 13  1  0  0  0  0
 16 28  1  0  0  0  0
 16 17  1  1  0  0  0
 16 18  1  0  0  0  0
 18 19  1  1  0  0  0
 20 22  1  0  0  0  0
 20 18  1  0  0  0  0
 21 20  1  0  0  0  0
 23 24  1  6  0  0  0
 23  5  1  0  0  0  0
 23 20  1  0  0  0  0
 24 27  1  0  0  0  0
 25 24  1  0  0  0  0
 26 24  1  0  0  0  0
 28 18  1  0  0  0  0
 28 29  1  0  0  0  0
 29 30  1  0  0  0  0
 29 32  1  0  0  0  0
 31 29  1  0  0  0  0
 33 36  1  0  0  0  0
 33 28  1  0  0  0  0
 34 33  1  0  0  0  0
 35 33  1  0  0  0  0
 37 46  1  0  0  0  0
 37 38  2  0  0  0  0
 38 40  1  0  0  0  0
 39 38  1  0  0  0  0
 40 42  2  0  0  0  0
 40 41  1  0  0  0  0
 42 43  1  0  0  0  0
 44 45  1  0  0  0  0
 44 42  1  0  0  0  0
 46 44  2  0  0  0  0
 47 46  1  0  0  0  0
 48 47  1  0  0  0  0
 49 47  2  0  0  0  0
 50 49  1  0  0  0  0
 51 50  1  0  0  0  0
 52 54  1  0  0  0  0
 52 50  2  0  0  0  0
 53 52  1  0  0  0  0
 54 56  2  0  0  0  0
 55 54  1  0  0  0  0
 56 57  1  0  0  0  0
 56 58  1  0  0  0  0
 58 49  1  0  0  0  0
 58 59  2  0  0  0  0
 59 37  1  0  0  0  0
M  END
$$$$
