CSD_code = WUPHIY | q = 0 | S = 0 | Stoichiometry = C20H29Cl2NNiP2 | MND = 4
 OpenBabel04212202113D

 55 57  0  0  0  0  0  0  0  0999 V2000
    6.3258   12.1980    3.7880 Ni  0  0  0  0  0  0  0  0  0  0  0  0
    6.9733   10.9636    5.3496 Cl  0  0  0  0  0  0  0  0  0  0  0  0
    6.4904   10.7865    2.2129 Cl  0  0  0  0  0  0  0  0  0  0  0  0
    5.3953   13.2319    2.1657 P   0  0  0  0  0  4  0  0  0  0  0  0
    4.8741   15.0067    2.4484 C   0  0  0  0  0  0  0  0  0  0  0  0
    5.6936   15.6914    2.2177 H   0  0  0  0  0  0  0  0  0  0  0  0
    4.0387   15.2393    1.7844 H   0  0  0  0  0  0  0  0  0  0  0  0
    4.4513   15.1870    3.9094 C   0  0  0  0  0  0  0  0  0  0  0  0
    3.8825   16.1172    4.0245 H   0  0  0  0  0  0  0  0  0  0  0  0
    3.8020   14.3543    4.2015 H   0  0  0  0  0  0  0  0  0  0  0  0
    5.5702   15.2267    4.8348 N   0  0  0  0  0  0  0  0  0  0  0  0
    6.2295   15.9486    4.5640 H   0  0  0  0  0  0  0  0  0  0  0  0
    6.3249   13.7576    5.2539 P   0  0  0  0  0  4  0  0  0  0  0  0
    3.7380   12.4950    2.0334 C   0  0  0  0  0  0  0  0  0  0  0  0
    3.3481   11.5926    3.0168 C   0  0  0  0  0  0  0  0  0  0  0  0
    4.0655   11.3034    3.7886 H   0  0  0  0  0  0  0  0  0  0  0  0
    2.0786   11.0455    3.0006 C   0  0  0  0  0  0  0  0  0  0  0  0
    1.7827   10.3430    3.7653 H   0  0  0  0  0  0  0  0  0  0  0  0
    1.1927   11.3966    1.9953 C   0  0  0  0  0  0  0  0  0  0  0  0
    0.2026   10.9659    1.9737 H   0  0  0  0  0  0  0  0  0  0  0  0
    1.5757   12.2957    1.0121 C   0  0  0  0  0  0  0  0  0  0  0  0
    0.8841   12.5637    0.2266 H   0  0  0  0  0  0  0  0  0  0  0  0
    2.8418   12.8511    1.0309 C   0  0  0  0  0  0  0  0  0  0  0  0
    3.1410   13.5496    0.2607 H   0  0  0  0  0  0  0  0  0  0  0  0
    6.0434   13.3206    0.4737 C   0  0  0  0  0  0  0  0  0  0  0  0
    7.0090   14.2672    0.1480 C   0  0  0  0  0  0  0  0  0  0  0  0
    7.3596   14.9660    0.8953 H   0  0  0  0  0  0  0  0  0  0  0  0
    7.5434   14.3085   -1.1267 C   0  0  0  0  0  0  0  0  0  0  0  0
    8.2936   15.0464   -1.3714 H   0  0  0  0  0  0  0  0  0  0  0  0
    7.1253   13.3988   -2.0831 C   0  0  0  0  0  0  0  0  0  0  0  0
    7.5445   13.4302   -3.0779 H   0  0  0  0  0  0  0  0  0  0  0  0
    6.1824   12.4376   -1.7564 C   0  0  0  0  0  0  0  0  0  0  0  0
    5.8694   11.7144   -2.4948 H   0  0  0  0  0  0  0  0  0  0  0  0
    5.6480   12.3906   -0.4826 C   0  0  0  0  0  0  0  0  0  0  0  0
    4.9359   11.6227   -0.2183 H   0  0  0  0  0  0  0  0  0  0  0  0
    8.0772   14.3518    5.4404 C   0  0  0  0  0  0  0  0  0  0  0  0
    8.0375   15.4043    5.7531 H   0  0  0  0  0  0  0  0  0  0  0  0
    8.8828   13.5466    6.4510 C   0  0  0  0  0  0  0  0  0  0  0  0
    8.5172   13.6994    7.4632 H   0  0  0  0  0  0  0  0  0  0  0  0
    9.9271   13.8541    6.4165 H   0  0  0  0  0  0  0  0  0  0  0  0
    8.8259   12.4854    6.2190 H   0  0  0  0  0  0  0  0  0  0  0  0
    8.6978   14.2418    4.0466 C   0  0  0  0  0  0  0  0  0  0  0  0
    8.1772   14.8795    3.3298 H   0  0  0  0  0  0  0  0  0  0  0  0
    8.6293   13.2011    3.6971 H   0  0  0  0  0  0  0  0  0  0  0  0
    9.7485   14.5264    4.0572 H   0  0  0  0  0  0  0  0  0  0  0  0
    5.6734   13.4864    6.9729 C   0  0  0  0  0  0  0  0  0  0  0  0
    6.3321   12.7366    7.4203 H   0  0  0  0  0  0  0  0  0  0  0  0
    4.2692   12.8977    6.8775 C   0  0  0  0  0  0  0  0  0  0  0  0
    4.2877   11.9979    6.2626 H   0  0  0  0  0  0  0  0  0  0  0  0
    3.5780   13.6158    6.4384 H   0  0  0  0  0  0  0  0  0  0  0  0
    3.9015   12.6277    7.8656 H   0  0  0  0  0  0  0  0  0  0  0  0
    5.6881   14.7716    7.7877 C   0  0  0  0  0  0  0  0  0  0  0  0
    6.6933   15.1769    7.8745 H   0  0  0  0  0  0  0  0  0  0  0  0
    5.3116   14.5752    8.7899 H   0  0  0  0  0  0  0  0  0  0  0  0
    5.0530   15.5211    7.3211 H   0  0  0  0  0  0  0  0  0  0  0  0
  1 13  1  0  0  0  0
  1  2  1  0  0  0  0
  3  1  1  0  0  0  0
  4  5  1  0  0  0  0
  4  1  1  0  0  0  0
  5  8  1  0  0  0  0
  6  5  1  0  0  0  0
  7  5  1  0  0  0  0
  8  9  1  0  0  0  0
  8 10  1  0  0  0  0
  8 11  1  0  0  0  0
 11 13  1  0  0  0  0
 12 11  1  0  0  0  0
 13 36  1  0  0  0  0
 13 46  1  0  0  0  0
 14  4  1  0  0  0  0
 14 15  1  0  0  0  0
 15 16  1  0  0  0  0
 17 15  2  0  0  0  0
 17 18  1  0  0  0  0
 19 17  1  0  0  0  0
 20 19  1  0  0  0  0
 21 23  1  0  0  0  0
 21 19  2  0  0  0  0
 22 21  1  0  0  0  0
 23 14  2  0  0  0  0
 24 23  1  0  0  0  0
 25  4  1  0  0  0  0
 26 25  1  0  0  0  0
 26 27  1  0  0  0  0
 28 26  2  0  0  0  0
 29 28  1  0  0  0  0
 30 32  2  0  0  0  0
 30 28  1  0  0  0  0
 31 30  1  0  0  0  0
 32 34  1  0  0  0  0
 33 32  1  0  0  0  0
 34 35  1  0  0  0  0
 34 25  2  0  0  0  0
 36 37  1  0  0  0  0
 36 38  1  0  0  0  0
 38 39  1  0  0  0  0
 40 38  1  0  0  0  0
 41 38  1  0  0  0  0
 42 45  1  0  0  0  0
 42 36  1  0  0  0  0
 43 42  1  0  0  0  0
 44 42  1  0  0  0  0
 46 47  1  0  0  0  0
 46 52  1  0  0  0  0
 48 46  1  0  0  0  0
 48 51  1  0  0  0  0
 49 48  1  0  0  0  0
 50 48  1  0  0  0  0
 52 53  1  0  0  0  0
 52 54  1  0  0  0  0
 55 52  1  0  0  0  0
M  END
$$$$
