CSD_code = WUPKUP | q = 0 | S = 0 | Stoichiometry = C9H14Cl3NTi | MND = 9
 OpenBabel04212202113D

 28 28  0  0  1  0  0  0  0  0999 V2000
    2.4929    1.1722    2.7294 Ti  0  0  0  0  0  0  0  0  0  0  0  0
    2.1558   -0.4931    4.1005 Cl  0  0  0  0  0  0  0  0  0  0  0  0
    4.1937    0.0135    1.8762 Cl  0  0  0  0  0  0  0  0  0  0  0  0
    3.9761    2.6105    3.4252 Cl  0  0  0  0  0  0  0  0  0  0  0  0
    1.2884    2.4093    4.6321 N   0  0  0  0  0  0  0  0  0  0  0  0
    0.3398    1.8009    2.1033 C   0  0  2  0  0  3  0  0  0  0  0  0
    0.5227    0.4872    1.6115 C   0  0  0  0  0  0  0  0  0  0  0  0
   -0.0916   -0.3695    1.8588 H   0  0  0  0  0  0  0  0  0  0  0  0
    1.5346    0.5202    0.6334 C   0  0  0  0  0  0  0  0  0  0  0  0
    1.8520   -0.3130    0.0213 H   0  0  0  0  0  0  0  0  0  0  0  0
    2.0086    1.8451    0.5335 C   0  0  0  0  0  3  0  0  0  0  0  0
    2.7336    2.2063   -0.1857 H   0  0  0  0  0  0  0  0  0  0  0  0
    1.2758    2.6410    1.4445 C   0  0  2  0  0  0  0  0  0  0  0  0
    1.3128    3.7226    1.4846 H   0  0  0  0  0  0  0  0  0  0  0  0
   -0.6709    2.2033    3.1366 C   0  0  0  0  0  0  0  0  0  0  0  0
   -1.5826    1.6138    3.0144 H   0  0  0  0  0  0  0  0  0  0  0  0
   -0.9354    3.2559    3.0148 H   0  0  0  0  0  0  0  0  0  0  0  0
   -0.1003    1.9446    4.5401 C   0  0  0  0  0  0  0  0  0  0  0  0
   -0.7287    2.4369    5.3002 H   0  0  0  0  0  0  0  0  0  0  0  0
   -0.1021    0.8661    4.7279 H   0  0  0  0  0  0  0  0  0  0  0  0
    1.8544    2.0220    5.9268 C   0  0  0  0  0  0  0  0  0  0  0  0
    1.7751    0.9462    6.0711 H   0  0  0  0  0  0  0  0  0  0  0  0
    1.3297    2.5269    6.7499 H   0  0  0  0  0  0  0  0  0  0  0  0
    2.9079    2.3043    5.9536 H   0  0  0  0  0  0  0  0  0  0  0  0
    1.3278    3.8729    4.5748 C   0  0  0  0  0  0  0  0  0  0  0  0
    2.3606    4.2081    4.6489 H   0  0  0  0  0  0  0  0  0  0  0  0
    0.7538    4.3070    5.4057 H   0  0  0  0  0  0  0  0  0  0  0  0
    0.9141    4.2410    3.6407 H   0  0  0  0  0  0  0  0  0  0  0  0
  1  4  1  0  0  0  0
  1  2  1  0  0  0  0
  3  1  1  0  0  0  0
  5 21  1  0  0  0  0
  6 15  1  1  0  0  0
  7  8  1  0  0  0  0
  7  6  1  0  0  0  0
  9  7  2  0  0  0  0
 10  9  1  0  0  0  0
 11  9  1  0  0  0  0
 11 13  1  0  0  0  0
 12 11  1  0  0  0  0
 13 14  1  1  0  0  0
 13  6  1  0  0  0  0
 13  1  1  0  0  0  0
 15 18  1  0  0  0  0
 16 15  1  0  0  0  0
 17 15  1  0  0  0  0
 18  5  1  0  0  0  0
 18 20  1  0  0  0  0
 18 19  1  0  0  0  0
 21 24  1  0  0  0  0
 21 22  1  0  0  0  0
 21 23  1  0  0  0  0
 25  5  1  0  0  0  0
 25 26  1  0  0  0  0
 25 27  1  0  0  0  0
 28 25  1  0  0  0  0
M  END
$$$$
