CSD_code = WUPLUQ | q = 0 | S = 0 | Stoichiometry = C23H27ClN2Ti | MND = 9
 OpenBabel04212202113D

 54 54  0  0  0  0  0  0  0  0999 V2000
    6.0855    2.0042    8.8752 Ti  0  0  0  0  0  0  0  0  0  0  0  0
    4.8752    1.3516   10.6190 Cl  0  0  0  0  0 15  0  0  0  0  0  0
    7.2846    3.3442   10.2261 N   0  0  0  0  0  0  0  0  0  0  0  0
    4.6674    2.4849    7.8441 N   0  0  0  0  0  0  0  0  0  0  0  0
    8.1591    1.0685    8.8631 C   0  0  0  0  0  0  0  0  0  0  0  0
    7.9452    1.6072    7.5705 C   0  0  0  0  0  0  0  0  0  0  0  0
    8.5735    2.3326    7.0656 H   0  0  0  0  0  0  0  0  0  0  0  0
    6.9225    0.8524    6.9537 C   0  0  0  0  0  0  0  0  0  0  0  0
    6.5930    0.9488    5.9263 H   0  0  0  0  0  0  0  0  0  0  0  0
    6.4836   -0.1211    7.8688 C   0  0  0  0  0  0  0  0  0  0  0  0
    5.7715   -0.9082    7.6591 H   0  0  0  0  0  0  0  0  0  0  0  0
    7.2461    0.0119    9.0490 C   0  0  0  0  0  3  0  0  0  0  0  0
    7.2050   -0.6488    9.9066 H   0  0  0  0  0  0  0  0  0  0  0  0
    9.0629    1.6126    9.9284 C   0  0  0  0  0  0  0  0  0  0  0  0
    9.8462    2.2398    9.4939 H   0  0  0  0  0  0  0  0  0  0  0  0
    9.5522    0.8000   10.4733 H   0  0  0  0  0  0  0  0  0  0  0  0
    8.1987    2.4116   10.9145 C   0  0  0  0  0  0  0  0  0  0  0  0
    7.5797    1.7099   11.4868 H   0  0  0  0  0  0  0  0  0  0  0  0
    8.8386    2.9694   11.6194 H   0  0  0  0  0  0  0  0  0  0  0  0
    6.4801    4.0107   11.2586 C   0  0  0  0  0  0  0  0  0  0  0  0
    5.7870    4.7133   10.7949 H   0  0  0  0  0  0  0  0  0  0  0  0
    7.1297    4.5603   11.9545 H   0  0  0  0  0  0  0  0  0  0  0  0
    5.9034    3.2746   11.8195 H   0  0  0  0  0  0  0  0  0  0  0  0
    8.0649    4.3872    9.5506 C   0  0  0  0  0  0  0  0  0  0  0  0
    8.6322    3.9759    8.7176 H   0  0  0  0  0  0  0  0  0  0  0  0
    8.7646    4.8590   10.2556 H   0  0  0  0  0  0  0  0  0  0  0  0
    7.3929    5.1553    9.1679 H   0  0  0  0  0  0  0  0  0  0  0  0
    5.4499    3.6333    7.7354 C   0  0  0  0  0  3  0  0  0  0  0  0
    5.9577    3.7910    6.7651 H   0  0  0  0  0  0  0  0  0  0  0  0
    4.9229    4.8507    8.3410 C   0  0  0  0  0  0  0  0  0  0  0  0
    3.9028    4.7850    9.3040 C   0  0  0  0  0  0  0  0  0  0  0  0
    3.5090    3.8113    9.5827 H   0  0  0  0  0  0  0  0  0  0  0  0
    3.4092    5.9326    9.8882 C   0  0  0  0  0  0  0  0  0  0  0  0
    2.6205    5.8589   10.6239 H   0  0  0  0  0  0  0  0  0  0  0  0
    3.9089    7.1878    9.5497 C   0  0  0  0  0  0  0  0  0  0  0  0
    4.9133    7.2584    8.5920 C   0  0  0  0  0  0  0  0  0  0  0  0
    5.3064    8.2240    8.3047 H   0  0  0  0  0  0  0  0  0  0  0  0
    5.4093    6.1167    7.9933 C   0  0  0  0  0  0  0  0  0  0  0  0
    6.1770    6.2000    7.2339 H   0  0  0  0  0  0  0  0  0  0  0  0
    3.3546    8.4306   10.1783 C   0  0  0  0  0  0  0  0  0  0  0  0
    2.5061    8.7973    9.5991 H   0  0  0  0  0  0  0  0  0  0  0  0
    4.1044    9.2183   10.2102 H   0  0  0  0  0  0  0  0  0  0  0  0
    3.0079    8.2312   11.1900 H   0  0  0  0  0  0  0  0  0  0  0  0
    3.8567    1.9259    6.9101 C   0  0  0  0  0  0  0  0  0  0  0  0
    3.2920    0.6651    7.1740 C   0  0  0  0  0  0  0  0  0  0  0  0
    3.5001    0.1986    8.1323 H   0  0  0  0  0  0  0  0  0  0  0  0
    2.4740    0.0576    6.2470 C   0  0  0  0  0  0  0  0  0  0  0  0
    2.0476   -0.9123    6.4613 H   0  0  0  0  0  0  0  0  0  0  0  0
    2.1876    0.6856    5.0422 C   0  0  0  0  0  0  0  0  0  0  0  0
    1.5472    0.2052    4.3179 H   0  0  0  0  0  0  0  0  0  0  0  0
    2.7132    1.9415    4.7845 C   0  0  0  0  0  0  0  0  0  0  0  0
    2.4770    2.4431    3.8564 H   0  0  0  0  0  0  0  0  0  0  0  0
    3.5332    2.5652    5.7029 C   0  0  0  0  0  0  0  0  0  0  0  0
    3.9212    3.5555    5.5088 H   0  0  0  0  0  0  0  0  0  0  0  0
  3 17  1  0  0  0  0
  3 20  1  0  0  0  0
  4  1  1  0  0  0  0
  5 12  1  0  0  0  0
  5 14  1  0  0  0  0
  6  5  2  0  0  0  0
  7  6  1  0  0  0  0
  8  6  1  0  0  0  0
  8 10  2  0  0  0  0
  9  8  1  0  0  0  0
 10 12  1  0  0  0  0
 11 10  1  0  0  0  0
 12 13  1  0  0  0  0
 14 16  1  0  0  0  0
 14 17  1  0  0  0  0
 15 14  1  0  0  0  0
 17 18  1  0  0  0  0
 17 19  1  0  0  0  0
 20 23  1  0  0  0  0
 20 22  1  0  0  0  0
 21 20  1  0  0  0  0
 24  3  1  0  0  0  0
 24 26  1  0  0  0  0
 25 24  1  0  0  0  0
 27 24  1  0  0  0  0
 28  4  1  0  0  0  0
 28 30  1  0  0  0  0
 29 28  1  0  0  0  0
 30 31  1  0  0  0  0
 31 32  1  0  0  0  0
 31 33  2  0  0  0  0
 33 34  1  0  0  0  0
 35 33  1  0  0  0  0
 35 40  1  0  0  0  0
 36 35  2  0  0  0  0
 37 36  1  0  0  0  0
 38 30  2  0  0  0  0
 38 36  1  0  0  0  0
 39 38  1  0  0  0  0
 40 42  1  0  0  0  0
 40 43  1  0  0  0  0
 41 40  1  0  0  0  0
 44 45  1  0  0  0  0
 44  4  1  0  0  0  0
 45 46  1  0  0  0  0
 47 48  1  0  0  0  0
 47 45  2  0  0  0  0
 49 47  1  0  0  0  0
 50 49  1  0  0  0  0
 51 49  2  0  0  0  0
 51 53  1  0  0  0  0
 52 51  1  0  0  0  0
 53 44  2  0  0  0  0
 54 53  1  0  0  0  0
M  END
$$$$
