CSD_code = WUPWEJ | q = 0 | S = 0 | Stoichiometry = C32H28Cl2N2Zn | MND = 4
 OpenBabel04212202113D

 65 69  0  0  0  0  0  0  0  0999 V2000
    9.8319    8.8037    1.0491 Cl  0  0  0  0  0  0  0  0  0  0  0  0
    7.8972    7.7987    0.6742 Zn  0  0  0  0  0  0  0  0  0  0  0  0
   10.2681    3.8088    0.5129 C   0  0  0  0  0  3  0  0  0  0  0  0
    8.1844    6.4039   -0.8804 N   0  0  0  0  0  0  0  0  0  0  0  0
    6.5392    6.9839    2.2145 Cl  0  0  0  0  0  0  0  0  0  0  0  0
    7.0618    8.9068   -0.9150 N   0  0  0  0  0  0  0  0  0  0  0  0
    9.4522    4.8829    0.3784 C   0  0  0  0  0  0  0  0  0  0  0  0
    9.1711    5.4560    1.2534 H   0  0  0  0  0  0  0  0  0  0  0  0
    8.8814    5.3357   -0.8436 C   0  0  0  0  0  0  0  0  0  0  0  0
    9.0220    4.7322   -1.7457 H   0  0  0  0  0  0  0  0  0  0  0  0
    7.5512    6.8521   -2.0845 C   0  0  0  0  0  0  0  0  0  0  0  0
    6.4998    6.5422   -2.0457 H   0  0  0  0  0  0  0  0  0  0  0  0
    8.0144    6.4230   -2.9831 H   0  0  0  0  0  0  0  0  0  0  0  0
    7.6040    8.3840   -2.1333 C   0  0  0  0  0  0  0  0  0  0  0  0
    8.6553    8.6899   -2.1853 H   0  0  0  0  0  0  0  0  0  0  0  0
    7.0773    8.7611   -3.0197 H   0  0  0  0  0  0  0  0  0  0  0  0
    6.3763    9.9822   -0.8912 C   0  0  0  0  0  0  0  0  0  0  0  0
    6.1638   10.5264   -1.8164 H   0  0  0  0  0  0  0  0  0  0  0  0
    5.9124   10.5224    0.3411 C   0  0  0  0  0  0  0  0  0  0  0  0
    6.2479    9.9944    1.2254 H   0  0  0  0  0  0  0  0  0  0  0  0
    5.1455   11.6326    0.4717 C   0  0  0  0  0  3  0  0  0  0  0  0
   10.7808    3.0711   -0.6510 C   0  0  0  0  0  0  0  0  0  0  0  0
   10.6719    1.6822   -0.7030 C   0  0  0  0  0  0  0  0  0  0  0  0
   10.2006    1.1580    0.1156 H   0  0  0  0  0  0  0  0  0  0  0  0
   11.1429    0.9847   -1.7993 C   0  0  0  0  0  0  0  0  0  0  0  0
   11.0437   -0.0900   -1.8344 H   0  0  0  0  0  0  0  0  0  0  0  0
   11.7446    1.6602   -2.8490 C   0  0  0  0  0  0  0  0  0  0  0  0
   12.1179    1.1130   -3.7018 H   0  0  0  0  0  0  0  0  0  0  0  0
   11.8750    3.0383   -2.7972 C   0  0  0  0  0  0  0  0  0  0  0  0
   12.3562    3.5669   -3.6070 H   0  0  0  0  0  0  0  0  0  0  0  0
   11.3942    3.7418   -1.7080 C   0  0  0  0  0  0  0  0  0  0  0  0
   11.5180    4.8139   -1.6527 H   0  0  0  0  0  0  0  0  0  0  0  0
   10.6898    3.3438    1.8342 C   0  0  0  0  0  0  0  0  0  0  0  0
    9.8632    3.4928    2.9505 C   0  0  0  0  0  0  0  0  0  0  0  0
    8.8858    3.9373    2.8413 H   0  0  0  0  0  0  0  0  0  0  0  0
   10.2766    3.0465    4.1906 C   0  0  0  0  0  0  0  0  0  0  0  0
    9.6252    3.1626    5.0438 H   0  0  0  0  0  0  0  0  0  0  0  0
   11.5198    2.4530    4.3425 C   0  0  0  0  0  0  0  0  0  0  0  0
   11.8414    2.1092    5.3144 H   0  0  0  0  0  0  0  0  0  0  0  0
   12.3490    2.3018    3.2427 C   0  0  0  0  0  0  0  0  0  0  0  0
   13.3206    1.8439    3.3563 H   0  0  0  0  0  0  0  0  0  0  0  0
   11.9372    2.7364    1.9979 C   0  0  0  0  0  0  0  0  0  0  0  0
   12.5927    2.6286    1.1457 H   0  0  0  0  0  0  0  0  0  0  0  0
    4.8511   12.1923    1.7911 C   0  0  0  0  0  0  0  0  0  0  0  0
    5.7696   12.0915    2.8386 C   0  0  0  0  0  0  0  0  0  0  0  0
    6.7247   11.6174    2.6715 H   0  0  0  0  0  0  0  0  0  0  0  0
    5.4770   12.6243    4.0789 C   0  0  0  0  0  0  0  0  0  0  0  0
    6.1983   12.5438    4.8783 H   0  0  0  0  0  0  0  0  0  0  0  0
    4.2650   13.2591    4.2994 C   0  0  0  0  0  0  0  0  0  0  0  0
    4.0375   13.6705    5.2715 H   0  0  0  0  0  0  0  0  0  0  0  0
    3.3466   13.3662    3.2674 C   0  0  0  0  0  0  0  0  0  0  0  0
    2.3997   13.8583    3.4346 H   0  0  0  0  0  0  0  0  0  0  0  0
    3.6374   12.8441    2.0221 C   0  0  0  0  0  0  0  0  0  0  0  0
    2.9131   12.9191    1.2238 H   0  0  0  0  0  0  0  0  0  0  0  0
    4.5623   12.3204   -0.6896 C   0  0  0  0  0  0  0  0  0  0  0  0
    3.8452   11.6139   -1.6541 C   0  0  0  0  0  0  0  0  0  0  0  0
    3.6950   10.5512   -1.5284 H   0  0  0  0  0  0  0  0  0  0  0  0
    3.2972   12.2718   -2.7401 C   0  0  0  0  0  0  0  0  0  0  0  0
    2.7369   11.7155   -3.4773 H   0  0  0  0  0  0  0  0  0  0  0  0
    3.4623   13.6397   -2.8814 C   0  0  0  0  0  0  0  0  0  0  0  0
    3.0366   14.1511   -3.7318 H   0  0  0  0  0  0  0  0  0  0  0  0
    4.1673   14.3512   -1.9239 C   0  0  0  0  0  0  0  0  0  0  0  0
    4.2939   15.4185   -2.0284 H   0  0  0  0  0  0  0  0  0  0  0  0
    4.7064   13.6999   -0.8305 C   0  0  0  0  0  0  0  0  0  0  0  0
    5.2585   14.2525   -0.0845 H   0  0  0  0  0  0  0  0  0  0  0  0
  2  1  1  0  0  0  0
  2  5  1  0  0  0  0
  3 33  1  0  0  0  0
  4  9  1  0  0  0  0
  4  2  1  0  0  0  0
  6 17  1  0  0  0  0
  6  2  1  0  0  0  0
  7  3  1  0  0  0  0
  7  8  1  0  0  0  0
  9  7  2  0  0  0  0
 10  9  1  0  0  0  0
 11 12  1  0  0  0  0
 11  4  1  0  0  0  0
 13 11  1  0  0  0  0
 14 11  1  0  0  0  0
 14  6  1  0  0  0  0
 15 14  1  0  0  0  0
 16 14  1  0  0  0  0
 17 19  2  0  0  0  0
 18 17  1  0  0  0  0
 19 21  1  0  0  0  0
 19 20  1  0  0  0  0
 21 44  1  0  0  0  0
 22  3  1  0  0  0  0
 23 22  1  0  0  0  0
 23 24  1  0  0  0  0
 25 23  2  0  0  0  0
 26 25  1  0  0  0  0
 27 29  2  0  0  0  0
 27 25  1  0  0  0  0
 28 27  1  0  0  0  0
 29 31  1  0  0  0  0
 30 29  1  0  0  0  0
 31 32  1  0  0  0  0
 31 22  2  0  0  0  0
 33 42  2  0  0  0  0
 33 34  1  0  0  0  0
 34 36  2  0  0  0  0
 35 34  1  0  0  0  0
 36 38  1  0  0  0  0
 36 37  1  0  0  0  0
 38 39  1  0  0  0  0
 40 41  1  0  0  0  0
 40 38  2  0  0  0  0
 42 40  1  0  0  0  0
 43 42  1  0  0  0  0
 44 53  2  0  0  0  0
 44 45  1  0  0  0  0
 45 47  2  0  0  0  0
 46 45  1  0  0  0  0
 47 49  1  0  0  0  0
 47 48  1  0  0  0  0
 49 50  1  0  0  0  0
 51 52  1  0  0  0  0
 51 49  2  0  0  0  0
 53 51  1  0  0  0  0
 54 53  1  0  0  0  0
 55 21  1  0  0  0  0
 56 57  1  0  0  0  0
 56 55  2  0  0  0  0
 58 56  1  0  0  0  0
 59 58  1  0  0  0  0
 60 58  2  0  0  0  0
 60 62  1  0  0  0  0
 61 60  1  0  0  0  0
 62 64  2  0  0  0  0
 63 62  1  0  0  0  0
 64 55  1  0  0  0  0
 64 65  1  0  0  0  0
M  END
$$$$
