CSD_code = WUPXEK | q = 0 | S = 0 | Stoichiometry = C16H14BrCl2N3O2Zn | MND = 5
 OpenBabel04212202113D

 39 42  0  0  1  0  0  0  0  0999 V2000
   -1.8980   -6.8088    7.0726 Br  0  0  0  0  0  0  0  0  0  0  0  0
   -1.4629   -0.0296   11.6270 Zn  0  0  0  0  0  0  0  0  0  0  0  0
   -2.9877   -1.2291   12.7730 Cl  0  0  0  0  0  0  0  0  0  0  0  0
   -0.1028    1.5903   12.2206 Cl  0  0  0  0  0  0  0  0  0  0  0  0
   -5.0460    0.0280   10.1426 O   0  0  0  0  0  0  0  0  0  0  0  0
   -2.5687    1.4378   10.2311 O   0  0  0  0  0  0  0  0  0  0  0  0
   -4.6259   -2.1735    9.9106 N   0  0  0  0  0  0  0  0  0  0  0  0
   -1.9506   -1.1002    9.8562 N   0  0  0  0  0  0  0  0  0  0  0  0
   -0.0878   -1.7564   11.5510 N   0  0  0  0  0  0  0  0  0  0  0  0
   -4.3190   -0.8504    9.7653 C   0  0  0  0  0  0  0  0  0  0  0  0
   -2.9837   -0.5720    9.0376 C   0  0  1  0  0  0  0  0  0  0  0  0
   -1.7603   -2.3558    9.9907 C   0  0  0  0  0  0  0  0  0  0  0  0
   -1.9638   -4.4152    8.6135 C   0  0  0  0  0  0  0  0  0  0  0  0
   -2.7398   -5.3680    7.9857 C   0  0  0  0  0  0  0  0  0  0  0  0
   -4.1258   -5.2890    8.0199 C   0  0  0  0  0  0  0  0  0  0  0  0
   -4.7273   -4.2282    8.6607 C   0  0  0  0  0  0  0  0  0  0  0  0
   -5.8573   -2.4466   10.6346 C   0  0  0  0  0  0  0  0  0  0  0  0
   -2.7689    0.9422    8.9277 C   0  0  0  0  0  0  0  0  0  0  0  0
   -0.7416   -2.7655   10.9670 C   0  0  0  0  0  0  0  0  0  0  0  0
    0.8338   -2.0113   12.4592 C   0  0  0  0  0  0  0  0  0  0  0  0
    1.1556   -3.3030   12.8559 C   0  0  0  0  0  0  0  0  0  0  0  0
    0.4529   -4.3555   12.2947 C   0  0  0  0  0  0  0  0  0  0  0  0
   -0.5125   -4.0883   11.3363 C   0  0  0  0  0  0  0  0  0  0  0  0
   -2.5678   -3.3483    9.2767 C   0  0  0  0  0  0  0  0  0  0  0  0
   -3.9694   -3.2263    9.2781 C   0  0  0  0  0  0  0  0  0  0  0  0
   -3.0187   -1.0376    8.0411 H   0  0  0  0  0  0  0  0  0  0  0  0
   -0.8869   -4.4779    8.5739 H   0  0  0  0  0  0  0  0  0  0  0  0
   -4.7238   -6.0461    7.5372 H   0  0  0  0  0  0  0  0  0  0  0  0
   -5.8030   -4.1575    8.6650 H   0  0  0  0  0  0  0  0  0  0  0  0
   -5.8931   -1.7580   11.4785 H   0  0  0  0  0  0  0  0  0  0  0  0
   -5.8402   -3.4680   11.0044 H   0  0  0  0  0  0  0  0  0  0  0  0
   -6.7376   -2.2795   10.0107 H   0  0  0  0  0  0  0  0  0  0  0  0
   -1.8918    1.1297    8.2961 H   0  0  0  0  0  0  0  0  0  0  0  0
   -3.6592    1.4031    8.4812 H   0  0  0  0  0  0  0  0  0  0  0  0
   -2.2044    2.3302   10.2027 H   0  0  0  0  0  0  0  0  0  0  0  0
    1.3235   -1.1460   12.8846 H   0  0  0  0  0  0  0  0  0  0  0  0
    1.9167   -3.4712   13.6005 H   0  0  0  0  0  0  0  0  0  0  0  0
    0.6435   -5.3730   12.6017 H   0  0  0  0  0  0  0  0  0  0  0  0
   -1.0924   -4.8902   10.9090 H   0  0  0  0  0  0  0  0  0  0  0  0
  1 14  1  0  0  0  0
  2  4  1  0  0  0  0
  2  3  1  0  0  0  0
  7 17  1  0  0  0  0
  8 12  1  0  0  0  0
  8  2  1  0  0  0  0
  9  2  1  0  0  0  0
  9 20  1  0  0  0  0
 10  7  1  0  0  0  0
 10  5  2  0  0  0  0
 11 26  1  6  0  0  0
 11 10  1  0  0  0  0
 11  8  1  0  0  0  0
 12 19  2  0  0  0  0
 13 24  1  0  0  0  0
 14 15  1  0  0  0  0
 14 13  2  0  0  0  0
 15 16  2  0  0  0  0
 16 29  1  0  0  0  0
 16 25  1  0  0  0  0
 17 31  1  0  0  0  0
 17 30  1  0  0  0  0
 18 11  1  0  0  0  0
 18  6  1  0  0  0  0
 19 23  1  0  0  0  0
 19  9  1  0  0  0  0
 20 21  2  0  0  0  0
 20 36  1  0  0  0  0
 21 37  1  0  0  0  0
 22 38  1  0  0  0  0
 22 21  1  0  0  0  0
 23 22  2  0  0  0  0
 24 25  2  0  0  0  0
 24 12  1  0  0  0  0
 25  7  1  0  0  0  0
 27 13  1  0  0  0  0
 28 15  1  0  0  0  0
 32 17  1  0  0  0  0
 33 18  1  0  0  0  0
 34 18  1  0  0  0  0
 35  6  1  0  0  0  0
 39 23  1  0  0  0  0
M  END
$$$$
