CSD_code = WUPYOW | q = 0 | S = 0 | Stoichiometry = C29H29I2N2PPd | MND = 4
 OpenBabel04212202113D

 64 68  0  0  0  0  0  0  0  0999 V2000
   -0.0669    2.9608   10.7782 Pd  0  0  0  0  0  0  0  0  0  0  0  0
   -0.4083    1.4002   12.8251 I   0  0  0  0  0  0  0  0  0  0  0  0
    2.2061    1.9448   10.0067 I   0  0  0  0  0  0  0  0  0  0  0  0
   -0.0605    4.2539    8.9426 P   0  0  0  0  0  4  0  0  0  0  0  0
   -1.7393    4.8998   12.1181 N   0  0  0  0  0  0  0  0  0  0  0  0
   -3.0130    5.4161   12.2612 N   0  0  0  0  0  0  0  0  0  0  0  0
   -1.7285    3.8249   11.3395 C   0  0  0  0  0  0  0  0  0  0  0  0
   -3.0780    3.5831   10.9695 C   0  0  0  0  0  0  0  0  0  0  0  0
   -3.6783    2.5931   10.1898 C   0  0  0  0  0  3  0  0  0  0  0  0
   -3.0802    1.7929    9.7725 H   0  0  0  0  0  0  0  0  0  0  0  0
   -5.0347    2.6702    9.9864 C   0  0  0  0  0  0  0  0  0  0  0  0
   -5.5341    1.9227    9.3894 H   0  0  0  0  0  0  0  0  0  0  0  0
   -5.7890    3.7097   10.5445 C   0  0  0  0  0  0  0  0  0  0  0  0
   -6.8517    3.7400   10.3551 H   0  0  0  0  0  0  0  0  0  0  0  0
   -5.2223    4.6869   11.3325 C   0  0  0  0  0  0  0  0  0  0  0  0
   -5.8216    5.4774   11.7566 H   0  0  0  0  0  0  0  0  0  0  0  0
   -3.8495    4.6128   11.5539 C   0  0  0  0  0  0  0  0  0  0  0  0
   -0.5672    5.4588   12.7540 C   0  0  0  0  0  0  0  0  0  0  0  0
   -0.5091    6.5323   12.5402 H   0  0  0  0  0  0  0  0  0  0  0  0
    0.3008    4.9580   12.2733 H   0  0  0  0  0  0  0  0  0  0  0  0
   -0.5046    5.1796   14.2527 C   0  0  0  0  0  0  0  0  0  0  0  0
   -1.2713    5.7192   14.8011 H   0  0  0  0  0  0  0  0  0  0  0  0
    0.4669    5.4857   14.6317 H   0  0  0  0  0  0  0  0  0  0  0  0
   -0.6196    4.1129   14.4362 H   0  0  0  0  0  0  0  0  0  0  0  0
   -3.3855    6.5631   13.0423 C   0  0  0  0  0  0  0  0  0  0  0  0
   -4.0354    7.1914   12.4225 H   0  0  0  0  0  0  0  0  0  0  0  0
   -2.4892    7.1395   13.2747 H   0  0  0  0  0  0  0  0  0  0  0  0
   -4.1144    6.1691   14.3267 C   0  0  0  0  0  0  0  0  0  0  0  0
   -5.0377    5.6455   14.0948 H   0  0  0  0  0  0  0  0  0  0  0  0
   -4.3528    7.0596   14.9015 H   0  0  0  0  0  0  0  0  0  0  0  0
   -3.5004    5.5121   14.9373 H   0  0  0  0  0  0  0  0  0  0  0  0
   -1.1956    5.6856    8.9753 C   0  0  0  0  0  0  0  0  0  0  0  0
   -0.7637    6.8984    9.5073 C   0  0  0  0  0  0  0  0  0  0  0  0
    0.2820    7.0337    9.7525 H   0  0  0  0  0  0  0  0  0  0  0  0
   -1.6597    7.9317    9.7103 C   0  0  0  0  0  0  0  0  0  0  0  0
   -1.3132    8.8706   10.1182 H   0  0  0  0  0  0  0  0  0  0  0  0
   -2.9978    7.7649    9.3910 C   0  0  0  0  0  0  0  0  0  0  0  0
   -3.6972    8.5719    9.5532 H   0  0  0  0  0  0  0  0  0  0  0  0
   -3.4337    6.5642    8.8551 C   0  0  0  0  0  0  0  0  0  0  0  0
   -4.4746    6.4285    8.6004 H   0  0  0  0  0  0  0  0  0  0  0  0
   -2.5413    5.5279    8.6526 C   0  0  0  0  0  0  0  0  0  0  0  0
   -2.8908    4.5903    8.2421 H   0  0  0  0  0  0  0  0  0  0  0  0
   -0.7163    3.2368    7.5943 C   0  0  0  0  0  0  0  0  0  0  0  0
   -1.0747    3.7657    6.3563 C   0  0  0  0  0  0  0  0  0  0  0  0
   -0.9686    4.8268    6.1707 H   0  0  0  0  0  0  0  0  0  0  0  0
   -1.5888    2.9347    5.3786 C   0  0  0  0  0  0  0  0  0  0  0  0
   -1.8597    3.3437    4.4161 H   0  0  0  0  0  0  0  0  0  0  0  0
   -1.7614    1.5824    5.6313 C   0  0  0  0  0  0  0  0  0  0  0  0
   -2.1625    0.9392    4.8621 H   0  0  0  0  0  0  0  0  0  0  0  0
   -1.4339    1.0570    6.8702 C   0  0  0  0  0  0  0  0  0  0  0  0
   -1.5817    0.0065    7.0715 H   0  0  0  0  0  0  0  0  0  0  0  0
   -0.9146    1.8814    7.8517 C   0  0  0  0  0  0  0  0  0  0  0  0
   -0.6564    1.4613    8.8336 H   0  0  0  0  0  0  0  0  0  0  0  0
    1.5050    5.0072    8.4137 C   0  0  0  0  0  0  0  0  0  0  0  0
    1.9204    5.1111    7.0942 C   0  0  0  0  0  0  0  0  0  0  0  0
    1.3162    4.7066    6.2959 H   0  0  0  0  0  0  0  0  0  0  0  0
    3.1349    5.7111    6.8072 C   0  0  0  0  0  0  0  0  0  0  0  0
    3.4628    5.7836    5.7808 H   0  0  0  0  0  0  0  0  0  0  0  0
    3.9327    6.2041    7.8253 C   0  0  0  0  0  0  0  0  0  0  0  0
    4.8817    6.6629    7.5929 H   0  0  0  0  0  0  0  0  0  0  0  0
    3.5296    6.0832    9.1460 C   0  0  0  0  0  0  0  0  0  0  0  0
    4.1640    6.4390    9.9439 H   0  0  0  0  0  0  0  0  0  0  0  0
    2.3229    5.4806    9.4385 C   0  0  0  0  0  0  0  0  0  0  0  0
    2.0223    5.3313   10.4747 H   0  0  0  0  0  0  0  0  0  0  0  0
  1  7  1  0  0  0  0
  1  2  1  0  0  0  0
  3  1  1  0  0  0  0
  4 32  1  0  0  0  0
  4  1  1  0  0  0  0
  5  6  1  0  0  0  0
  5 18  1  0  0  0  0
  6 25  1  0  0  0  0
  7  5  1  0  0  0  0
  8  7  2  0  0  0  0
  8 17  1  0  0  0  0
  9  8  1  0  0  0  0
 10  9  1  0  0  0  0
 11  9  1  0  0  0  0
 11 13  2  0  0  0  0
 12 11  1  0  0  0  0
 13 15  1  0  0  0  0
 14 13  1  0  0  0  0
 15 17  2  0  0  0  0
 15 16  1  0  0  0  0
 17  6  1  0  0  0  0
 18 21  1  0  0  0  0
 19 18  1  0  0  0  0
 20 18  1  0  0  0  0
 21 24  1  0  0  0  0
 21 23  1  0  0  0  0
 21 22  1  0  0  0  0
 25 27  1  0  0  0  0
 25 28  1  0  0  0  0
 26 25  1  0  0  0  0
 28 30  1  0  0  0  0
 28 31  1  0  0  0  0
 29 28  1  0  0  0  0
 32 33  1  0  0  0  0
 33 35  2  0  0  0  0
 33 34  1  0  0  0  0
 35 36  1  0  0  0  0
 37 38  1  0  0  0  0
 37 35  1  0  0  0  0
 39 37  2  0  0  0  0
 40 39  1  0  0  0  0
 41 39  1  0  0  0  0
 41 32  2  0  0  0  0
 42 41  1  0  0  0  0
 43 52  1  0  0  0  0
 43  4  1  0  0  0  0
 44 43  2  0  0  0  0
 45 44  1  0  0  0  0
 46 48  2  0  0  0  0
 46 44  1  0  0  0  0
 47 46  1  0  0  0  0
 48 50  1  0  0  0  0
 49 48  1  0  0  0  0
 50 51  1  0  0  0  0
 50 52  2  0  0  0  0
 52 53  1  0  0  0  0
 54  4  1  0  0  0  0
 54 63  1  0  0  0  0
 55 54  2  0  0  0  0
 56 55  1  0  0  0  0
 57 55  1  0  0  0  0
 57 59  2  0  0  0  0
 58 57  1  0  0  0  0
 59 61  1  0  0  0  0
 60 59  1  0  0  0  0
 61 63  2  0  0  0  0
 61 62  1  0  0  0  0
 63 64  1  0  0  0  0
M  END
$$$$
