CSD_code = WUPZEN | q = 0 | S = 0 | Stoichiometry = C11H14AuClN2 | MND = 2
 OpenBabel04212202113D

 29 30  0  0  0  0  0  0  0  0999 V2000
   -1.0555    3.8347   13.8343 Au  0  0  0  0  0  0  0  0  0  0  0  0
   -2.7869    4.2222   15.2093 Cl  0  0  0  0  0  0  0  0  0  0  0  0
    1.7787    3.5101   13.0020 N   0  0  0  0  0  0  0  0  0  0  0  0
    2.6234    3.1415   11.9740 N   0  0  0  0  0  0  0  0  0  0  0  0
    0.4989    3.4858   12.6506 C   0  0  0  0  0  0  0  0  0  0  0  0
    0.4993    3.1211   11.2734 C   0  0  0  0  0  0  0  0  0  0  0  0
   -0.5323    2.9428   10.3498 C   0  0  0  0  0  3  0  0  0  0  0  0
   -1.5560    3.0835   10.6588 H   0  0  0  0  0  0  0  0  0  0  0  0
   -0.1984    2.5894    9.0644 C   0  0  0  0  0  0  0  0  0  0  0  0
   -0.9726    2.4450    8.3267 H   0  0  0  0  0  0  0  0  0  0  0  0
    1.1380    2.4112    8.6853 C   0  0  0  0  0  0  0  0  0  0  0  0
    1.3591    2.1358    7.6649 H   0  0  0  0  0  0  0  0  0  0  0  0
    2.1759    2.5786    9.5746 C   0  0  0  0  0  0  0  0  0  0  0  0
    3.2011    2.4384    9.2676 H   0  0  0  0  0  0  0  0  0  0  0  0
    1.8442    2.9337   10.8791 C   0  0  0  0  0  0  0  0  0  0  0  0
    2.2744    3.7295   14.3361 C   0  0  0  0  0  0  0  0  0  0  0  0
    1.5336    4.3478   14.8476 H   0  0  0  0  0  0  0  0  0  0  0  0
    3.2180    4.2782   14.2950 H   0  0  0  0  0  0  0  0  0  0  0  0
    2.4398    2.4116   15.0893 C   0  0  0  0  0  0  0  0  0  0  0  0
    1.4765    1.9145   15.1706 H   0  0  0  0  0  0  0  0  0  0  0  0
    2.8150    2.6053   16.0899 H   0  0  0  0  0  0  0  0  0  0  0  0
    3.1323    1.7455   14.5786 H   0  0  0  0  0  0  0  0  0  0  0  0
    4.0529    3.2957   11.9851 C   0  0  0  0  0  0  0  0  0  0  0  0
    4.4551    2.5849   11.2585 H   0  0  0  0  0  0  0  0  0  0  0  0
    4.4429    3.0221   12.9679 H   0  0  0  0  0  0  0  0  0  0  0  0
    4.4795    4.7155   11.6118 C   0  0  0  0  0  0  0  0  0  0  0  0
    4.1096    4.9695   10.6213 H   0  0  0  0  0  0  0  0  0  0  0  0
    5.5634    4.7875   11.6086 H   0  0  0  0  0  0  0  0  0  0  0  0
    4.0855    5.4412   12.3198 H   0  0  0  0  0  0  0  0  0  0  0  0
  1  2  1  0  0  0  0
  3 16  1  0  0  0  0
  4 23  1  0  0  0  0
  4  3  1  0  0  0  0
  5  3  1  0  0  0  0
  5  1  1  0  0  0  0
  6  5  2  0  0  0  0
  7  8  1  0  0  0  0
  7  6  1  0  0  0  0
  9  7  1  0  0  0  0
 10  9  1  0  0  0  0
 11  9  2  0  0  0  0
 11 13  1  0  0  0  0
 12 11  1  0  0  0  0
 13 15  2  0  0  0  0
 14 13  1  0  0  0  0
 15  6  1  0  0  0  0
 15  4  1  0  0  0  0
 16 17  1  0  0  0  0
 16 19  1  0  0  0  0
 18 16  1  0  0  0  0
 19 20  1  0  0  0  0
 19 21  1  0  0  0  0
 22 19  1  0  0  0  0
 23 25  1  0  0  0  0
 24 23  1  0  0  0  0
 26 23  1  0  0  0  0
 26 29  1  0  0  0  0
 27 26  1  0  0  0  0
 28 26  1  0  0  0  0
M  END
$$$$
