CSD_code = WUQDER | q = 1 | S = 0 | Stoichiometry = C30H25ClN7Ru(1+) | MND = 6
 OpenBabel04212202113D

 64 72  0  0  1  0  0  0  0  0999 V2000
    0.8949    4.9497   11.0725 Ru  0  0  0  0  0  0  0  0  0  0  0  0
   -0.1930    6.1124    9.3655 Cl  0  0  0  0  0  0  0  0  0  0  0  0
    1.6732    4.1737   12.8007 N   0  0  0  0  0  0  0  0  0  0  0  0
    0.0689    6.1479   12.4342 N   0  0  1  0  0  0  0  0  0  0  0  0
   -0.7543    7.1775   12.4188 N   0  0  0  0  0  0  0  0  0  0  0  0
   -1.1319    7.5529   11.5539 H   0  0  0  0  0  0  0  0  0  0  0  0
   -2.4052    9.2780   12.7489 N   0  0  0  0  0  0  0  0  0  0  0  0
   -0.5565    3.5596   10.9866 N   0  0  0  0  0  0  0  0  0  0  0  0
    1.6703    3.8207    9.7937 N   0  0  0  0  0  0  0  0  0  0  0  0
    2.5481    6.0296   10.6878 N   0  0  0  0  0  0  0  0  0  0  0  0
    2.5043    3.1385   12.9092 C   0  0  0  0  0  3  0  0  0  0  0  0
    2.8041    2.6605   11.9840 H   0  0  0  0  0  0  0  0  0  0  0  0
    2.9763    2.6741   14.1202 C   0  0  0  0  0  0  0  0  0  0  0  0
    3.6470    1.8303   14.1427 H   0  0  0  0  0  0  0  0  0  0  0  0
    2.5828    3.2975   15.3052 C   0  0  0  0  0  0  0  0  0  0  0  0
    1.7169    4.3783   15.1915 C   0  0  0  0  0  0  0  0  0  0  0  0
    1.3769    4.9017   16.0710 H   0  0  0  0  0  0  0  0  0  0  0  0
    1.2791    4.7948   13.9405 C   0  0  0  0  0  0  0  0  0  0  0  0
    0.3779    5.9035   13.7185 C   0  0  2  0  0  3  0  0  0  0  0  0
   -0.2882    6.8295   14.5397 C   0  0  0  0  0  0  0  0  0  0  0  0
   -0.2465    6.8959   15.6061 H   0  0  0  0  0  0  0  0  0  0  0  0
   -1.0081    7.6346   13.6704 C   0  0  0  0  0  0  0  0  0  0  0  0
   -1.8942    8.7669   13.8727 C   0  0  0  0  0  0  0  0  0  0  0  0
   -2.1857    9.2758   15.1335 C   0  0  0  0  0  0  0  0  0  0  0  0
   -1.7526    8.8339   16.0171 H   0  0  0  0  0  0  0  0  0  0  0  0
   -3.0455   10.3655   15.2410 C   0  0  0  0  0  0  0  0  0  0  0  0
   -3.5701   10.8877   14.0638 C   0  0  0  0  0  0  0  0  0  0  0  0
   -4.2414   11.7314   14.0881 H   0  0  0  0  0  0  0  0  0  0  0  0
   -3.2189   10.3086   12.8522 C   0  0  0  0  0  0  0  0  0  0  0  0
   -3.6081   10.6881   11.9174 H   0  0  0  0  0  0  0  0  0  0  0  0
    3.0662    2.8369   16.6366 C   0  0  0  0  0  0  0  0  0  0  0  0
    3.6710    1.9395   16.5464 H   0  0  0  0  0  0  0  0  0  0  0  0
    2.2240    2.6314   17.2951 H   0  0  0  0  0  0  0  0  0  0  0  0
    3.6655    3.6158   17.1065 H   0  0  0  0  0  0  0  0  0  0  0  0
   -3.3784   10.9413   16.5775 C   0  0  0  0  0  0  0  0  0  0  0  0
   -4.0907   11.7562   16.4860 H   0  0  0  0  0  0  0  0  0  0  0  0
   -2.4765   11.3178   17.0585 H   0  0  0  0  0  0  0  0  0  0  0  0
   -3.8020   10.1745   17.2243 H   0  0  0  0  0  0  0  0  0  0  0  0
   -1.7228    3.5305   11.6259 C   0  0  0  0  0  3  0  0  0  0  0  0
   -1.8956    4.3204   12.3477 H   0  0  0  0  0  0  0  0  0  0  0  0
   -2.6854    2.5652   11.3984 C   0  0  0  0  0  0  0  0  0  0  0  0
   -3.6181    2.5958   11.9371 H   0  0  0  0  0  0  0  0  0  0  0  0
   -2.4294    1.5720   10.4613 C   0  0  0  0  0  0  0  0  0  0  0  0
   -3.1603    0.8067   10.2542 H   0  0  0  0  0  0  0  0  0  0  0  0
   -1.2210    1.5902    9.7919 C   0  0  0  0  0  0  0  0  0  0  0  0
   -0.9949    0.8392    9.0530 H   0  0  0  0  0  0  0  0  0  0  0  0
   -0.2972    2.5982   10.0637 C   0  0  0  0  0  0  0  0  0  0  0  0
    0.9850    2.7395    9.3767 C   0  0  1  0  0  3  0  0  0  0  0  0
    1.4962    1.9311    8.3658 C   0  0  0  0  0  0  0  0  0  0  0  0
    0.9574    1.0617    8.0282 H   0  0  0  0  0  0  0  0  0  0  0  0
    2.7087    2.2723    7.7833 C   0  0  0  0  0  0  0  0  0  0  0  0
    3.1229    1.6569    7.0011 H   0  0  0  0  0  0  0  0  0  0  0  0
    3.3713    3.4237    8.1847 C   0  0  0  0  0  0  0  0  0  0  0  0
    4.2908    3.7156    7.7058 H   0  0  0  0  0  0  0  0  0  0  0  0
    2.8180    4.1983    9.1999 C   0  0  0  0  0  0  0  0  0  0  0  0
    3.3145    5.4725    9.7153 C   0  0  1  0  0  3  0  0  0  0  0  0
    4.4597    6.1120    9.2432 C   0  0  0  0  0  0  0  0  0  0  0  0
    5.0511    5.6522    8.4687 H   0  0  0  0  0  0  0  0  0  0  0  0
    4.8187    7.3415    9.7614 C   0  0  0  0  0  0  0  0  0  0  0  0
    5.6945    7.8554    9.3987 H   0  0  0  0  0  0  0  0  0  0  0  0
    4.0224    7.9040   10.7510 C   0  0  0  0  0  0  0  0  0  0  0  0
    4.2587    8.8654   11.1765 H   0  0  0  0  0  0  0  0  0  0  0  0
    2.9049    7.2130   11.1800 C   0  0  0  0  0  0  0  0  0  0  0  0
    2.2620    7.6284   11.9474 H   0  0  0  0  0  0  0  0  0  0  0  0
  1  4  1  0  0  0  0
  1  3  1  0  0  0  0
  2  1  1  0  0  0  0
  3 11  1  0  0  0  0
  3 18  1  0  0  0  0
  4  5  1  1  0  0  0
  4 19  1  0  0  0  0
  5 22  1  0  0  0  0
  6  5  1  0  0  0  0
  7 29  2  0  0  0  0
  7 23  1  0  0  0  0
  8  1  1  0  0  0  0
  8 39  1  0  0  0  0
  9  1  1  0  0  0  0
 10  1  1  0  0  0  0
 10 63  1  0  0  0  0
 11 13  1  0  0  0  0
 12 11  1  0  0  0  0
 13 14  1  0  0  0  0
 13 15  2  0  0  0  0
 15 31  1  0  0  0  0
 16 15  1  0  0  0  0
 16 17  1  0  0  0  0
 18 16  2  0  0  0  0
 19 18  1  1  0  0  0
 19 20  1  0  0  0  0
 20 21  1  0  0  0  0
 22 23  1  0  0  0  0
 22 20  2  0  0  0  0
 23 24  2  0  0  0  0
 24 26  1  0  0  0  0
 24 25  1  0  0  0  0
 26 35  1  0  0  0  0
 27 28  1  0  0  0  0
 27 26  2  0  0  0  0
 29 27  1  0  0  0  0
 30 29  1  0  0  0  0
 31 34  1  0  0  0  0
 31 33  1  0  0  0  0
 32 31  1  0  0  0  0
 35 37  1  0  0  0  0
 35 38  1  0  0  0  0
 36 35  1  0  0  0  0
 39 40  1  0  0  0  0
 41 39  1  0  0  0  0
 41 42  1  0  0  0  0
 43 41  2  0  0  0  0
 44 43  1  0  0  0  0
 45 47  2  0  0  0  0
 45 43  1  0  0  0  0
 46 45  1  0  0  0  0
 47  8  1  0  0  0  0
 48 49  1  6  0  0  0
 48  9  1  0  0  0  0
 48 47  1  0  0  0  0
 50 49  1  0  0  0  0
 51 53  1  0  0  0  0
 51 49  2  0  0  0  0
 52 51  1  0  0  0  0
 53 55  2  0  0  0  0
 54 53  1  0  0  0  0
 55  9  1  0  0  0  0
 56 55  1  6  0  0  0
 56 10  1  0  0  0  0
 57 56  1  0  0  0  0
 57 59  2  0  0  0  0
 58 57  1  0  0  0  0
 59 61  1  0  0  0  0
 60 59  1  0  0  0  0
 61 62  1  0  0  0  0
 61 63  2  0  0  0  0
 63 64  1  0  0  0  0
M  END
$$$$
