CSD_code = WUQHAR | q = 0 | S = 0 | Stoichiometry = C14H12CdI2N2O4 | MND = 4
 OpenBabel04212202113D

 35 34  0  0  0  0  0  0  0  0999 V2000
    7.1533    2.3935    6.2399 Cd  0  0  0  0  0  0  0  0  0  0  0  0
    4.7450    2.6727    5.1347 I   0  0  0  0  0  0  0  0  0  0  0  0
    3.0959    4.2379   11.9468 O   0  0  0  0  0  1  0  0  0  0  0  0
    4.0312    5.7568   10.5281 O   0  0  0  0  0  0  0  0  0  0  0  0
    6.2956    0.4688    8.0617 N   0  0  0  0  0  0  0  0  0  0  0  0
    5.6589   -0.2632    7.7604 H   0  0  0  0  0  0  0  0  0  0  0  0
    7.1104    0.0733    8.5238 H   0  0  0  0  0  0  0  0  0  0  0  0
    3.7283    4.7189   11.0459 C   0  0  0  0  0  0  0  0  0  0  0  0
    4.4481    3.4782   10.2270 C   0  0  0  0  0  0  0  0  0  0  0  0
    3.6714    2.7136    9.3914 C   0  0  0  0  0  0  0  0  0  0  0  0
    2.6166    2.8992    9.2692 H   0  0  0  0  0  0  0  0  0  0  0  0
    4.2872    1.6859    8.6937 C   0  0  0  0  0  0  0  0  0  0  0  0
    3.7009    1.0770    8.0206 H   0  0  0  0  0  0  0  0  0  0  0  0
    5.6532    1.4487    8.8478 C   0  0  0  0  0  0  0  0  0  0  0  0
    6.3974    2.2330    9.7317 C   0  0  0  0  0  0  0  0  0  0  0  0
    7.4507    2.0382    9.8833 H   0  0  0  0  0  0  0  0  0  0  0  0
    5.7899    3.2656   10.4311 C   0  0  0  0  0  0  0  0  0  0  0  0
    6.3646    3.8780   11.1075 H   0  0  0  0  0  0  0  0  0  0  0  0
    9.5776    2.3525    7.3476 I   0  0  0  0  0  0  0  0  0  0  0  0
    7.8443    0.5372    4.2958 N   0  0  0  0  0  0  0  0  0  0  0  0
    8.4408   -0.2412    4.5616 H   0  0  0  0  0  0  0  0  0  0  0  0
    7.0013    0.2071    3.8329 H   0  0  0  0  0  0  0  0  0  0  0  0
    8.5334    1.5030    3.5314 C   0  0  0  0  0  0  0  0  0  0  0  0
    9.9131    1.6541    3.6721 C   0  0  0  0  0  0  0  0  0  0  0  0
   10.5798    2.6637    2.9945 C   0  0  0  0  0  0  0  0  0  0  0  0
    9.8392    3.4932    2.1890 C   0  0  0  0  0  0  0  0  0  0  0  0
   10.6234    4.7084    1.3889 C   0  0  0  0  0  0  0  0  0  0  0  0
   10.6252    5.6917    2.0738 O   0  0  0  0  0  1  0  0  0  0  0  0
   10.9807    4.2649    0.3316 O   0  0  0  0  0  0  0  0  0  0  0  0
    8.4853    3.3654    1.9968 C   0  0  0  0  0  0  0  0  0  0  0  0
    7.8259    2.3547    2.6808 C   0  0  0  0  0  0  0  0  0  0  0  0
    6.7606    2.2286    2.5415 H   0  0  0  0  0  0  0  0  0  0  0  0
    7.9400    4.0240    1.3398 H   0  0  0  0  0  0  0  0  0  0  0  0
   11.6446    2.7862    3.1112 H   0  0  0  0  0  0  0  0  0  0  0  0
   10.4710    0.9932    4.3199 H   0  0  0  0  0  0  0  0  0  0  0  0
  1 19  1  0  0  0  0
  2  1  1  0  0  0  0
  4  8  2  0  0  0  0
  5  7  1  0  0  0  0
  5 14  1  0  0  0  0
  6  5  1  0  0  0  0
  8  3  1  0  0  0  0
  9 17  1  0  0  0  0
  9  8  1  0  0  0  0
 10  9  2  0  0  0  0
 11 10  1  0  0  0  0
 12 14  2  0  0  0  0
 12 10  1  0  0  0  0
 13 12  1  0  0  0  0
 14 15  1  0  0  0  0
 15 16  1  0  0  0  0
 15 17  2  0  0  0  0
 17 18  1  0  0  0  0
 20 21  1  0  0  0  0
 22 20  1  0  0  0  0
 23 24  1  0  0  0  0
 23 20  1  0  0  0  0
 24 35  1  0  0  0  0
 25 34  1  0  0  0  0
 25 24  2  0  0  0  0
 26 25  1  0  0  0  0
 27 28  1  0  0  0  0
 27 26  1  0  0  0  0
 29 27  2  0  0  0  0
 30 26  2  0  0  0  0
 30 31  1  0  0  0  0
 31 23  2  0  0  0  0
 32 31  1  0  0  0  0
 33 30  1  0  0  0  0
M  END
$$$$
