CSD_code = WUQLEB | q = 0 | S = 0 | Stoichiometry = C16H22BrN2NiOP | MND = 4
 OpenBabel04212202113D

 44 47  0  0  0  0  0  0  0  0999 V2000
   -2.1867    6.1004   14.9320 Br  0  0  0  0  0  0  0  0  0  0  0  0
    0.0119    7.7692   13.0496 C   0  0  0  0  0  0  0  0  0  0  0  0
    2.2048    7.7517   12.6650 C   0  0  0  0  0  0  0  0  0  0  0  0
    3.2199    7.4324   12.7839 H   0  0  0  0  0  0  0  0  0  0  0  0
    1.6704    8.7020   11.8580 C   0  0  0  0  0  0  0  0  0  0  0  0
    2.1352    9.3569   11.1505 H   0  0  0  0  0  0  0  0  0  0  0  0
   -0.7283    9.4567   11.5822 C   0  0  0  0  0  0  0  0  0  0  0  0
   -1.9428    9.1009   12.1634 C   0  0  0  0  0  0  0  0  0  0  0  0
   -3.0974    9.7528   11.7498 C   0  0  0  0  0  0  0  0  0  0  0  0
   -3.0463   10.7429   10.7806 C   0  0  0  0  0  0  0  0  0  0  0  0
   -3.9518   11.2409   10.4704 H   0  0  0  0  0  0  0  0  0  0  0  0
   -1.8209   11.0769   10.2230 C   0  0  0  0  0  0  0  0  0  0  0  0
   -1.7788   11.8473    9.4682 H   0  0  0  0  0  0  0  0  0  0  0  0
   -0.6507   10.4425   10.6124 C   0  0  0  0  0  0  0  0  0  0  0  0
    0.2938   10.7141   10.1657 H   0  0  0  0  0  0  0  0  0  0  0  0
    1.3840    6.1456   14.3454 C   0  0  0  0  0  0  0  0  0  0  0  0
    2.0702    6.4825   15.1234 H   0  0  0  0  0  0  0  0  0  0  0  0
    1.8074    5.2676   13.8558 H   0  0  0  0  0  0  0  0  0  0  0  0
    0.4323    5.8757   14.7992 H   0  0  0  0  0  0  0  0  0  0  0  0
   -4.9265    8.8458   14.8857 C   0  0  0  0  0  0  0  0  0  0  0  0
   -5.7944    9.3723   14.4682 H   0  0  0  0  0  0  0  0  0  0  0  0
   -3.9824    9.8532   15.5384 C   0  0  0  0  0  0  0  0  0  0  0  0
   -4.4631   10.3518   16.3782 H   0  0  0  0  0  0  0  0  0  0  0  0
   -3.6708   10.6118   14.8193 H   0  0  0  0  0  0  0  0  0  0  0  0
   -3.0921    9.3412   15.9085 H   0  0  0  0  0  0  0  0  0  0  0  0
   -5.3698    7.7801   15.8774 C   0  0  0  0  0  0  0  0  0  0  0  0
   -4.5186    7.1990   16.2261 H   0  0  0  0  0  0  0  0  0  0  0  0
   -6.0925    7.0982   15.4353 H   0  0  0  0  0  0  0  0  0  0  0  0
   -5.8345    8.2542   16.7408 H   0  0  0  0  0  0  0  0  0  0  0  0
   -6.4669    7.2765   12.3699 C   0  0  0  0  0  0  0  0  0  0  0  0
   -6.4051    8.1176   11.6818 H   0  0  0  0  0  0  0  0  0  0  0  0
   -7.0252    7.5895   13.2491 H   0  0  0  0  0  0  0  0  0  0  0  0
   -7.0197    6.4748   11.8825 H   0  0  0  0  0  0  0  0  0  0  0  0
   -5.0721    6.7921   12.7385 C   0  0  0  0  0  0  0  0  0  0  0  0
   -5.1245    6.0150   13.5086 H   0  0  0  0  0  0  0  0  0  0  0  0
   -4.3222    6.2390   11.5285 C   0  0  0  0  0  0  0  0  0  0  0  0
   -4.8182    5.3560   11.1301 H   0  0  0  0  0  0  0  0  0  0  0  0
   -3.3022    5.9586   11.8125 H   0  0  0  0  0  0  0  0  0  0  0  0
   -4.2640    6.9894   10.7394 H   0  0  0  0  0  0  0  0  0  0  0  0
    1.1801    7.1948   13.3829 N   0  0  0  0  0  0  0  0  0  0  0  0
    0.3319    8.6996   12.1052 N   0  0  0  0  0  0  0  0  0  0  0  0
   -1.9308    7.7378   13.4427 Ni  0  0  1  0  0  0  0  0  0  0  0  0
   -4.2811    9.3683   12.3532 O   0  0  0  0  0  0  0  0  0  0  0  0
   -4.0186    8.1520   13.4290 P   0  0  0  0  0  4  0  0  0  0  0  0
  2 40  1  0  0  0  0
  2 42  2  0  0  0  0
  3  4  1  0  0  0  0
  3 40  1  0  0  0  0
  5 41  1  0  0  0  0
  5  3  2  0  0  0  0
  6  5  1  0  0  0  0
  7 41  1  0  0  0  0
  7  8  1  0  0  0  0
  8 42  1  0  0  0  0
  9  8  2  0  0  0  0
  9 43  1  0  0  0  0
 10  9  1  0  0  0  0
 11 10  1  0  0  0  0
 12 14  1  0  0  0  0
 12 10  2  0  0  0  0
 13 12  1  0  0  0  0
 14  7  2  0  0  0  0
 15 14  1  0  0  0  0
 16 19  1  0  0  0  0
 16 17  1  0  0  0  0
 18 16  1  0  0  0  0
 20 22  1  0  0  0  0
 20 26  1  0  0  0  0
 21 20  1  0  0  0  0
 22 25  1  0  0  0  0
 22 23  1  0  0  0  0
 24 22  1  0  0  0  0
 26 27  1  0  0  0  0
 26 29  1  0  0  0  0
 28 26  1  0  0  0  0
 30 34  1  0  0  0  0
 30 32  1  0  0  0  0
 31 30  1  0  0  0  0
 33 30  1  0  0  0  0
 34 44  1  0  0  0  0
 34 35  1  0  0  0  0
 36 38  1  0  0  0  0
 36 34  1  0  0  0  0
 37 36  1  0  0  0  0
 39 36  1  0  0  0  0
 40 16  1  0  0  0  0
 41  2  1  0  0  0  0
 42  1  1  6  0  0  0
 43 44  1  0  0  0  0
 44 42  1  0  0  0  0
 44 20  1  0  0  0  0
M  END
$$$$
