CSD_code = WUQQAA | q = 0 | S = 0 | Stoichiometry = C18H26BClZr | MND = 13
 OpenBabel04212202113D

 47 47  0  0  1  0  0  0  0  0999 V2000
    3.3882    4.0485    8.8216 Zr  0  0  0  0  0  0  0  0  0  0  0  0
    4.5861    4.9185   10.6875 Cl  0  0  0  0  0  0  0  0  0  0  0  0
    5.0695    5.5681    7.7182 C   0  0  0  0  0  0  0  0  0  0  0  0
    6.0614    5.7294    8.1247 H   0  0  0  0  0  0  0  0  0  0  0  0
    3.9261    6.3516    8.0036 C   0  0  0  0  0  3  0  0  0  0  0  0
    3.9050    7.2142    8.6597 H   0  0  0  0  0  0  0  0  0  0  0  0
    2.8809    5.9147    7.1637 C   0  0  0  0  0  0  0  0  0  0  0  0
    1.9183    6.3954    7.0460 H   0  0  0  0  0  0  0  0  0  0  0  0
    3.3685    4.8507    6.3739 C   0  0  0  0  0  0  0  0  0  0  0  0
    2.8369    4.3785    5.5562 H   0  0  0  0  0  0  0  0  0  0  0  0
    4.7273    4.6547    6.7018 C   0  0  0  0  0  0  0  0  0  0  0  0
    5.4230    4.0197    6.1671 H   0  0  0  0  0  0  0  0  0  0  0  0
    4.9843    2.2164    8.5230 C   0  0  0  0  0  0  0  0  0  0  0  0
    6.0240    2.3960    8.2645 H   0  0  0  0  0  0  0  0  0  0  0  0
    3.9270    1.9345    7.6151 C   0  0  0  0  0  0  0  0  0  0  0  0
    4.0152    1.8542    6.5379 H   0  0  0  0  0  0  0  0  0  0  0  0
    2.7997    1.5542    8.3689 C   0  0  0  0  0  0  0  0  0  0  0  0
    1.8630    1.1899    7.9668 H   0  0  0  0  0  0  0  0  0  0  0  0
    3.1565    1.5755    9.7330 C   0  0  0  0  0  0  0  0  0  0  0  0
    2.5312    1.2522   10.5546 H   0  0  0  0  0  0  0  0  0  0  0  0
    4.4994    1.9749    9.8299 C   0  0  0  0  0  3  0  0  0  0  0  0
    5.0898    2.0038   10.7371 H   0  0  0  0  0  0  0  0  0  0  0  0
    1.1319    4.2351    9.5916 B   0  0  0  0  0  0  0  0  0  0  0  0
    1.4065    3.9907    8.3542 H   0  0  0  0  0  0  0  0  0  0  0  0
    2.1361    3.9155   10.2962 H   0  0  0  0  0  0  0  0  0  0  0  0
    0.7729    5.7964    9.8716 C   0  0  1  0  0  0  0  0  0  0  0  0
    1.5887    6.4844    9.5762 H   0  0  0  0  0  0  0  0  0  0  0  0
   -0.4694    6.2075    9.0620 C   0  0  0  0  0  0  0  0  0  0  0  0
   -0.7529    7.2385    9.2969 H   0  0  0  0  0  0  0  0  0  0  0  0
   -0.1960    6.1791    8.0014 H   0  0  0  0  0  0  0  0  0  0  0  0
   -1.6954    5.3109    9.2594 C   0  0  0  0  0  0  0  0  0  0  0  0
   -2.2008    5.5800   10.1840 H   0  0  0  0  0  0  0  0  0  0  0  0
   -2.4053    5.5185    8.4521 H   0  0  0  0  0  0  0  0  0  0  0  0
   -1.3920    3.8102    9.2579 C   0  0  0  0  0  0  0  0  0  0  0  0
   -1.2122    3.4926    8.2259 H   0  0  0  0  0  0  0  0  0  0  0  0
   -2.2809    3.2788    9.6116 H   0  0  0  0  0  0  0  0  0  0  0  0
   -0.1636    3.3936   10.0835 C   0  0  2  0  0  0  0  0  0  0  0  0
   -0.0447    2.3103    9.9287 H   0  0  0  0  0  0  0  0  0  0  0  0
   -0.3395    3.5941   11.5985 C   0  0  0  0  0  0  0  0  0  0  0  0
   -1.2420    3.0808   11.9447 H   0  0  0  0  0  0  0  0  0  0  0  0
    0.5153    3.1168   12.0881 H   0  0  0  0  0  0  0  0  0  0  0  0
   -0.4055    5.0539   12.0588 C   0  0  0  0  0  0  0  0  0  0  0  0
   -1.4105    5.4415   11.9030 H   0  0  0  0  0  0  0  0  0  0  0  0
   -0.2345    5.0793   13.1393 H   0  0  0  0  0  0  0  0  0  0  0  0
    0.6125    5.9845   11.3921 C   0  0  0  0  0  0  0  0  0  0  0  0
    1.5971    5.8069   11.8397 H   0  0  0  0  0  0  0  0  0  0  0  0
    0.3328    7.0185   11.6180 H   0  0  0  0  0  0  0  0  0  0  0  0
  1  2  1  0  0  0  0
  3  5  1  0  0  0  0
  3  4  1  0  0  0  0
  5  6  1  0  0  0  0
  7  5  1  0  0  0  0
  8  7  1  0  0  0  0
  9 11  1  0  0  0  0
  9  7  2  0  0  0  0
 10  9  1  0  0  0  0
 11  3  2  0  0  0  0
 12 11  1  0  0  0  0
 13 21  1  0  0  0  0
 14 13  1  0  0  0  0
 15 17  1  0  0  0  0
 15 13  2  0  0  0  0
 16 15  1  0  0  0  0
 17 19  2  0  0  0  0
 18 17  1  0  0  0  0
 19 21  1  0  0  0  0
 19 20  1  0  0  0  0
 21 22  1  0  0  0  0
 23 26  1  0  0  0  0
 23 37  1  0  0  0  0
 23 25  1  0  0  0  0
 24 23  1  0  0  0  0
 26 27  1  6  0  0  0
 26 45  1  0  0  0  0
 28 31  1  0  0  0  0
 28 29  1  0  0  0  0
 28 26  1  0  0  0  0
 30 28  1  0  0  0  0
 31 32  1  0  0  0  0
 33 31  1  0  0  0  0
 34 31  1  0  0  0  0
 34 36  1  0  0  0  0
 34 37  1  0  0  0  0
 35 34  1  0  0  0  0
 37 38  1  6  0  0  0
 37 39  1  0  0  0  0
 39 40  1  0  0  0  0
 39 42  1  0  0  0  0
 39 41  1  0  0  0  0
 42 44  1  0  0  0  0
 43 42  1  0  0  0  0
 45 47  1  0  0  0  0
 45 46  1  0  0  0  0
 45 42  1  0  0  0  0
M  END
$$$$
