CSD_code = WURFEW | q = 0 | S = 0 | Stoichiometry = C19H28Cl2N4O2Ru | MND = 6
 OpenBabel04212202113D

 56 58  0  0  1  0  0  0  0  0999 V2000
    9.5758   14.8410    1.9466 C   0  0  2  0  0  3  0  0  0  0  0  0
    6.7908   13.6633    2.8921 Cl  0  0  0  0  0  0  0  0  0  0  0  0
    9.6021   15.8778    2.8151 N   0  0  0  0  0  0  0  0  0  0  0  0
   10.2894   13.0397    5.1430 O   0  0  0  0  0  1  0  0  0  0  0  0
    9.0250   12.8538    2.4435 Ru  0  0  0  0  0  0  0  0  0  0  0  0
    8.3156   12.3020    0.5168 C   0  0  2  0  0  3  0  0  0  0  0  0
   11.2262   12.1753    1.6849 Cl  0  0  0  0  0  0  0  0  0  0  0  0
   10.1959   15.3039    0.8384 N   0  0  0  0  0  0  0  0  0  0  0  0
    8.2645   10.3506    3.8754 O   0  0  0  0  0  1  0  0  0  0  0  0
    8.5508   11.2255    3.1953 C   0  0  0  0  0  2  0  0  0  0  0  0
    7.6921   13.0559   -0.4165 N   0  0  0  0  0  0  0  0  0  0  0  0
    9.7609   13.0919    4.1291 C   0  0  0  0  0  2  0  0  0  0  0  0
    8.3371   11.0563   -0.0079 N   0  0  0  0  0  0  0  0  0  0  0  0
    7.4447    6.6678    2.1694 C   0  0  0  0  0  0  0  0  0  0  0  0
    6.7699    7.1407    2.8789 H   0  0  0  0  0  0  0  0  0  0  0  0
    7.9142    5.8173    2.6570 H   0  0  0  0  0  0  0  0  0  0  0  0
    6.8583    6.3018    1.3290 H   0  0  0  0  0  0  0  0  0  0  0  0
    8.4990    7.6613    1.6987 C   0  0  0  0  0  0  0  0  0  0  0  0
    9.1865    7.1683    1.0073 H   0  0  0  0  0  0  0  0  0  0  0  0
    9.0802    8.0058    2.5556 H   0  0  0  0  0  0  0  0  0  0  0  0
    7.8645    8.8656    1.0085 C   0  0  0  0  0  0  0  0  0  0  0  0
    7.2745    8.5271    0.1527 H   0  0  0  0  0  0  0  0  0  0  0  0
    7.1832    9.3655    1.7000 H   0  0  0  0  0  0  0  0  0  0  0  0
    8.9293    9.8587    0.5394 C   0  0  0  0  0  0  0  0  0  0  0  0
    9.5928   10.1381    1.3612 H   0  0  0  0  0  0  0  0  0  0  0  0
    9.5457    9.4006   -0.2410 H   0  0  0  0  0  0  0  0  0  0  0  0
    7.7258   11.0355   -1.2318 C   0  0  0  0  0  0  0  0  0  0  0  0
    7.6357   10.1404   -1.8115 H   0  0  0  0  0  0  0  0  0  0  0  0
    7.3237   12.2974   -1.4936 C   0  0  0  0  0  0  0  0  0  0  0  0
    6.8100   12.7100   -2.3374 H   0  0  0  0  0  0  0  0  0  0  0  0
    7.6377   14.4919   -0.4421 C   0  0  0  0  0  0  0  0  0  0  0  0
    7.5878   14.8591    0.5874 H   0  0  0  0  0  0  0  0  0  0  0  0
    6.7296   14.8026   -0.9644 H   0  0  0  0  0  0  0  0  0  0  0  0
    8.8748   15.0320   -1.1740 C   0  0  0  0  0  0  0  0  0  0  0  0
    8.7927   16.1181   -1.2493 H   0  0  0  0  0  0  0  0  0  0  0  0
    8.9077   14.6193   -2.1841 H   0  0  0  0  0  0  0  0  0  0  0  0
   10.1788   14.6668   -0.4498 C   0  0  0  0  0  0  0  0  0  0  0  0
   10.2723   13.5854   -0.3110 H   0  0  0  0  0  0  0  0  0  0  0  0
   11.0378   15.0154   -1.0274 H   0  0  0  0  0  0  0  0  0  0  0  0
   10.6169   16.5930    1.0154 C   0  0  0  0  0  0  0  0  0  0  0  0
   11.1450   17.1331    0.2569 H   0  0  0  0  0  0  0  0  0  0  0  0
   10.2466   16.9520    2.2636 C   0  0  0  0  0  0  0  0  0  0  0  0
   10.3963   17.8664    2.7995 H   0  0  0  0  0  0  0  0  0  0  0  0
    8.9205   16.0005    4.0819 C   0  0  0  0  0  0  0  0  0  0  0  0
    9.6133   16.4249    4.8153 H   0  0  0  0  0  0  0  0  0  0  0  0
    8.6005   15.0129    4.4182 H   0  0  0  0  0  0  0  0  0  0  0  0
    7.6759   16.8807    3.9439 C   0  0  0  0  0  0  0  0  0  0  0  0
    7.9509   17.8572    3.5365 H   0  0  0  0  0  0  0  0  0  0  0  0
    6.9891   16.3919    3.2505 H   0  0  0  0  0  0  0  0  0  0  0  0
    6.9795   17.0615    5.2890 C   0  0  0  0  0  0  0  0  0  0  0  0
    7.6717   17.5137    6.0039 H   0  0  0  0  0  0  0  0  0  0  0  0
    6.6933   16.0806    5.6708 H   0  0  0  0  0  0  0  0  0  0  0  0
    5.7381   17.9342    5.1578 C   0  0  0  0  0  0  0  0  0  0  0  0
    5.9991   18.9206    4.7792 H   0  0  0  0  0  0  0  0  0  0  0  0
    5.2530   18.0549    6.1232 H   0  0  0  0  0  0  0  0  0  0  0  0
    5.0297   17.4776    4.4713 H   0  0  0  0  0  0  0  0  0  0  0  0
  1  8  1  1  0  0  0
  1  5  1  0  0  0  0
  1  3  1  0  0  0  0
  3 44  1  0  0  0  0
  5  2  1  0  0  0  0
  5 10  1  0  0  0  0
  5 12  1  0  0  0  0
  6 11  1  1  0  0  0
  6  5  1  0  0  0  0
  7  5  1  0  0  0  0
  8 40  1  0  0  0  0
 10  9  1  0  0  0  0
 12  4  1  0  0  0  0
 13  6  1  0  0  0  0
 13 24  1  0  0  0  0
 14 16  1  0  0  0  0
 14 15  1  0  0  0  0
 17 14  1  0  0  0  0
 18 14  1  0  0  0  0
 18 20  1  0  0  0  0
 19 18  1  0  0  0  0
 21 18  1  0  0  0  0
 21 23  1  0  0  0  0
 22 21  1  0  0  0  0
 24 21  1  0  0  0  0
 24 25  1  0  0  0  0
 26 24  1  0  0  0  0
 27 13  1  0  0  0  0
 28 27  1  0  0  0  0
 29 27  2  0  0  0  0
 29 11  1  0  0  0  0
 30 29  1  0  0  0  0
 31 11  1  0  0  0  0
 31 32  1  0  0  0  0
 33 31  1  0  0  0  0
 34 37  1  0  0  0  0
 34 31  1  0  0  0  0
 35 34  1  0  0  0  0
 36 34  1  0  0  0  0
 37 38  1  0  0  0  0
 37  8  1  0  0  0  0
 39 37  1  0  0  0  0
 40 42  2  0  0  0  0
 41 40  1  0  0  0  0
 42 43  1  0  0  0  0
 42  3  1  0  0  0  0
 44 46  1  0  0  0  0
 44 45  1  0  0  0  0
 47 44  1  0  0  0  0
 47 50  1  0  0  0  0
 48 47  1  0  0  0  0
 49 47  1  0  0  0  0
 50 52  1  0  0  0  0
 50 51  1  0  0  0  0
 53 50  1  0  0  0  0
 53 55  1  0  0  0  0
 54 53  1  0  0  0  0
 56 53  1  0  0  0  0
M  END
$$$$
