CSD_code = WURROS | q = 0 | S = 0 | Stoichiometry = C23H21ClN2Pt | MND = 4
 OpenBabel04212202113D

 48 54  0  0  1  0  0  0  0  0999 V2000
    2.7347    6.0424    5.9214 Pt  0  0  1  0  0  0  0  0  0  0  0  0
    1.1207    5.5402    7.5096 Cl  0  0  0  0  0  0  0  0  0  0  0  0
    4.2680    4.9680    6.6646 N   0  0  0  0  0  0  0  0  0  0  0  0
    1.6521    7.2537    4.7281 N   0  0  0  0  0  0  0  0  0  0  0  0
    4.0716    6.4612    4.6086 C   0  0  0  0  0  0  0  0  0  0  0  0
    5.3405    5.8996    4.7514 C   0  0  0  0  0  0  0  0  0  0  0  0
    6.3062    6.2103    3.7961 C   0  0  0  0  0  0  0  0  0  0  0  0
    7.3070    5.8070    3.8532 H   0  0  0  0  0  0  0  0  0  0  0  0
    5.9706    7.0586    2.7488 C   0  0  0  0  0  0  0  0  0  0  0  0
    6.7232    7.2964    2.0109 H   0  0  0  0  0  0  0  0  0  0  0  0
    4.7029    7.6134    2.6127 C   0  0  0  0  0  0  0  0  0  0  0  0
    4.4971    8.2668    1.7770 H   0  0  0  0  0  0  0  0  0  0  0  0
    3.7270    7.3131    3.5588 C   0  0  0  0  0  0  0  0  0  0  0  0
    5.4218    5.0470    5.9340 C   0  0  0  0  0  0  0  0  0  0  0  0
    6.5539    4.3434    6.3340 C   0  0  0  0  0  0  0  0  0  0  0  0
    7.4546    4.4160    5.7452 H   0  0  0  0  0  0  0  0  0  0  0  0
    6.5171    3.5608    7.4733 C   0  0  0  0  0  0  0  0  0  0  0  0
    7.3911    3.0110    7.7884 H   0  0  0  0  0  0  0  0  0  0  0  0
    5.3376    3.4952    8.2017 C   0  0  0  0  0  0  0  0  0  0  0  0
    5.2655    2.8981    9.0962 H   0  0  0  0  0  0  0  0  0  0  0  0
    4.2416    4.2145    7.7595 C   0  0  0  0  0  3  0  0  0  0  0  0
    3.3014    4.1912    8.2976 H   0  0  0  0  0  0  0  0  0  0  0  0
    2.3347    7.7481    3.6536 C   0  0  0  0  0  0  0  0  0  0  0  0
    1.7034    8.5954    2.7482 C   0  0  0  0  0  0  0  0  0  0  0  0
    2.2609    8.9812    1.9083 H   0  0  0  0  0  0  0  0  0  0  0  0
    0.3751    8.9408    2.9223 C   0  0  0  0  0  0  0  0  0  0  0  0
   -0.3080    8.4150    4.0280 C   0  0  0  0  0  0  0  0  0  0  0  0
    0.3737    7.5853    4.8975 C   0  0  0  0  0  0  0  0  0  0  0  0
   -0.1186    7.1644    5.7663 H   0  0  0  0  0  0  0  0  0  0  0  0
   -0.3623    9.8591    1.9888 C   0  0  0  0  0  0  0  0  0  0  0  0
    0.1396   10.8296    1.9509 H   0  0  0  0  0  0  0  0  0  0  0  0
   -0.3373    9.4443    0.9766 H   0  0  0  0  0  0  0  0  0  0  0  0
   -1.8096   10.0136    2.4489 C   0  0  1  0  0  0  0  0  0  0  0  0
   -2.3789   10.6561    1.7764 H   0  0  0  0  0  0  0  0  0  0  0  0
   -2.3650    8.6153    2.7637 C   0  0  0  0  0  0  0  0  0  0  0  0
   -1.9760    7.7916    2.1671 H   0  0  0  0  0  0  0  0  0  0  0  0
   -3.4494    8.5688    2.7744 H   0  0  0  0  0  0  0  0  0  0  0  0
   -1.7453    8.7877    4.1656 C   0  0  2  0  0  0  0  0  0  0  0  0
   -2.2283    8.3269    5.0248 H   0  0  0  0  0  0  0  0  0  0  0  0
   -1.8865   10.3236    3.9657 C   0  0  0  0  0  0  0  0  0  0  0  0
   -0.8318   11.2293    4.5873 C   0  0  0  0  0  0  0  0  0  0  0  0
   -0.9806   11.2761    5.6642 H   0  0  0  0  0  0  0  0  0  0  0  0
   -0.9281   12.2364    4.1853 H   0  0  0  0  0  0  0  0  0  0  0  0
    0.1813   10.8827    4.4077 H   0  0  0  0  0  0  0  0  0  0  0  0
   -3.2617   10.8360    4.3810 C   0  0  0  0  0  0  0  0  0  0  0  0
   -3.3876   11.8659    4.0519 H   0  0  0  0  0  0  0  0  0  0  0  0
   -3.3566   10.8102    5.4647 H   0  0  0  0  0  0  0  0  0  0  0  0
   -4.0662   10.2438    3.9560 H   0  0  0  0  0  0  0  0  0  0  0  0
  1  3  1  0  0  0  0
  1  2  1  1  0  0  0
  3 21  1  0  0  0  0
  4 28  1  0  0  0  0
  4  1  1  0  0  0  0
  5  6  1  0  0  0  0
  5  1  2  0  0  0  0
  6 14  1  0  0  0  0
  7  8  1  0  0  0  0
  7  6  2  0  0  0  0
  9  7  1  0  0  0  0
 10  9  1  0  0  0  0
 11  9  2  0  0  0  0
 11 13  1  0  0  0  0
 12 11  1  0  0  0  0
 13 23  2  0  0  0  0
 13  5  1  0  0  0  0
 14 15  2  0  0  0  0
 14  3  1  0  0  0  0
 15 17  1  0  0  0  0
 16 15  1  0  0  0  0
 17 18  1  0  0  0  0
 17 19  2  0  0  0  0
 19 20  1  0  0  0  0
 21 19  1  0  0  0  0
 21 22  1  0  0  0  0
 23  4  1  0  0  0  0
 24 26  2  0  0  0  0
 24 23  1  0  0  0  0
 25 24  1  0  0  0  0
 26 27  1  0  0  0  0
 27 38  1  0  0  0  0
 27 28  2  0  0  0  0
 28 29  1  0  0  0  0
 30 33  1  0  0  0  0
 30 26  1  0  0  0  0
 31 30  1  0  0  0  0
 32 30  1  0  0  0  0
 33 34  1  6  0  0  0
 33 35  1  0  0  0  0
 33 40  1  0  0  0  0
 35 37  1  0  0  0  0
 35 38  1  0  0  0  0
 36 35  1  0  0  0  0
 38 39  1  1  0  0  0
 40 38  1  0  0  0  0
 40 45  1  0  0  0  0
 40 41  1  0  0  0  0
 41 42  1  0  0  0  0
 43 41  1  0  0  0  0
 44 41  1  0  0  0  0
 45 47  1  0  0  0  0
 46 45  1  0  0  0  0
 48 45  1  0  0  0  0
M  END
$$$$
