CSD_code = WUSDOE | q = 0 | S = 0 | Stoichiometry = C22H19ClN2PdS2 | MND = 4
 OpenBabel04212202113D

 47 51  0  0  1  0  0  0  0  0999 V2000
   -0.1646    2.1626   19.3308 Pd  0  0  2  0  0  0  0  0  0  0  0  0
   -0.3544    0.3558   20.6566 Cl  0  0  0  0  0  0  0  0  0  0  0  0
    1.3994    1.2237   17.9320 S   0  0  0  0  0  0  0  0  0  0  0  0
   -1.6987    3.4302   20.4846 S   0  0  0  0  0  0  0  0  0  0  0  0
    2.4989    2.3877   15.8486 N   0  0  0  0  0  0  0  0  0  0  0  0
   -2.3905    5.9026   19.9146 N   0  0  0  0  0  0  0  0  0  0  0  0
   -0.0107    3.7350   18.1589 C   0  0  0  0  0  0  0  0  0  0  0  0
    0.8615    3.7256   17.0441 C   0  0  0  0  0  0  0  0  0  0  0  0
    0.9592    4.8474   16.2173 C   0  0  0  0  0  0  0  0  0  0  0  0
    0.2040    5.9758   16.4811 C   0  0  0  0  0  0  0  0  0  0  0  0
   -0.6563    6.0103   17.5636 C   0  0  0  0  0  0  0  0  0  0  0  0
   -0.7730    4.9018   18.4059 C   0  0  0  0  0  0  0  0  0  0  0  0
    1.6177    2.5015   16.8468 C   0  0  2  0  0  3  0  0  0  0  0  0
    3.2263    1.1771   15.5246 C   0  0  0  0  0  0  0  0  0  0  0  0
    2.4688    0.3599   14.5062 C   0  0  0  0  0  0  0  0  0  0  0  0
    2.5746    0.6598   13.1538 C   0  0  0  0  0  0  0  0  0  0  0  0
    1.8469   -0.0543   12.2186 C   0  0  0  0  0  0  0  0  0  0  0  0
    1.0024   -1.0718   12.6293 C   0  0  0  0  0  0  0  0  0  0  0  0
    0.8905   -1.3733   13.9760 C   0  0  0  0  0  0  0  0  0  0  0  0
    1.6189   -0.6604   14.9122 C   0  0  0  0  0  0  0  0  0  0  0  0
   -1.6505    4.8478   19.5622 C   0  0  0  0  0  0  0  0  0  0  0  0
   -3.3679    5.9202   20.9829 C   0  0  0  0  0  0  0  0  0  0  0  0
   -4.7617    5.7731   20.4240 C   0  0  0  0  0  0  0  0  0  0  0  0
   -5.5947    6.8755   20.2921 C   0  0  0  0  0  0  0  0  0  0  0  0
   -6.8580    6.7368   19.7430 C   0  0  0  0  0  0  0  0  0  0  0  0
   -7.2934    5.4956   19.3122 C   0  0  0  0  0  0  0  0  0  0  0  0
   -6.4643    4.3928   19.4357 C   0  0  0  0  0  0  0  0  0  0  0  0
   -5.2041    4.5292   19.9891 C   0  0  0  0  0  0  0  0  0  0  0  0
    2.5187    3.1156   15.1491 H   0  0  0  0  0  0  0  0  0  0  0  0
   -2.4095    6.6981   19.2926 H   0  0  0  0  0  0  0  0  0  0  0  0
    1.6216    4.8590   15.3623 H   0  0  0  0  0  0  0  0  0  0  0  0
    0.2869    6.8379   15.8362 H   0  0  0  0  0  0  0  0  0  0  0  0
   -1.2296    6.9110   17.7371 H   0  0  0  0  0  0  0  0  0  0  0  0
    4.2036    1.4695   15.1310 H   0  0  0  0  0  0  0  0  0  0  0  0
    3.3598    0.6100   16.4473 H   0  0  0  0  0  0  0  0  0  0  0  0
    3.2375    1.4503   12.8290 H   0  0  0  0  0  0  0  0  0  0  0  0
    1.9397    0.1830   11.1690 H   0  0  0  0  0  0  0  0  0  0  0  0
    0.4340   -1.6291   11.8998 H   0  0  0  0  0  0  0  0  0  0  0  0
    0.2337   -2.1661   14.3004 H   0  0  0  0  0  0  0  0  0  0  0  0
    1.5291   -0.8948   15.9617 H   0  0  0  0  0  0  0  0  0  0  0  0
   -3.2699    6.8676   21.5204 H   0  0  0  0  0  0  0  0  0  0  0  0
   -3.1359    5.0945   21.6582 H   0  0  0  0  0  0  0  0  0  0  0  0
   -5.2587    7.8464   20.6292 H   0  0  0  0  0  0  0  0  0  0  0  0
   -7.5015    7.5992   19.6509 H   0  0  0  0  0  0  0  0  0  0  0  0
   -8.2782    5.3875   18.8830 H   0  0  0  0  0  0  0  0  0  0  0  0
   -6.8011    3.4226   19.1031 H   0  0  0  0  0  0  0  0  0  0  0  0
   -4.5590    3.6696   20.0905 H   0  0  0  0  0  0  0  0  0  0  0  0
  1  4  1  0  0  0  0
  1  2  1  6  0  0  0
  3  1  1  0  0  0  0
  6 22  1  0  0  0  0
  7 12  1  0  0  0  0
  7  1  2  0  0  0  0
  8  7  1  0  0  0  0
  9 10  1  0  0  0  0
  9  8  2  0  0  0  0
 10 11  2  0  0  0  0
 11 33  1  0  0  0  0
 11 12  1  0  0  0  0
 12 21  2  0  0  0  0
 13  5  1  1  0  0  0
 13  8  1  0  0  0  0
 13  3  1  0  0  0  0
 14  5  1  0  0  0  0
 14 35  1  0  0  0  0
 15 20  1  0  0  0  0
 15 14  1  0  0  0  0
 16 15  2  0  0  0  0
 17 18  2  0  0  0  0
 17 16  1  0  0  0  0
 18 19  1  0  0  0  0
 19 39  1  0  0  0  0
 19 20  2  0  0  0  0
 20 40  1  0  0  0  0
 21  6  1  0  0  0  0
 21  4  1  0  0  0  0
 22 41  1  0  0  0  0
 22 42  1  0  0  0  0
 23 22  1  0  0  0  0
 24 23  1  0  0  0  0
 24 43  1  0  0  0  0
 25 24  2  0  0  0  0
 26 27  2  0  0  0  0
 26 25  1  0  0  0  0
 27 28  1  0  0  0  0
 28 47  1  0  0  0  0
 28 23  2  0  0  0  0
 29  5  1  0  0  0  0
 30  6  1  0  0  0  0
 31  9  1  0  0  0  0
 32 10  1  0  0  0  0
 34 14  1  0  0  0  0
 36 16  1  0  0  0  0
 37 17  1  0  0  0  0
 38 18  1  0  0  0  0
 44 25  1  0  0  0  0
 45 26  1  0  0  0  0
 46 27  1  0  0  0  0
M  END
$$$$
