CSD_code = WUSHAU | q = 0 | S = 0 | Stoichiometry = C24H28BrF5N2P2Pt | MND = 4
 OpenBabel04212202113D

 63 66  0  0  0  0  0  0  0  0999 V2000
    3.3753    1.9486    1.2175 Pt  0  0  1  0  0  0  0  0  0  0  0  0
    2.0369    3.5824    0.0336 Br  0  0  0  0  0  0  0  0  0  0  0  0
    4.8099    0.5499    2.3391 P   0  0  1  0  0  4  0  0  0  0  0  0
    3.5660    3.4081    3.0014 P   0  0  1  0  0  4  0  0  0  0  0  0
    5.2177    1.3682    3.9175 C   0  0  0  0  0  0  0  0  0  0  0  0
    5.9629    0.7357    4.7866 N   0  0  0  0  0  0  0  0  0  0  0  0
    6.4011    1.4304    5.8589 C   0  0  0  0  0  0  0  0  0  0  0  0
    7.1982    0.7969    6.8309 C   0  0  0  0  0  0  0  0  0  0  0  0
    7.4017   -0.2569    6.7210 H   0  0  0  0  0  0  0  0  0  0  0  0
    7.6996    1.5265    7.8736 C   0  0  0  0  0  0  0  0  0  0  0  0
    8.3147    1.0478    8.6205 H   0  0  0  0  0  0  0  0  0  0  0  0
    7.4305    2.9017    7.9877 C   0  0  0  0  0  0  0  0  0  0  0  0
    7.8456    3.4504    8.8196 H   0  0  0  0  0  0  0  0  0  0  0  0
    6.6508    3.5440    7.0657 C   0  0  0  0  0  0  0  0  0  0  0  0
    6.4255    4.5962    7.1404 H   0  0  0  0  0  0  0  0  0  0  0  0
    6.1063    2.8193    5.9882 C   0  0  0  0  0  0  0  0  0  0  0  0
    5.2788    3.4277    5.1139 N   0  0  0  0  0  0  0  0  0  0  0  0
    4.8100    2.7114    4.1252 C   0  0  0  0  0  0  0  0  0  0  0  0
    2.9495    0.5927   -0.2443 C   0  0  0  0  0  0  0  0  0  0  0  0
    2.1194   -0.4755    0.0724 C   0  0  0  0  0  0  0  0  0  0  0  0
    1.6545   -1.3900   -0.8611 C   0  0  0  0  0  0  0  0  0  0  0  0
    2.0235   -1.2412   -2.1928 C   0  0  0  0  0  0  0  0  0  0  0  0
    2.8543   -0.1879   -2.5577 C   0  0  0  0  0  0  0  0  0  0  0  0
    3.2946    0.7032   -1.5873 C   0  0  0  0  0  0  0  0  0  0  0  0
    4.1221    1.6995   -1.9610 F   0  0  0  0  0  0  0  0  0  0  0  0
    3.2323   -0.0502   -3.8360 F   0  0  0  0  0  0  0  0  0  0  0  0
    1.5955   -2.1155   -3.1136 F   0  0  0  0  0  0  0  0  0  0  0  0
    0.8707   -2.4144   -0.4894 F   0  0  0  0  0  0  0  0  0  0  0  0
    1.7686   -0.6395    1.3739 F   0  0  0  0  0  0  0  0  0  0  0  0
    4.4811   -1.1619    2.8683 C   0  0  0  0  0  0  0  0  0  0  0  0
    5.2121   -1.4424    3.6255 H   0  0  0  0  0  0  0  0  0  0  0  0
    4.5334   -1.8318    2.0121 H   0  0  0  0  0  0  0  0  0  0  0  0
    3.4756   -1.2122    3.2844 H   0  0  0  0  0  0  0  0  0  0  0  0
    3.9976    5.1760    2.9754 C   0  0  0  0  0  0  0  0  0  0  0  0
    3.9947    5.5818    3.9856 H   0  0  0  0  0  0  0  0  0  0  0  0
    3.2847    5.7010    2.3404 H   0  0  0  0  0  0  0  0  0  0  0  0
    4.9942    5.2780    2.5454 H   0  0  0  0  0  0  0  0  0  0  0  0
    6.4956    0.5252    1.5163 C   0  0  0  0  0  0  0  0  0  0  0  0
    6.9201    1.9895    1.3893 C   0  0  0  0  0  0  0  0  0  0  0  0
    7.1653    2.4176    2.3614 H   0  0  0  0  0  0  0  0  0  0  0  0
    6.1100    2.5762    0.9393 H   0  0  0  0  0  0  0  0  0  0  0  0
    7.7947    2.0771    0.7477 H   0  0  0  0  0  0  0  0  0  0  0  0
    6.3228   -0.0711    0.1205 C   0  0  0  0  0  0  0  0  0  0  0  0
    7.2941   -0.1777   -0.3592 H   0  0  0  0  0  0  0  0  0  0  0  0
    5.7132    0.5838   -0.4956 H   0  0  0  0  0  0  0  0  0  0  0  0
    5.8539   -1.0536    0.1594 H   0  0  0  0  0  0  0  0  0  0  0  0
    7.5155   -0.2839    2.3105 C   0  0  0  0  0  0  0  0  0  0  0  0
    8.5088   -0.1190    1.8963 H   0  0  0  0  0  0  0  0  0  0  0  0
    7.2969   -1.3476    2.2505 H   0  0  0  0  0  0  0  0  0  0  0  0
    7.5287    0.0101    3.3583 H   0  0  0  0  0  0  0  0  0  0  0  0
    2.0071    3.2657    4.0483 C   0  0  0  0  0  0  0  0  0  0  0  0
    2.2800    3.4743    5.5358 C   0  0  0  0  0  0  0  0  0  0  0  0
    1.3332    3.5662    6.0655 H   0  0  0  0  0  0  0  0  0  0  0  0
    2.8592    4.3783    5.7132 H   0  0  0  0  0  0  0  0  0  0  0  0
    2.8227    2.6329    5.9638 H   0  0  0  0  0  0  0  0  0  0  0  0
    1.4745    1.8538    3.7967 C   0  0  0  0  0  0  0  0  0  0  0  0
    0.5547    1.6856    4.3540 H   0  0  0  0  0  0  0  0  0  0  0  0
    2.2034    1.1022    4.1102 H   0  0  0  0  0  0  0  0  0  0  0  0
    1.2545    1.7086    2.7335 H   0  0  0  0  0  0  0  0  0  0  0  0
    1.0032    4.3046    3.5514 C   0  0  0  0  0  0  0  0  0  0  0  0
    0.8968    4.2649    2.4687 H   0  0  0  0  0  0  0  0  0  0  0  0
    1.3062    5.3096    3.8369 H   0  0  0  0  0  0  0  0  0  0  0  0
    0.0270    4.1078    3.9914 H   0  0  0  0  0  0  0  0  0  0  0  0
  1  2  1  6  0  0  0
  1  3  1  0  0  0  0
  1  4  1  0  0  0  0
  3 38  1  6  0  0  0
  3 30  1  0  0  0  0
  3  5  1  0  0  0  0
  4 34  1  6  0  0  0
  4 51  1  0  0  0  0
  4 18  1  0  0  0  0
  5 18  2  0  0  0  0
  5  6  1  0  0  0  0
  6  7  2  0  0  0  0
  7 16  1  0  0  0  0
  7  8  1  0  0  0  0
  8 10  2  0  0  0  0
  9  8  1  0  0  0  0
 10 12  1  0  0  0  0
 10 11  1  0  0  0  0
 12 13  1  0  0  0  0
 14 15  1  0  0  0  0
 14 12  2  0  0  0  0
 16 14  1  0  0  0  0
 17 16  2  0  0  0  0
 18 17  1  0  0  0  0
 19 20  1  0  0  0  0
 19  1  1  0  0  0  0
 20 29  1  0  0  0  0
 21 28  1  0  0  0  0
 21 20  2  0  0  0  0
 22 21  1  0  0  0  0
 23 22  2  0  0  0  0
 23 24  1  0  0  0  0
 24 19  2  0  0  0  0
 25 24  1  0  0  0  0
 26 23  1  0  0  0  0
 27 22  1  0  0  0  0
 30 33  1  0  0  0  0
 30 31  1  0  0  0  0
 32 30  1  0  0  0  0
 34 35  1  0  0  0  0
 36 34  1  0  0  0  0
 37 34  1  0  0  0  0
 38 47  1  0  0  0  0
 39 38  1  0  0  0  0
 39 40  1  0  0  0  0
 41 39  1  0  0  0  0
 42 39  1  0  0  0  0
 43 46  1  0  0  0  0
 43 38  1  0  0  0  0
 44 43  1  0  0  0  0
 45 43  1  0  0  0  0
 47 50  1  0  0  0  0
 48 47  1  0  0  0  0
 49 47  1  0  0  0  0
 51 52  1  0  0  0  0
 52 54  1  0  0  0  0
 52 55  1  0  0  0  0
 52 53  1  0  0  0  0
 56 51  1  0  0  0  0
 56 58  1  0  0  0  0
 56 57  1  0  0  0  0
 59 56  1  0  0  0  0
 60 62  1  0  0  0  0
 60 63  1  0  0  0  0
 60 51  1  0  0  0  0
 61 60  1  0  0  0  0
M  END
$$$$
