CSD_code = WUSTIP | q = 0 | S = 0 | Stoichiometry = C13H6Cl2N2O3Ru | MND = 6
 OpenBabel04212202113D

 27 30  0  0  1  0  0  0  0  0999 V2000
    3.1353    6.2848    7.9911 Ru  0  0  0  0  0  0  0  0  0  0  0  0
    4.3309    5.6304    9.9427 Cl  0  0  0  0  0  0  0  0  0  0  0  0
    1.9920    6.2938    5.9032 Cl  0  0  0  0  0  0  0  0  0  0  0  0
    3.5987    0.3172    6.7169 O   0  0  0  0  0  0  0  0  0  0  0  0
    4.8207    8.6872    7.4106 O   0  0  0  0  0  1  0  0  0  0  0  0
    1.1184    7.9588    9.4324 O   0  0  0  0  0  1  0  0  0  0  0  0
    2.0142    4.5078    8.3472 N   0  0  0  0  0  0  0  0  0  0  0  0
    4.4978    4.9916    6.9867 N   0  0  0  0  0  0  0  0  0  0  0  0
    0.8832    4.1066    8.9356 C   0  0  0  0  0  3  0  0  0  0  0  0
    0.2845    4.8710    9.4123 H   0  0  0  0  0  0  0  0  0  0  0  0
    0.4774    2.7783    8.9460 C   0  0  0  0  0  0  0  0  0  0  0  0
   -0.4470    2.5224    9.4392 H   0  0  0  0  0  0  0  0  0  0  0  0
    1.2377    1.7775    8.3348 C   0  0  0  0  0  0  0  0  0  0  0  0
    0.9238    0.7453    8.3407 H   0  0  0  0  0  0  0  0  0  0  0  0
    2.4090    2.1846    7.7247 C   0  0  0  0  0  0  0  0  0  0  0  0
    2.7171    3.5481    7.7774 C   0  0  0  0  0  0  0  0  0  0  0  0
    3.9628    3.7907    7.0948 C   0  0  1  0  0  3  0  0  0  0  0  0
    5.6553    5.0362    6.3199 C   0  0  0  0  0  0  0  0  0  0  0  0
    6.1192    6.0075    6.2143 H   0  0  0  0  0  0  0  0  0  0  0  0
    6.2506    3.9030    5.7806 C   0  0  0  0  0  0  0  0  0  0  0  0
    7.1855    4.0095    5.2533 H   0  0  0  0  0  0  0  0  0  0  0  0
    5.6656    2.6402    5.9071 C   0  0  0  0  0  0  0  0  0  0  0  0
    6.1261    1.7587    5.4887 H   0  0  0  0  0  0  0  0  0  0  0  0
    4.4686    2.5859    6.5956 C   0  0  0  0  0  0  0  0  0  0  0  0
    3.5082    1.4871    6.9676 C   0  0  0  0  0  0  0  0  0  0  0  0
    4.1804    7.7724    7.6305 C   0  0  0  0  0  2  0  0  0  0  0  0
    1.8870    7.3233    8.8846 C   0  0  0  0  0  2  0  0  0  0  0  0
  1  7  1  0  0  0  0
  1 27  1  0  0  0  0
  1  2  1  0  0  0  0
  3  1  1  0  0  0  0
  4 25  2  0  0  0  0
  5 26  1  0  0  0  0
  7  9  1  0  0  0  0
  8 17  1  0  0  0  0
  8  1  1  0  0  0  0
  9 11  1  0  0  0  0
  9 10  1  0  0  0  0
 11 12  1  0  0  0  0
 13 14  1  0  0  0  0
 13 11  2  0  0  0  0
 15 16  2  0  0  0  0
 15 13  1  0  0  0  0
 16  7  1  0  0  0  0
 17 24  1  6  0  0  0
 17 16  1  0  0  0  0
 18  8  1  0  0  0  0
 19 18  1  0  0  0  0
 20 22  1  0  0  0  0
 20 18  2  0  0  0  0
 21 20  1  0  0  0  0
 22 24  2  0  0  0  0
 23 22  1  0  0  0  0
 24 25  1  0  0  0  0
 25 15  1  0  0  0  0
 26  1  1  0  0  0  0
 27  6  1  0  0  0  0
M  END
$$$$
