CSD_code = WUSTOV | q = 0 | S = 0 | Stoichiometry = C14H6Cl2N2O4Ru | MND = 6
 OpenBabel04212202113D

 29 31  0  0  1  0  0  0  0  0999 V2000
   -0.5678    1.4685    8.9288 Ru  0  0  0  0  0  0  0  0  0  0  0  0
   -0.1604   -0.8608    8.7085 Cl  0  0  0  0  0  0  0  0  0  0  0  0
   -2.6116    1.3752    7.7226 Cl  0  0  0  0  0  0  0  0  0  0  0  0
   -2.3843    0.4101   11.0624 O   0  0  0  0  0  1  0  0  0  0  0  0
   -1.3664    4.3667    9.0134 O   0  0  0  0  0  1  0  0  0  0  0  0
    3.5789    4.1270    4.5391 O   0  0  0  0  0  0  0  0  0  0  0  0
    2.0579    1.2581   10.3800 O   0  0  0  0  0  1  0  0  0  0  0  0
    0.3668    1.6680    7.0471 N   0  0  0  0  0  0  0  0  0  0  0  0
    1.5932    3.8229    8.8502 N   0  0  0  0  0  0  0  0  0  0  0  0
   -1.6530    0.9027   10.3541 C   0  0  0  0  0  2  0  0  0  0  0  0
   -0.9973    3.2926    9.0118 C   0  0  0  0  0  2  0  0  0  0  0  0
    1.2956    2.5569    6.7279 C   0  0  2  0  0  3  0  0  0  0  0  0
    1.8833    3.5883    7.5874 C   0  0  0  0  0  0  0  0  0  0  0  0
    2.8304    4.3110    6.8393 C   0  0  0  0  0  0  0  0  0  0  0  0
    2.8881    3.7635    5.4533 C   0  0  0  0  0  0  0  0  0  0  0  0
    1.8865    2.6524    5.4566 C   0  0  0  0  0  0  0  0  0  0  0  0
    1.4971    1.7808    4.4586 C   0  0  0  0  0  0  0  0  0  0  0  0
    1.9313    1.8279    3.4718 H   0  0  0  0  0  0  0  0  0  0  0  0
    0.5210    0.8480    4.7971 C   0  0  0  0  0  0  0  0  0  0  0  0
    0.1670    0.1354    4.0695 H   0  0  0  0  0  0  0  0  0  0  0  0
   -0.0118    0.8215    6.0766 C   0  0  0  0  0  0  0  0  0  0  0  0
   -0.7722    0.0931    6.3356 H   0  0  0  0  0  0  0  0  0  0  0  0
    3.5152    5.3430    7.4510 C   0  0  0  0  0  0  0  0  0  0  0  0
    4.2501    5.9240    6.9146 H   0  0  0  0  0  0  0  0  0  0  0  0
    3.2100    5.5941    8.7878 C   0  0  0  0  0  0  0  0  0  0  0  0
    3.7090    6.3861    9.3230 H   0  0  0  0  0  0  0  0  0  0  0  0
    2.2569    4.8184    9.4326 C   0  0  0  0  0  0  0  0  0  0  0  0
    2.0026    4.9927   10.4686 H   0  0  0  0  0  0  0  0  0  0  0  0
    1.0712    1.4114    9.8388 C   0  0  0  0  0  2  0  0  0  0  0  0
  1 11  1  0  0  0  0
  1 29  1  0  0  0  0
  1 10  1  0  0  0  0
  2  1  1  0  0  0  0
  3  1  1  0  0  0  0
  6 15  2  0  0  0  0
  8  1  1  0  0  0  0
  9 27  1  0  0  0  0
 10  4  1  0  0  0  0
 11  5  1  0  0  0  0
 12 16  1  6  0  0  0
 12  8  1  0  0  0  0
 12 13  1  0  0  0  0
 13  9  2  0  0  0  0
 14 23  2  0  0  0  0
 14 13  1  0  0  0  0
 15 16  1  0  0  0  0
 15 14  1  0  0  0  0
 17 19  1  0  0  0  0
 17 16  2  0  0  0  0
 18 17  1  0  0  0  0
 19 21  2  0  0  0  0
 20 19  1  0  0  0  0
 21 22  1  0  0  0  0
 21  8  1  0  0  0  0
 23 25  1  0  0  0  0
 24 23  1  0  0  0  0
 25 26  1  0  0  0  0
 25 27  2  0  0  0  0
 27 28  1  0  0  0  0
 29  7  1  0  0  0  0
M  END
$$$$
