CSD_code = WUVSUD | q = 0 | S = 0 | Stoichiometry = C20H23Cl2N2PPd | MND = 4
 OpenBabel04212202113D

 49 52  0  0  1  0  0  0  0  0999 V2000
    9.6975    0.4209    1.8869 Pd  0  0  0  0  0  0  0  0  0  0  0  0
   10.3657   -1.1790    3.3298 P   0  0  0  0  0  4  0  0  0  0  0  0
   10.3042    1.9216    3.4331 Cl  0  0  0  0  0  0  0  0  0  0  0  0
    9.4996    1.9986    0.2795 Cl  0  0  0  0  0  0  0  0  0  0  0  0
    8.9111   -0.9468    0.5875 N   0  0  1  0  0  0  0  0  0  0  0  0
    9.5344   -1.9748    0.0070 N   0  0  0  0  0  0  0  0  0  0  0  0
    7.6424   -0.9617    0.2123 C   0  0  1  0  0  3  0  0  0  0  0  0
    7.4455   -2.0475   -0.6540 C   0  0  0  0  0  0  0  0  0  0  0  0
    6.5329   -2.3293   -1.1375 H   0  0  0  0  0  0  0  0  0  0  0  0
    8.6709   -2.6746   -0.7640 C   0  0  0  0  0  0  0  0  0  0  0  0
    6.6933    0.0647    0.7193 C   0  0  0  0  0  0  0  0  0  0  0  0
    7.0838    0.4929    1.6600 H   0  0  0  0  0  0  0  0  0  0  0  0
    5.7082   -0.3642    0.8890 H   0  0  0  0  0  0  0  0  0  0  0  0
    6.6061    0.8754   -0.0051 H   0  0  0  0  0  0  0  0  0  0  0  0
    9.0729   -3.8698   -1.5472 C   0  0  0  0  0  0  0  0  0  0  0  0
    9.8845   -3.6258   -2.2322 H   0  0  0  0  0  0  0  0  0  0  0  0
    8.2262   -4.2256   -2.1265 H   0  0  0  0  0  0  0  0  0  0  0  0
    9.4096   -4.6743   -0.8938 H   0  0  0  0  0  0  0  0  0  0  0  0
   10.9168   -2.2221    0.3085 C   0  0  0  0  0  0  0  0  0  0  0  0
   11.3554   -1.2455    0.5728 H   0  0  0  0  0  0  0  0  0  0  0  0
   11.4210   -2.6018   -0.5840 H   0  0  0  0  0  0  0  0  0  0  0  0
   11.1083   -3.2113    1.4694 C   0  0  0  0  0  0  0  0  0  0  0  0
   10.2334   -2.9259    2.6931 C   0  0  0  0  0  0  0  0  0  0  0  0
   10.5139   -3.6131    3.4965 H   0  0  0  0  0  0  0  0  0  0  0  0
    9.1813   -3.1042    2.4470 H   0  0  0  0  0  0  0  0  0  0  0  0
   12.1745   -1.0322    3.5049 C   0  0  0  0  0  0  0  0  0  0  0  0
   12.8780   -1.8108    4.4191 C   0  0  0  0  0  0  0  0  0  0  0  0
   12.3431   -2.4871    5.0724 H   0  0  0  0  0  0  0  0  0  0  0  0
   14.2541   -1.7036    4.5020 C   0  0  0  0  0  0  0  0  0  0  0  0
   14.7981   -2.3036    5.2169 H   0  0  0  0  0  0  0  0  0  0  0  0
   14.9340   -0.8237    3.6745 C   0  0  0  0  0  0  0  0  0  0  0  0
   16.0081   -0.7388    3.7468 H   0  0  0  0  0  0  0  0  0  0  0  0
   14.2378   -0.0462    2.7633 C   0  0  0  0  0  0  0  0  0  0  0  0
   14.7675    0.6465    2.1269 H   0  0  0  0  0  0  0  0  0  0  0  0
   12.8606   -0.1492    2.6752 C   0  0  0  0  0  0  0  0  0  0  0  0
   12.3040    0.4892    1.9797 H   0  0  0  0  0  0  0  0  0  0  0  0
    9.7975   -1.3133    5.0441 C   0  0  0  0  0  0  0  0  0  0  0  0
    8.8149   -2.2182    5.4346 C   0  0  0  0  0  0  0  0  0  0  0  0
    8.3936   -2.9097    4.7184 H   0  0  0  0  0  0  0  0  0  0  0  0
    8.3695   -2.2309    6.7444 C   0  0  0  0  0  0  0  0  0  0  0  0
    7.6114   -2.9392    7.0458 H   0  0  0  0  0  0  0  0  0  0  0  0
    8.8867   -1.3345    7.6650 C   0  0  0  0  0  0  0  0  0  0  0  0
    8.5334   -1.3465    8.6854 H   0  0  0  0  0  0  0  0  0  0  0  0
    9.8464   -0.4146    7.2728 C   0  0  0  0  0  0  0  0  0  0  0  0
   10.2384    0.2955    7.9854 H   0  0  0  0  0  0  0  0  0  0  0  0
   10.2995   -0.3976    5.9675 C   0  0  0  0  0  0  0  0  0  0  0  0
   11.0285    0.3320    5.6444 H   0  0  0  0  0  0  0  0  0  0  0  0
   10.8914   -4.2253    1.1218 H   0  0  0  0  0  0  0  0  0  0  0  0
   12.1605   -3.1774    1.7594 H   0  0  0  0  0  0  0  0  0  0  0  0
  1  2  1  0  0  0  0
  1  3  1  0  0  0  0
  2 26  1  0  0  0  0
  2 37  1  0  0  0  0
  4  1  1  0  0  0  0
  5  6  1  1  0  0  0
  5  1  1  0  0  0  0
  6 19  1  0  0  0  0
  7  5  1  0  0  0  0
  7 11  1  1  0  0  0
  8  7  1  0  0  0  0
  9  8  1  0  0  0  0
 10  8  2  0  0  0  0
 10  6  1  0  0  0  0
 11 13  1  0  0  0  0
 11 12  1  0  0  0  0
 14 11  1  0  0  0  0
 15 18  1  0  0  0  0
 15 10  1  0  0  0  0
 16 15  1  0  0  0  0
 17 15  1  0  0  0  0
 19 20  1  0  0  0  0
 19 22  1  0  0  0  0
 21 19  1  0  0  0  0
 22 49  1  0  0  0  0
 22 23  1  0  0  0  0
 23  2  1  0  0  0  0
 23 24  1  0  0  0  0
 25 23  1  0  0  0  0
 26 27  1  0  0  0  0
 27 29  2  0  0  0  0
 27 28  1  0  0  0  0
 29 30  1  0  0  0  0
 31 32  1  0  0  0  0
 31 29  1  0  0  0  0
 33 31  2  0  0  0  0
 34 33  1  0  0  0  0
 35 33  1  0  0  0  0
 35 26  2  0  0  0  0
 36 35  1  0  0  0  0
 37 38  2  0  0  0  0
 37 46  1  0  0  0  0
 38 40  1  0  0  0  0
 39 38  1  0  0  0  0
 40 41  1  0  0  0  0
 40 42  2  0  0  0  0
 42 43  1  0  0  0  0
 44 42  1  0  0  0  0
 44 45  1  0  0  0  0
 46 44  2  0  0  0  0
 47 46  1  0  0  0  0
 48 22  1  0  0  0  0
M  END
$$$$
