CSD_code = WUVSOX | q = 0 | S = 0 | Stoichiometry = C19H21Cl2N2PPd | MND = 4
 OpenBabel04212202113D

 46 49  0  0  1  0  0  0  0  0999 V2000
    9.0681    5.9185    7.8938 Pd  0  0  0  0  0  0  0  0  0  0  0  0
    8.6668    5.8537    5.6783 Cl  0  0  0  0  0  0  0  0  0  0  0  0
    8.6855    3.7335    8.0732 Cl  0  0  0  0  0  0  0  0  0  0  0  0
    9.6722    6.1229   10.0575 P   0  0  0  0  0  4  0  0  0  0  0  0
    9.3980    7.9614    7.8149 N   0  0  2  0  0  0  0  0  0  0  0  0
   10.5261    8.4858    8.3065 N   0  0  0  0  0  0  0  0  0  0  0  0
    8.5446    8.9505    7.6021 C   0  0  2  0  0  3  0  0  0  0  0  0
    9.1564   10.1587    7.9700 C   0  0  0  0  0  0  0  0  0  0  0  0
    8.7306   11.1389    7.9112 H   0  0  0  0  0  0  0  0  0  0  0  0
   10.4173    9.8282    8.4219 C   0  0  0  0  0  0  0  0  0  0  0  0
    7.1828    8.6995    7.0667 C   0  0  0  0  0  0  0  0  0  0  0  0
    7.0275    7.6185    6.9719 H   0  0  0  0  0  0  0  0  0  0  0  0
    7.0774    9.1479    6.0802 H   0  0  0  0  0  0  0  0  0  0  0  0
    6.4284    9.1284    7.7241 H   0  0  0  0  0  0  0  0  0  0  0  0
   11.5113   10.6897    8.9374 C   0  0  0  0  0  0  0  0  0  0  0  0
   12.3915   10.6227    8.2979 H   0  0  0  0  0  0  0  0  0  0  0  0
   11.7985   10.3976    9.9471 H   0  0  0  0  0  0  0  0  0  0  0  0
   11.1783   11.7232    8.9568 H   0  0  0  0  0  0  0  0  0  0  0  0
   11.5931    7.6068    8.7028 C   0  0  0  0  0  0  0  0  0  0  0  0
   12.5381    8.1553    8.6876 H   0  0  0  0  0  0  0  0  0  0  0  0
   11.6349    6.7889    7.9590 H   0  0  0  0  0  0  0  0  0  0  0  0
   11.3191    7.0092   10.0897 C   0  0  0  0  0  0  0  0  0  0  0  0
   11.3236    7.7922   10.8509 H   0  0  0  0  0  0  0  0  0  0  0  0
   12.0963    6.2798   10.3309 H   0  0  0  0  0  0  0  0  0  0  0  0
    9.9443    4.8019   11.2683 C   0  0  0  0  0  0  0  0  0  0  0  0
    9.3705    4.7717   12.5328 C   0  0  0  0  0  0  0  0  0  0  0  0
    8.7301    5.5787   12.8594 H   0  0  0  0  0  0  0  0  0  0  0  0
    9.6182    3.6962   13.3683 C   0  0  0  0  0  0  0  0  0  0  0  0
    9.1752    3.6710   14.3531 H   0  0  0  0  0  0  0  0  0  0  0  0
   10.4213    2.6512   12.9426 C   0  0  0  0  0  0  0  0  0  0  0  0
   10.6035    1.8121   13.5975 H   0  0  0  0  0  0  0  0  0  0  0  0
   10.9769    2.6707   11.6723 C   0  0  0  0  0  0  0  0  0  0  0  0
   11.5850    1.8451   11.3343 H   0  0  0  0  0  0  0  0  0  0  0  0
   10.7363    3.7408   10.8334 C   0  0  0  0  0  0  0  0  0  0  0  0
   11.1293    3.7551    9.8234 H   0  0  0  0  0  0  0  0  0  0  0  0
    8.5093    7.2811   10.8447 C   0  0  0  0  0  0  0  0  0  0  0  0
    8.8025    8.1132   11.9194 C   0  0  0  0  0  0  0  0  0  0  0  0
    9.7782    8.0832   12.3850 H   0  0  0  0  0  0  0  0  0  0  0  0
    7.8367    8.9764   12.4063 C   0  0  0  0  0  0  0  0  0  0  0  0
    8.0682    9.6252   13.2385 H   0  0  0  0  0  0  0  0  0  0  0  0
    6.5755    9.0082   11.8336 C   0  0  0  0  0  0  0  0  0  0  0  0
    5.8283    9.6867   12.2172 H   0  0  0  0  0  0  0  0  0  0  0  0
    6.2707    8.1670   10.7751 C   0  0  0  0  0  0  0  0  0  0  0  0
    5.2838    8.1835   10.3374 H   0  0  0  0  0  0  0  0  0  0  0  0
    7.2346    7.3079   10.2810 C   0  0  0  0  0  0  0  0  0  0  0  0
    7.0127    6.6352    9.4463 H   0  0  0  0  0  0  0  0  0  0  0  0
  1  3  1  0  0  0  0
  1  4  1  0  0  0  0
  2  1  1  0  0  0  0
  4 22  1  0  0  0  0
  4 36  1  0  0  0  0
  4 25  1  0  0  0  0
  5  1  1  0  0  0  0
  5  6  1  1  0  0  0
  6 10  1  0  0  0  0
  6 19  1  0  0  0  0
  7 11  1  1  0  0  0
  7  5  1  0  0  0  0
  7  8  1  0  0  0  0
  8 10  2  0  0  0  0
  9  8  1  0  0  0  0
 10 15  1  0  0  0  0
 11 14  1  0  0  0  0
 12 11  1  0  0  0  0
 13 11  1  0  0  0  0
 15 18  1  0  0  0  0
 15 17  1  0  0  0  0
 16 15  1  0  0  0  0
 19 22  1  0  0  0  0
 20 19  1  0  0  0  0
 21 19  1  0  0  0  0
 22 24  1  0  0  0  0
 22 23  1  0  0  0  0
 25 26  1  0  0  0  0
 26 27  1  0  0  0  0
 26 28  2  0  0  0  0
 28 29  1  0  0  0  0
 30 28  1  0  0  0  0
 30 31  1  0  0  0  0
 32 30  2  0  0  0  0
 33 32  1  0  0  0  0
 34 25  2  0  0  0  0
 34 32  1  0  0  0  0
 35 34  1  0  0  0  0
 36 37  1  0  0  0  0
 37 38  1  0  0  0  0
 37 39  2  0  0  0  0
 39 40  1  0  0  0  0
 41 42  1  0  0  0  0
 41 39  1  0  0  0  0
 43 41  2  0  0  0  0
 44 43  1  0  0  0  0
 45 43  1  0  0  0  0
 45 36  2  0  0  0  0
 46 45  1  0  0  0  0
M  END
$$$$
