CSD_code = WUVYET | q = 0 | S = 0 | Stoichiometry = C20H18I2N4Pd | MND = 4
 OpenBabel04212202113D

 45 48  0  0  0  0  0  0  0  0999 V2000
    1.7886    0.9509    9.7437 C   0  0  0  0  0  0  0  0  0  0  0  0
    2.6895    1.1949    9.1649 H   0  0  0  0  0  0  0  0  0  0  0  0
    1.5958    1.5249   10.9880 C   0  0  0  0  0  0  0  0  0  0  0  0
    2.3118    2.2415   11.3624 H   0  0  0  0  0  0  0  0  0  0  0  0
    0.4942    1.1822   11.7551 C   0  0  0  0  0  0  0  0  0  0  0  0
    0.3460    1.6445   12.7189 H   0  0  0  0  0  0  0  0  0  0  0  0
   -0.4136    0.2461   11.2883 C   0  0  0  0  0  0  0  0  0  0  0  0
   -1.2695   -0.0246   11.8870 H   0  0  0  0  0  0  0  0  0  0  0  0
   -0.2375   -0.3348   10.0466 C   0  0  0  0  0  0  0  0  0  0  0  0
   -0.9423   -1.0527    9.6580 H   0  0  0  0  0  0  0  0  0  0  0  0
    0.8567    0.0276    9.2719 C   0  0  0  0  0  0  0  0  0  0  0  0
    0.2725   -3.0613    5.7604 C   0  0  0  0  0  0  0  0  0  0  0  0
    1.0510   -3.8266    5.7633 H   0  0  0  0  0  0  0  0  0  0  0  0
   -0.0152   -2.8370    4.7341 H   0  0  0  0  0  0  0  0  0  0  0  0
   -0.5847   -3.4333    6.3195 H   0  0  0  0  0  0  0  0  0  0  0  0
    1.3950   -0.8069    5.8753 C   0  0  0  0  0  0  0  0  0  0  0  0
    1.8803   -0.6297    4.5152 C   0  0  0  0  0  0  0  0  0  0  0  0
    2.3964   -1.6818    3.7618 C   0  0  0  0  0  0  0  0  0  0  0  0
    2.4246   -2.6811    4.1679 H   0  0  0  0  0  0  0  0  0  0  0  0
    2.9307   -1.4443    2.5088 C   0  0  0  0  0  0  0  0  0  0  0  0
    3.3374   -2.2667    1.9395 H   0  0  0  0  0  0  0  0  0  0  0  0
    2.9609   -0.1609    1.9920 C   0  0  0  0  0  0  0  0  0  0  0  0
    3.3856    0.0202    1.0163 H   0  0  0  0  0  0  0  0  0  0  0  0
    2.4529    0.8932    2.7345 C   0  0  0  0  0  0  0  0  0  0  0  0
    2.4739    1.8953    2.3308 H   0  0  0  0  0  0  0  0  0  0  0  0
    1.9194    0.6678    3.9892 C   0  0  0  0  0  0  0  0  0  0  0  0
    1.4862    1.5046    4.5512 H   0  0  0  0  0  0  0  0  0  0  0  0
    1.5638    0.1030    6.9232 C   0  0  0  0  0  0  0  0  0  0  0  0
    3.5135    4.2085    5.5706 C   0  0  0  0  0  3  0  0  0  0  0  0
    3.3652    3.5616    4.7057 H   0  0  0  0  0  0  0  0  0  0  0  0
    4.0582    5.4729    5.4383 C   0  0  0  0  0  0  0  0  0  0  0  0
    4.3317    5.8429    4.4631 H   0  0  0  0  0  0  0  0  0  0  0  0
    4.2436    6.2419    6.5770 C   0  0  0  0  0  0  0  0  0  0  0  0
    4.6675    7.2321    6.5090 H   0  0  0  0  0  0  0  0  0  0  0  0
    3.8728    5.7148    7.8045 C   0  0  0  0  0  0  0  0  0  0  0  0
    3.9995    6.2776    8.7156 H   0  0  0  0  0  0  0  0  0  0  0  0
    3.3270    4.4445    7.8459 C   0  0  0  0  0  0  0  0  0  0  0  0
    3.0081    3.9968    8.7870 H   0  0  0  0  0  0  0  0  0  0  0  0
   -0.0288    2.9403    7.1165 I   0  0  0  0  0  0  0  0  0  0  0  0
    4.7284    0.8092    6.5873 I   0  0  0  0  0  0  0  0  0  0  0  0
    0.9930   -0.5153    7.9817 N   0  0  0  0  0  0  0  0  0  0  0  0
    0.4848   -1.6941    7.6759 N   0  0  0  0  0  2  0  0  0  0  0  0
    0.7380   -1.8672    6.4038 N   0  0  0  0  0  0  0  0  0  0  0  0
    3.1551    3.7126    6.7504 N   0  0  0  0  0  0  0  0  0  0  0  0
    2.3552    1.8842    6.8526 Pd  0  0  0  0  0  0  0  0  0  0  0  0
  1  3  1  0  0  0  0
  2  1  1  0  0  0  0
  3  4  1  0  0  0  0
  3  5  2  0  0  0  0
  5  6  1  0  0  0  0
  7  5  1  0  0  0  0
  7  8  1  0  0  0  0
  9  7  2  0  0  0  0
 10  9  1  0  0  0  0
 11  1  2  0  0  0  0
 11  9  1  0  0  0  0
 12 13  1  0  0  0  0
 12 15  1  0  0  0  0
 12 43  1  0  0  0  0
 14 12  1  0  0  0  0
 16 43  1  0  0  0  0
 16 28  2  0  0  0  0
 17 16  1  0  0  0  0
 18 19  1  0  0  0  0
 18 17  2  0  0  0  0
 20 18  1  0  0  0  0
 21 20  1  0  0  0  0
 22 20  2  0  0  0  0
 22 24  1  0  0  0  0
 23 22  1  0  0  0  0
 24 26  2  0  0  0  0
 25 24  1  0  0  0  0
 26 17  1  0  0  0  0
 26 27  1  0  0  0  0
 28 41  1  0  0  0  0
 29 44  1  0  0  0  0
 30 29  1  0  0  0  0
 31 29  1  0  0  0  0
 31 33  2  0  0  0  0
 32 31  1  0  0  0  0
 33 35  1  0  0  0  0
 34 33  1  0  0  0  0
 35 37  2  0  0  0  0
 35 36  1  0  0  0  0
 37 38  1  0  0  0  0
 40 45  1  0  0  0  0
 41 11  1  0  0  0  0
 42 41  1  0  0  0  0
 43 42  1  0  0  0  0
 44 45  1  0  0  0  0
 44 37  1  0  0  0  0
 45 28  1  0  0  0  0
 45 39  1  0  0  0  0
M  END
$$$$
