CSD_code = WUWBAT | q = 0 | S = 0 | Stoichiometry = C16H8Cl2F6N2Pt | MND = 4
 OpenBabel04212202113D

 35 36  0  0  0  0  0  0  0  0999 V2000
    0.0000    4.6729   -0.0000 Pt  0  0  0  0  0  0  0  0  0  0  0  0
   -0.6880    4.6729    2.2105 Cl  0  0  0  0  0  0  0  0  0  0  0  0
    9.0043    3.5970    1.9040 F   0  0  0  0  0  0  0  0  0  0  0  0
    8.4674    4.6726    3.6868 F   0  0  0  0  0  0  0  0  0  0  0  0
    1.7597    4.6728    0.5375 N   0  0  0  0  0  2  0  0  0  0  0  0
    8.3392    4.6726    2.3464 C   0  0  0  0  0  0  0  0  0  0  0  0
    6.8930    4.6726    1.9280 C   0  0  0  0  0  0  0  0  0  0  0  0
    4.2256    4.6726    1.2169 C   0  0  0  0  0  0  0  0  0  0  0  0
    6.2298    3.4626    1.7552 C   0  0  0  0  0  0  0  0  0  0  0  0
    6.7597    2.5330    1.8944 H   0  0  0  0  0  0  0  0  0  0  0  0
    4.8970    3.4583    1.3980 C   0  0  0  0  0  0  0  0  0  0  0  0
    4.3698    2.5281    1.2567 H   0  0  0  0  0  0  0  0  0  0  0  0
    2.8729    4.6726    0.8459 C   0  0  0  0  0  2  0  0  0  0  0  0
    9.0042    5.7482    1.9041 F   0  0  0  0  0  0  0  0  0  0  0  0
    6.2298    5.8826    1.7552 C   0  0  0  0  0  0  0  0  0  0  0  0
    6.7597    6.8122    1.8944 H   0  0  0  0  0  0  0  0  0  0  0  0
    4.8970    5.8869    1.3980 C   0  0  0  0  0  0  0  0  0  0  0  0
    4.3697    6.8171    1.2567 H   0  0  0  0  0  0  0  0  0  0  0  0
    0.6880    4.6729   -2.2105 Cl  0  0  0  0  0  0  0  0  0  0  0  0
   -9.0043    3.5970   -1.9040 F   0  0  0  0  0  0  0  0  0  0  0  0
   -8.4674    4.6726   -3.6868 F   0  0  0  0  0  0  0  0  0  0  0  0
   -1.7597    4.6728   -0.5375 N   0  0  0  0  0  2  0  0  0  0  0  0
   -8.3392    4.6726   -2.3464 C   0  0  0  0  0  0  0  0  0  0  0  0
   -6.8930    4.6726   -1.9280 C   0  0  0  0  0  0  0  0  0  0  0  0
   -4.2256    4.6726   -1.2169 C   0  0  0  0  0  0  0  0  0  0  0  0
   -6.2298    3.4626   -1.7552 C   0  0  0  0  0  0  0  0  0  0  0  0
   -6.7597    2.5330   -1.8944 H   0  0  0  0  0  0  0  0  0  0  0  0
   -4.8970    3.4583   -1.3980 C   0  0  0  0  0  0  0  0  0  0  0  0
   -4.3698    2.5281   -1.2567 H   0  0  0  0  0  0  0  0  0  0  0  0
   -2.8729    4.6726   -0.8459 C   0  0  0  0  0  2  0  0  0  0  0  0
   -9.0042    5.7482   -1.9041 F   0  0  0  0  0  0  0  0  0  0  0  0
   -6.2298    5.8826   -1.7552 C   0  0  0  0  0  0  0  0  0  0  0  0
   -6.7597    6.8122   -1.8944 H   0  0  0  0  0  0  0  0  0  0  0  0
   -4.8970    5.8869   -1.3980 C   0  0  0  0  0  0  0  0  0  0  0  0
   -4.3697    6.8171   -1.2567 H   0  0  0  0  0  0  0  0  0  0  0  0
  1  5  1  0  0  0  0
  1  2  1  0  0  0  0
  3  6  1  0  0  0  0
  5 13  1  0  0  0  0
  6  4  1  0  0  0  0
  7  6  1  0  0  0  0
  8 11  2  0  0  0  0
  8 17  1  0  0  0  0
  9 10  1  0  0  0  0
  9  7  2  0  0  0  0
 11  9  1  0  0  0  0
 12 11  1  0  0  0  0
 13  8  1  0  0  0  0
 14  6  1  0  0  0  0
 15 16  1  0  0  0  0
 15  7  1  0  0  0  0
 17 15  2  0  0  0  0
 18 17  1  0  0  0  0
 19  1  1  0  0  0  0
 21 23  1  0  0  0  0
 22  1  1  0  0  0  0
 23 24  1  0  0  0  0
 23 31  1  0  0  0  0
 23 20  1  0  0  0  0
 24 32  2  0  0  0  0
 24 26  1  0  0  0  0
 25 30  1  0  0  0  0
 26 28  2  0  0  0  0
 27 26  1  0  0  0  0
 28 29  1  0  0  0  0
 28 25  1  0  0  0  0
 30 22  1  0  0  0  0
 32 34  1  0  0  0  0
 33 32  1  0  0  0  0
 34 35  1  0  0  0  0
 34 25  2  0  0  0  0
M  END
$$$$
