CSD_code = WUWFUQ | q = 0 | S = 0 | Stoichiometry = C22H28Br2FeN2 | MND = 4
 OpenBabel04212202113D

 55 57  0  0  1  0  0  0  0  0999 V2000
    6.1501    4.0378    4.3190 Fe  0  0  0  0  0  0  0  0  0  0  0  0
    5.9931    6.2518    4.7325 Br  0  0  0  0  0  0  0  0  0  0  0  0
    5.7612    2.1926    5.5610 Br  0  0  0  0  0  0  0  0  0  0  0  0
    5.2740    3.7033    2.6704 N   0  0  0  0  0  0  0  0  0  0  0  0
    7.8497    3.7318    3.5332 N   0  0  0  0  0  0  0  0  0  0  0  0
    5.7132    3.0518    1.6546 C   0  0  1  0  0  3  0  0  0  0  0  0
    7.0536    2.3599    1.6800 C   0  0  1  0  0  0  0  0  0  0  0  0
    7.3998    2.2759    0.6437 H   0  0  0  0  0  0  0  0  0  0  0  0
    8.1231    3.0859    2.4577 C   0  0  2  0  0  3  0  0  0  0  0  0
    4.9465    2.8931    0.3757 C   0  0  0  0  0  0  0  0  0  0  0  0
    5.0061    1.8635    0.0275 H   0  0  0  0  0  0  0  0  0  0  0  0
    5.3766    3.5315   -0.3974 H   0  0  0  0  0  0  0  0  0  0  0  0
    3.9031    3.1681    0.5061 H   0  0  0  0  0  0  0  0  0  0  0  0
    6.8901    0.9300    2.2353 C   0  0  0  0  0  0  0  0  0  0  0  0
    6.5485    0.9599    3.2652 H   0  0  0  0  0  0  0  0  0  0  0  0
    7.8395    0.4018    2.1985 H   0  0  0  0  0  0  0  0  0  0  0  0
    6.1649    0.3770    1.6437 H   0  0  0  0  0  0  0  0  0  0  0  0
    9.5056    2.9702    1.8894 C   0  0  0  0  0  0  0  0  0  0  0  0
    9.6087    3.6342    1.0298 H   0  0  0  0  0  0  0  0  0  0  0  0
    9.6889    1.9527    1.5488 H   0  0  0  0  0  0  0  0  0  0  0  0
   10.2573    3.2437    2.6255 H   0  0  0  0  0  0  0  0  0  0  0  0
    3.9997    4.3292    2.6113 C   0  0  0  0  0  0  0  0  0  0  0  0
    3.8787    5.6071    2.0446 C   0  0  0  0  0  0  0  0  0  0  0  0
    2.6459    6.2408    2.0824 C   0  0  0  0  0  0  0  0  0  0  0  0
    2.5591    7.2319    1.6631 H   0  0  0  0  0  0  0  0  0  0  0  0
    1.5425    5.6235    2.6408 C   0  0  0  0  0  0  0  0  0  0  0  0
    0.5929    6.1355    2.6734 H   0  0  0  0  0  0  0  0  0  0  0  0
    1.6550    4.3366    3.1297 C   0  0  0  0  0  0  0  0  0  0  0  0
    0.7884    3.8304    3.5289 H   0  0  0  0  0  0  0  0  0  0  0  0
    2.8696    3.6638    3.1096 C   0  0  0  0  0  0  0  0  0  0  0  0
    2.9256    2.2449    3.5850 C   0  0  0  0  0  0  0  0  0  0  0  0
    3.7832    1.7162    3.1770 H   0  0  0  0  0  0  0  0  0  0  0  0
    2.0169    1.7212    3.2948 H   0  0  0  0  0  0  0  0  0  0  0  0
    2.9954    2.2060    4.6714 H   0  0  0  0  0  0  0  0  0  0  0  0
    5.0346    6.3098    1.4014 C   0  0  0  0  0  0  0  0  0  0  0  0
    4.7316    6.7196    0.4394 H   0  0  0  0  0  0  0  0  0  0  0  0
    5.8800    5.6436    1.2529 H   0  0  0  0  0  0  0  0  0  0  0  0
    5.3595    7.1349    2.0330 H   0  0  0  0  0  0  0  0  0  0  0  0
    8.8889    4.3908    4.2438 C   0  0  0  0  0  0  0  0  0  0  0  0
    9.2862    5.6785    3.8543 C   0  0  0  0  0  0  0  0  0  0  0  0
   10.2374    6.3435    4.6130 C   0  0  0  0  0  0  0  0  0  0  0  0
   10.5280    7.3416    4.3219 H   0  0  0  0  0  0  0  0  0  0  0  0
   10.8102    5.7475    5.7207 C   0  0  0  0  0  0  0  0  0  0  0  0
   11.5411    6.2825    6.3078 H   0  0  0  0  0  0  0  0  0  0  0  0
   10.4617    4.4538    6.0569 C   0  0  0  0  0  0  0  0  0  0  0  0
   10.9328    3.9666    6.8978 H   0  0  0  0  0  0  0  0  0  0  0  0
    9.5149    3.7508    5.3236 C   0  0  0  0  0  0  0  0  0  0  0  0
    9.2185    2.3285    5.6865 C   0  0  0  0  0  0  0  0  0  0  0  0
   10.1297    1.8313    6.0132 H   0  0  0  0  0  0  0  0  0  0  0  0
    8.7966    1.7782    4.8493 H   0  0  0  0  0  0  0  0  0  0  0  0
    8.5055    2.2830    6.5088 H   0  0  0  0  0  0  0  0  0  0  0  0
    8.7227    6.3562    2.6427 C   0  0  0  0  0  0  0  0  0  0  0  0
    8.0045    5.7256    2.1268 H   0  0  0  0  0  0  0  0  0  0  0  0
    9.5269    6.6160    1.9551 H   0  0  0  0  0  0  0  0  0  0  0  0
    8.2191    7.2748    2.9369 H   0  0  0  0  0  0  0  0  0  0  0  0
  1  2  1  0  0  0  0
  1  3  1  0  0  0  0
  4  1  1  0  0  0  0
  5 39  1  0  0  0  0
  5  1  1  0  0  0  0
  6 10  1  1  0  0  0
  6  7  1  0  0  0  0
  6  4  1  0  0  0  0
  7  8  1  6  0  0  0
  7 14  1  0  0  0  0
  7  9  1  0  0  0  0
  9 18  1  1  0  0  0
  9  5  1  0  0  0  0
 10 13  1  0  0  0  0
 11 10  1  0  0  0  0
 12 10  1  0  0  0  0
 14 15  1  0  0  0  0
 16 14  1  0  0  0  0
 17 14  1  0  0  0  0
 18 21  1  0  0  0  0
 19 18  1  0  0  0  0
 20 18  1  0  0  0  0
 22  4  1  0  0  0  0
 22 30  1  0  0  0  0
 23 24  1  0  0  0  0
 23 22  2  0  0  0  0
 24 26  2  0  0  0  0
 25 24  1  0  0  0  0
 26 27  1  0  0  0  0
 26 28  1  0  0  0  0
 28 29  1  0  0  0  0
 30 28  2  0  0  0  0
 30 31  1  0  0  0  0
 31 34  1  0  0  0  0
 32 31  1  0  0  0  0
 33 31  1  0  0  0  0
 35 38  1  0  0  0  0
 35 23  1  0  0  0  0
 36 35  1  0  0  0  0
 37 35  1  0  0  0  0
 39 47  1  0  0  0  0
 40 39  2  0  0  0  0
 40 41  1  0  0  0  0
 41 43  2  0  0  0  0
 42 41  1  0  0  0  0
 43 45  1  0  0  0  0
 43 44  1  0  0  0  0
 45 46  1  0  0  0  0
 47 48  1  0  0  0  0
 47 45  2  0  0  0  0
 48 49  1  0  0  0  0
 48 51  1  0  0  0  0
 50 48  1  0  0  0  0
 52 55  1  0  0  0  0
 52 40  1  0  0  0  0
 53 52  1  0  0  0  0
 54 52  1  0  0  0  0
M  END
$$$$
