CSD_code = WUXBOH | q = 1 | S = 0 | Stoichiometry = C19H26ClN2NiOS2(1+) | MND = 6
 OpenBabel04212202113D

 52 55  0  0  1  0  0  0  0  0999 V2000
    0.3380   -0.1739    3.1431 Ni  0  0  2  0  0  0  0  0  0  0  0  0
   -1.1754    0.5387    1.7912 Cl  0  0  0  0  0  0  0  0  0  0  0  0
   -0.7281    0.6943    5.6327 S   0  0  0  0  0  0  0  0  0  0  0  0
   -0.9003   -1.9024    3.6294 S   0  0  2  0  0  3  0  0  0  0  0  0
    1.8541   -0.8596    4.6010 O   0  0  0  0  0  0  0  0  0  0  0  0
    1.3911    1.4402    2.7930 N   0  0  1  0  0  4  0  0  0  0  0  0
    1.4481   -1.3742    1.5039 N   0  0  1  0  0  4  0  0  0  0  0  0
   -2.1128   -0.5023    5.6487 C   0  0  0  0  0  0  0  0  0  0  0  0
   -1.2834    2.0664    4.6289 C   0  0  0  0  0  0  0  0  0  0  0  0
   -2.6181    2.4372    4.6111 C   0  0  0  0  0  0  0  0  0  0  0  0
   -3.0314    3.5095    3.8414 C   0  0  0  0  0  0  0  0  0  0  0  0
   -2.1092    4.2280    3.1028 C   0  0  0  0  0  0  0  0  0  0  0  0
   -0.7736    3.8698    3.1411 C   0  0  0  0  0  0  0  0  0  0  0  0
   -0.3358    2.7929    3.9006 C   0  0  0  0  0  0  0  0  0  0  0  0
    1.1265    2.4205    3.8673 C   0  0  0  0  0  0  0  0  0  0  0  0
    2.8288    1.2214    2.5854 C   0  0  0  0  0  0  0  0  0  0  0  0
    3.1506    0.4021    1.3334 C   0  0  0  0  0  0  0  0  0  0  0  0
    2.8837   -1.0991    1.4571 C   0  0  0  0  0  0  0  0  0  0  0  0
    1.1290   -2.8110    1.5377 C   0  0  0  0  0  0  0  0  0  0  0  0
   -0.3269   -3.0184    1.2063 C   0  0  0  0  0  0  0  0  0  0  0  0
   -0.6746   -3.5904   -0.0094 C   0  0  0  0  0  0  0  0  0  0  0  0
   -1.9989   -3.7519   -0.3787 C   0  0  0  0  0  0  0  0  0  0  0  0
   -3.0032   -3.3258    0.4706 C   0  0  0  0  0  0  0  0  0  0  0  0
   -2.6839   -2.7491    1.6874 C   0  0  0  0  0  0  0  0  0  0  0  0
   -1.3567   -2.5918    2.0537 C   0  0  0  0  0  0  0  0  0  0  0  0
   -2.4182   -1.1306    4.3011 C   0  0  0  0  0  0  0  0  0  0  0  0
    1.9713   -1.8135    4.6320 H   0  0  0  0  0  0  0  0  0  0  0  0
    1.6294   -0.5684    5.4923 H   0  0  0  0  0  0  0  0  0  0  0  0
    0.1082   -3.9181   -0.6771 H   0  0  0  0  0  0  0  0  0  0  0  0
    3.3207    2.1985    2.4873 H   0  0  0  0  0  0  0  0  0  0  0  0
   -2.2427   -4.2030   -1.3273 H   0  0  0  0  0  0  0  0  0  0  0  0
    2.5892    0.7990    0.4839 H   0  0  0  0  0  0  0  0  0  0  0  0
    4.2114    0.5349    1.1183 H   0  0  0  0  0  0  0  0  0  0  0  0
   -3.0004   -0.0145    6.0501 H   0  0  0  0  0  0  0  0  0  0  0  0
    3.2358    0.7244    3.4687 H   0  0  0  0  0  0  0  0  0  0  0  0
   -3.1653   -1.9145    4.4349 H   0  0  0  0  0  0  0  0  0  0  0  0
   -4.0392   -3.4392    0.1934 H   0  0  0  0  0  0  0  0  0  0  0  0
   -2.7616   -0.3883    3.5777 H   0  0  0  0  0  0  0  0  0  0  0  0
    3.3537   -1.6109    0.6036 H   0  0  0  0  0  0  0  0  0  0  0  0
   -3.4809   -2.4201    2.3329 H   0  0  0  0  0  0  0  0  0  0  0  0
    3.3405   -1.4806    2.3736 H   0  0  0  0  0  0  0  0  0  0  0  0
    1.0416   -1.0075    0.6379 H   0  0  0  0  0  0  0  0  0  0  0  0
    1.7419   -3.3634    0.8109 H   0  0  0  0  0  0  0  0  0  0  0  0
    1.4488    1.9954    4.8221 H   0  0  0  0  0  0  0  0  0  0  0  0
    1.0091    1.8408    1.9300 H   0  0  0  0  0  0  0  0  0  0  0  0
   -3.3473    1.8974    5.1950 H   0  0  0  0  0  0  0  0  0  0  0  0
   -0.0532    4.4370    2.5698 H   0  0  0  0  0  0  0  0  0  0  0  0
    1.3578   -3.2007    2.5363 H   0  0  0  0  0  0  0  0  0  0  0  0
    1.7159    3.3286    3.6839 H   0  0  0  0  0  0  0  0  0  0  0  0
   -4.0749    3.7823    3.8274 H   0  0  0  0  0  0  0  0  0  0  0  0
   -2.4265    5.0649    2.5016 H   0  0  0  0  0  0  0  0  0  0  0  0
   -1.7826   -1.2580    6.3636 H   0  0  0  0  0  0  0  0  0  0  0  0
  1  2  1  6  0  0  0
  1  4  1  0  0  0  0
  3  8  1  0  0  0  0
  4 25  1  6  0  0  0
  4 26  1  0  0  0  0
  5 27  1  0  0  0  0
  5 28  1  0  0  0  0
  6 45  1  6  0  0  0
  6  1  1  0  0  0  0
  6 15  1  0  0  0  0
  7 42  1  6  0  0  0
  7 19  1  0  0  0  0
  7  1  1  0  0  0  0
  8 34  1  0  0  0  0
  8 52  1  0  0  0  0
  9  3  1  0  0  0  0
 10  9  1  0  0  0  0
 10 46  1  0  0  0  0
 11 10  2  0  0  0  0
 12 13  2  0  0  0  0
 12 11  1  0  0  0  0
 13 14  1  0  0  0  0
 14  9  2  0  0  0  0
 15 14  1  0  0  0  0
 15 44  1  0  0  0  0
 16  6  1  0  0  0  0
 16 35  1  0  0  0  0
 17 18  1  0  0  0  0
 17 16  1  0  0  0  0
 18  7  1  0  0  0  0
 18 41  1  0  0  0  0
 19 48  1  0  0  0  0
 20 19  1  0  0  0  0
 20 25  1  0  0  0  0
 21 20  2  0  0  0  0
 22 21  1  0  0  0  0
 22 23  2  0  0  0  0
 23 24  1  0  0  0  0
 24 25  2  0  0  0  0
 24 40  1  0  0  0  0
 26 36  1  0  0  0  0
 26  8  1  0  0  0  0
 29 21  1  0  0  0  0
 30 16  1  0  0  0  0
 31 22  1  0  0  0  0
 32 17  1  0  0  0  0
 33 17  1  0  0  0  0
 37 23  1  0  0  0  0
 38 26  1  0  0  0  0
 39 18  1  0  0  0  0
 43 19  1  0  0  0  0
 47 13  1  0  0  0  0
 49 15  1  0  0  0  0
 50 11  1  0  0  0  0
 51 12  1  0  0  0  0
M  END
$$$$
