CSD_code = WUXRUD | q = 0 | S = 0 | Stoichiometry = C10H9ClIrNO4 | MND = 4
 OpenBabel04212202113D

 26 26  0  0  0  0  0  0  0  0999 V2000
    8.5000    4.8629    2.7646 Ir  0  0  0  0  0  0  0  0  0  0  0  0
    6.5928    5.5698    3.7131 Cl  0  0  0  0  0  0  0  0  0  0  0  0
   11.0665    3.7469    1.6550 O   0  0  0  0  0  1  0  0  0  0  0  0
    6.0394   -0.3112    5.9152 O   0  0  0  0  0  0  0  0  0  0  0  0
    6.0855    0.1909    3.7287 O   0  0  0  0  0  0  0  0  0  0  0  0
    8.1261    7.1029    0.8016 O   0  0  0  0  0  1  0  0  0  0  0  0
    8.4280    3.4627    4.2709 N   0  0  0  0  0  0  0  0  0  0  0  0
   10.0856    4.1812    2.0701 C   0  0  0  0  0  2  0  0  0  0  0  0
    7.6651    2.3835    4.1194 C   0  0  0  0  0  3  0  0  0  0  0  0
    7.2689    1.5903    5.1890 C   0  0  0  0  0  0  0  0  0  0  0  0
    7.6862    1.9349    6.4722 C   0  0  0  0  0  0  0  0  0  0  0  0
    8.4907    3.0504    6.6232 C   0  0  0  0  0  0  0  0  0  0  0  0
    8.8363    3.7824    5.5002 C   0  0  0  0  0  0  0  0  0  0  0  0
    6.4003    0.3907    5.0045 C   0  0  0  0  0  0  0  0  0  0  0  0
    5.2474   -0.9338    3.4419 C   0  0  0  0  0  0  0  0  0  0  0  0
    5.2194   -1.1365    1.9395 C   0  0  0  0  0  0  0  0  0  0  0  0
    8.3294    6.2311    1.5131 C   0  0  0  0  0  2  0  0  0  0  0  0
    7.3472    2.1375    3.1145 H   0  0  0  0  0  0  0  0  0  0  0  0
    7.3735    1.3308    7.3104 H   0  0  0  0  0  0  0  0  0  0  0  0
    8.8404    3.3579    7.5957 H   0  0  0  0  0  0  0  0  0  0  0  0
    9.4592    4.6637    5.5866 H   0  0  0  0  0  0  0  0  0  0  0  0
    4.2456   -0.7300    3.8356 H   0  0  0  0  0  0  0  0  0  0  0  0
    5.6464   -1.8115    3.9620 H   0  0  0  0  0  0  0  0  0  0  0  0
    4.5773   -1.9784    1.6989 H   0  0  0  0  0  0  0  0  0  0  0  0
    6.2207   -1.3361    1.5673 H   0  0  0  0  0  0  0  0  0  0  0  0
    4.8363   -0.2460    1.4487 H   0  0  0  0  0  0  0  0  0  0  0  0
  1  2  1  0  0  0  0
  1  7  1  0  0  0  0
  3  8  1  0  0  0  0
  5 14  1  0  0  0  0
  6 17  1  0  0  0  0
  7 13  1  0  0  0  0
  8  1  1  0  0  0  0
  9  7  1  0  0  0  0
  9 10  1  0  0  0  0
 10 11  2  0  0  0  0
 11 12  1  0  0  0  0
 11 19  1  0  0  0  0
 12 20  1  0  0  0  0
 13 21  1  0  0  0  0
 13 12  2  0  0  0  0
 14 10  1  0  0  0  0
 14  4  2  0  0  0  0
 15  5  1  0  0  0  0
 15 22  1  0  0  0  0
 15 23  1  0  0  0  0
 16 15  1  0  0  0  0
 17  1  1  0  0  0  0
 18  9  1  0  0  0  0
 24 16  1  0  0  0  0
 25 16  1  0  0  0  0
 26 16  1  0  0  0  0
M  END
$$$$
