CSD_code = WUYTEP | q = 0 | S = 0 | Stoichiometry = C18H28Cl2OSi2Ti | MND = 12
 OpenBabel04212202113D

 52 54  0  0  1  0  0  0  0  0999 V2000
    3.5834   -0.0037    3.7710 Ti  0  0  0  0  0  0  0  0  0  0  0  0
    4.9694    0.7411    6.9165 Si  0  0  0  0  0  0  0  0  0  0  0  0
    4.9196   -2.2821    6.2357 Si  0  0  0  0  0  0  0  0  0  0  0  0
    2.3284    0.6324    2.0593 Cl  0  0  0  0  0  0  0  0  0  0  0  0
    1.7931   -0.3916    5.0290 Cl  0  0  0  0  0  0  0  0  0  0  0  0
    5.4246   -0.8351    6.8252 O   0  0  0  0  0  0  0  0  0  0  0  0
    4.4142    1.3690    5.2277 C   0  0  2  0  0  0  0  0  0  0  0  0
    3.2654    2.2021    5.0375 C   0  0  0  0  0  0  0  0  0  0  0  0
    2.4633    2.3250    5.7524 H   0  0  0  0  0  0  0  0  0  0  0  0
    3.3858    2.8949    3.8385 C   0  0  0  0  0  0  0  0  0  0  0  0
    2.6611    3.5929    3.4528 H   0  0  0  0  0  0  0  0  0  0  0  0
    4.5967    2.5277    3.2173 C   0  0  0  0  0  0  0  0  0  0  0  0
    5.2309    1.5864    4.0578 C   0  0  0  0  0  0  0  0  0  0  0  0
    6.2766    1.3114    3.9886 H   0  0  0  0  0  0  0  0  0  0  0  0
    4.5769   -1.9527    4.4152 C   0  0  1  0  0  0  0  0  0  0  0  0
    3.4708   -2.3700    3.6280 C   0  0  0  0  0  0  0  0  0  0  0  0
    2.6391   -2.9641    3.9848 H   0  0  0  0  0  0  0  0  0  0  0  0
    3.6907   -1.9872    2.2951 C   0  0  0  0  0  0  0  0  0  0  0  0
    3.0492   -2.2122    1.4530 H   0  0  0  0  0  0  0  0  0  0  0  0
    4.9304   -1.3207    2.2307 C   0  0  0  0  0  0  0  0  0  0  0  0
    5.4208   -0.9999    1.3222 H   0  0  0  0  0  0  0  0  0  0  0  0
    5.4833   -1.3097    3.5272 C   0  0  0  0  0  0  0  0  0  0  0  0
    6.4979   -1.0321    3.7834 H   0  0  0  0  0  0  0  0  0  0  0  0
    5.1708    3.0943    1.9409 C   0  0  0  0  0  0  0  0  0  0  0  0
    5.6282    1.9521    1.0251 C   0  0  0  0  0  0  0  0  0  0  0  0
    6.4036    1.3553    1.5027 H   0  0  0  0  0  0  0  0  0  0  0  0
    6.0307    2.3542    0.0973 H   0  0  0  0  0  0  0  0  0  0  0  0
    4.7757    1.3151    0.7873 H   0  0  0  0  0  0  0  0  0  0  0  0
    4.1274    3.9291    1.1944 C   0  0  0  0  0  0  0  0  0  0  0  0
    3.8338    4.7969    1.7798 H   0  0  0  0  0  0  0  0  0  0  0  0
    3.2456    3.3274    0.9859 H   0  0  0  0  0  0  0  0  0  0  0  0
    4.5378    4.2800    0.2498 H   0  0  0  0  0  0  0  0  0  0  0  0
    6.3728    3.9822    2.3002 C   0  0  0  0  0  0  0  0  0  0  0  0
    6.0644    4.7796    2.9723 H   0  0  0  0  0  0  0  0  0  0  0  0
    6.7914    4.4288    1.4009 H   0  0  0  0  0  0  0  0  0  0  0  0
    7.1499    3.4023    2.7924 H   0  0  0  0  0  0  0  0  0  0  0  0
    3.5334    0.8940    8.1543 C   0  0  0  0  0  0  0  0  0  0  0  0
    3.7651    0.3735    9.0782 H   0  0  0  0  0  0  0  0  0  0  0  0
    2.6247    0.4579    7.7474 H   0  0  0  0  0  0  0  0  0  0  0  0
    3.3259    1.9295    8.4027 H   0  0  0  0  0  0  0  0  0  0  0  0
    6.5473    1.6542    7.4697 C   0  0  0  0  0  0  0  0  0  0  0  0
    6.8644    1.3067    8.4466 H   0  0  0  0  0  0  0  0  0  0  0  0
    6.3762    2.7230    7.5357 H   0  0  0  0  0  0  0  0  0  0  0  0
    7.3709    1.4915    6.7817 H   0  0  0  0  0  0  0  0  0  0  0  0
    3.3690   -2.8934    7.1467 C   0  0  0  0  0  0  0  0  0  0  0  0
    3.5120   -2.8469    8.2218 H   0  0  0  0  0  0  0  0  0  0  0  0
    3.1365   -3.9220    6.8907 H   0  0  0  0  0  0  0  0  0  0  0  0
    2.5044   -2.2836    6.8992 H   0  0  0  0  0  0  0  0  0  0  0  0
    6.4145   -3.4422    6.4392 C   0  0  0  0  0  0  0  0  0  0  0  0
    6.6592   -3.5649    7.4884 H   0  0  0  0  0  0  0  0  0  0  0  0
    7.2969   -3.0564    5.9391 H   0  0  0  0  0  0  0  0  0  0  0  0
    6.2038   -4.4243    6.0306 H   0  0  0  0  0  0  0  0  0  0  0  0
  1 15  1  0  0  0  0
  1  5  1  0  0  0  0
  1  7  1  0  0  0  0
  2 41  1  0  0  0  0
  2 37  1  0  0  0  0
  3 49  1  0  0  0  0
  3  6  1  0  0  0  0
  3 45  1  0  0  0  0
  4  1  1  0  0  0  0
  6  2  1  0  0  0  0
  7 13  1  6  0  0  0
  7  2  1  0  0  0  0
  8  7  1  0  0  0  0
  8  9  1  0  0  0  0
 10  8  2  0  0  0  0
 11 10  1  0  0  0  0
 12 10  1  0  0  0  0
 12 13  2  0  0  0  0
 14 13  1  0  0  0  0
 15 22  1  6  0  0  0
 15  3  1  0  0  0  0
 16 17  1  0  0  0  0
 16 15  1  0  0  0  0
 18 16  2  0  0  0  0
 19 18  1  0  0  0  0
 20 18  1  0  0  0  0
 20 22  2  0  0  0  0
 21 20  1  0  0  0  0
 22 23  1  0  0  0  0
 24 33  1  0  0  0  0
 24 12  1  0  0  0  0
 25 26  1  0  0  0  0
 25 24  1  0  0  0  0
 27 25  1  0  0  0  0
 28 25  1  0  0  0  0
 29 30  1  0  0  0  0
 29 24  1  0  0  0  0
 31 29  1  0  0  0  0
 32 29  1  0  0  0  0
 33 36  1  0  0  0  0
 33 34  1  0  0  0  0
 35 33  1  0  0  0  0
 37 40  1  0  0  0  0
 37 38  1  0  0  0  0
 39 37  1  0  0  0  0
 41 43  1  0  0  0  0
 41 42  1  0  0  0  0
 44 41  1  0  0  0  0
 45 46  1  0  0  0  0
 47 45  1  0  0  0  0
 48 45  1  0  0  0  0
 49 50  1  0  0  0  0
 51 49  1  0  0  0  0
 52 49  1  0  0  0  0
M  END
$$$$
