CSD_code = WUZHOQ | q = 0 | S = 0 | Stoichiometry = C19H32Cl3NO2Ti | MND = 6
 OpenBabel04212202113D

 58 59  0  0  0  0  0  0  0  0999 V2000
    9.0726    7.1888    3.0149 Ti  0  0  0  0  0  0  0  0  0  0  0  0
    7.9557    6.0893    1.3041 Cl  0  0  0  0  0  0  0  0  0  0  0  0
    9.1581    5.5507    4.4972 Cl  0  0  0  0  0  0  0  0  0  0  0  0
    9.6997    8.8355    4.4446 Cl  0  0  0  0  0  0  0  0  0  0  0  0
    7.1665    7.5754    3.7060 O   0  0  0  0  0  0  0  0  0  0  0  0
    6.6096    8.8872    3.6317 C   0  0  0  0  0  0  0  0  0  0  0  0
    6.5936    9.4209    2.1962 C   0  0  0  0  0  0  0  0  0  0  0  0
    7.9612    9.9521    1.7674 C   0  0  0  0  0  0  0  0  0  0  0  0
    8.9106    8.8720    1.5021 N   0  0  0  0  0  4  0  0  0  0  0  0
   10.2336    9.4279    1.1635 C   0  0  0  0  0  0  0  0  0  0  0  0
   11.1834    8.4026    0.5977 C   0  0  0  0  0  0  0  0  0  0  0  0
   11.9355    8.6731   -0.5335 C   0  0  0  0  0  0  0  0  0  0  0  0
   12.8668    7.7618   -1.0091 C   0  0  0  0  0  0  0  0  0  0  0  0
   13.0276    6.5690   -0.3072 C   0  0  0  0  0  0  0  0  0  0  0  0
   12.3000    6.2464    0.8259 C   0  0  0  0  0  0  0  0  0  0  0  0
   11.3475    7.1830    1.2747 C   0  0  0  0  0  0  0  0  0  0  0  0
   10.5695    6.9651    2.3192 O   0  0  0  0  0  0  0  0  0  0  0  0
   12.4866    4.9420    1.5889 C   0  0  0  0  0  0  0  0  0  0  0  0
   12.8467    5.2567    3.0495 C   0  0  0  0  0  0  0  0  0  0  0  0
   13.0127    4.3311    3.5964 H   0  0  0  0  0  0  0  0  0  0  0  0
   13.7548    5.8559    3.0941 H   0  0  0  0  0  0  0  0  0  0  0  0
   12.0444    5.8033    3.5479 H   0  0  0  0  0  0  0  0  0  0  0  0
   11.1792    4.1377    1.5334 C   0  0  0  0  0  0  0  0  0  0  0  0
   11.3127    3.1778    2.0280 H   0  0  0  0  0  0  0  0  0  0  0  0
   10.3690    4.6670    2.0384 H   0  0  0  0  0  0  0  0  0  0  0  0
   10.8858    3.9603    0.4999 H   0  0  0  0  0  0  0  0  0  0  0  0
   13.6051    4.0756    1.0007 C   0  0  0  0  0  0  0  0  0  0  0  0
   13.7079    3.1723    1.5980 H   0  0  0  0  0  0  0  0  0  0  0  0
   14.5585    4.5992    1.0182 H   0  0  0  0  0  0  0  0  0  0  0  0
   13.3760    3.7761   -0.0195 H   0  0  0  0  0  0  0  0  0  0  0  0
   13.7566    5.8636   -0.6659 H   0  0  0  0  0  0  0  0  0  0  0  0
   13.7205    8.0191   -2.2416 C   0  0  0  0  0  0  0  0  0  0  0  0
   13.4069    9.3634   -2.9040 C   0  0  0  0  0  0  0  0  0  0  0  0
   14.0378    9.4900   -3.7813 H   0  0  0  0  0  0  0  0  0  0  0  0
   13.6066   10.1901   -2.2264 H   0  0  0  0  0  0  0  0  0  0  0  0
   12.3697    9.4069   -3.2279 H   0  0  0  0  0  0  0  0  0  0  0  0
   15.1997    8.0227   -1.8304 C   0  0  0  0  0  0  0  0  0  0  0  0
   15.8277    8.2313   -2.6938 H   0  0  0  0  0  0  0  0  0  0  0  0
   15.3787    8.7886   -1.0790 H   0  0  0  0  0  0  0  0  0  0  0  0
   15.4980    7.0638   -1.4167 H   0  0  0  0  0  0  0  0  0  0  0  0
   13.4683    6.9098   -3.2723 C   0  0  0  0  0  0  0  0  0  0  0  0
   14.0552    7.0933   -4.1697 H   0  0  0  0  0  0  0  0  0  0  0  0
   13.7427    5.9344   -2.8817 H   0  0  0  0  0  0  0  0  0  0  0  0
   12.4160    6.8833   -3.5464 H   0  0  0  0  0  0  0  0  0  0  0  0
   11.7844    9.6188   -1.0285 H   0  0  0  0  0  0  0  0  0  0  0  0
   10.6576    9.8448    2.0889 H   0  0  0  0  0  0  0  0  0  0  0  0
   10.1195   10.2455    0.4343 H   0  0  0  0  0  0  0  0  0  0  0  0
    8.3784   10.5753    2.5666 H   0  0  0  0  0  0  0  0  0  0  0  0
    7.8402   10.5785    0.8682 H   0  0  0  0  0  0  0  0  0  0  0  0
    5.8682   10.2336    2.1333 H   0  0  0  0  0  0  0  0  0  0  0  0
    6.2785    8.6225    1.5153 H   0  0  0  0  0  0  0  0  0  0  0  0
    7.2378    9.5294    4.2629 H   0  0  0  0  0  0  0  0  0  0  0  0
    5.5938    8.8677    4.0422 H   0  0  0  0  0  0  0  0  0  0  0  0
    6.1689    6.5596    3.7616 C   0  0  0  0  0  0  0  0  0  0  0  0
    6.6823    5.6016    3.8727 H   0  0  0  0  0  0  0  0  0  0  0  0
    5.5219    6.7235    4.6313 H   0  0  0  0  0  0  0  0  0  0  0  0
    5.5703    6.5431    2.8442 H   0  0  0  0  0  0  0  0  0  0  0  0
    8.5758    8.3440    0.6867 H   0  0  0  0  0  0  0  0  0  0  0  0
  1  4  1  0  0  0  0
  1  3  1  0  0  0  0
  2  1  1  0  0  0  0
  5 54  1  0  0  0  0
  6  5  1  0  0  0  0
  6 53  1  0  0  0  0
  6 52  1  0  0  0  0
  7  6  1  0  0  0  0
  8  7  1  0  0  0  0
  8 48  1  0  0  0  0
  9  8  1  0  0  0  0
  9  1  1  0  0  0  0
 10  9  1  0  0  0  0
 10 46  1  0  0  0  0
 11 10  1  0  0  0  0
 11 16  1  0  0  0  0
 12 11  2  0  0  0  0
 13 12  1  0  0  0  0
 13 14  2  0  0  0  0
 14 15  1  0  0  0  0
 15 16  2  0  0  0  0
 15 18  1  0  0  0  0
 16 17  1  0  0  0  0
 17  1  1  0  0  0  0
 18 19  1  0  0  0  0
 19 21  1  0  0  0  0
 19 22  1  0  0  0  0
 19 20  1  0  0  0  0
 23 18  1  0  0  0  0
 23 24  1  0  0  0  0
 23 25  1  0  0  0  0
 26 23  1  0  0  0  0
 27 29  1  0  0  0  0
 27 18  1  0  0  0  0
 27 28  1  0  0  0  0
 30 27  1  0  0  0  0
 31 14  1  0  0  0  0
 32 37  1  0  0  0  0
 32 13  1  0  0  0  0
 33 32  1  0  0  0  0
 33 35  1  0  0  0  0
 34 33  1  0  0  0  0
 36 33  1  0  0  0  0
 37 40  1  0  0  0  0
 37 39  1  0  0  0  0
 38 37  1  0  0  0  0
 41 43  1  0  0  0  0
 41 32  1  0  0  0  0
 42 41  1  0  0  0  0
 44 41  1  0  0  0  0
 45 12  1  0  0  0  0
 47 10  1  0  0  0  0
 49  8  1  0  0  0  0
 50  7  1  0  0  0  0
 51  7  1  0  0  0  0
 54 55  1  0  0  0  0
 54 56  1  0  0  0  0
 57 54  1  0  0  0  0
 58  9  1  0  0  0  0
M  END
$$$$
