CSD_code = WUZQUE | q = 0 | S = 0 | Stoichiometry = C22H21Cl2N3NiO | MND = 5
 OpenBabel04212202113D

 50 53  0  0  0  0  0  0  0  0999 V2000
    2.3611    9.7408    2.8437 Ni  0  0  0  0  0  0  0  0  0  0  0  0
    0.9524   11.3609    3.0483 Cl  0  0  0  0  0  0  0  0  0  0  0  0
    3.9881    8.3704    2.6660 Cl  0  0  0  0  0  0  0  0  0  0  0  0
    2.2955    9.5726    4.8299 O   0  0  0  0  0  0  0  0  0  0  0  0
    0.7529    8.3021    2.0400 N   0  0  0  0  0  0  0  0  0  0  0  0
    2.5694   10.0870    1.0578 N   0  0  0  0  0  0  0  0  0  0  0  0
    0.1675    7.5098    0.0783 N   0  0  0  0  0  0  0  0  0  0  0  0
    0.1031    7.3795   -0.9177 H   0  0  0  0  0  0  0  0  0  0  0  0
    1.8629    9.3662    0.1689 C   0  0  0  0  0  0  0  0  0  0  0  0
    3.6354   11.2395   -0.7146 C   0  0  0  0  0  0  0  0  0  0  0  0
    4.3489   11.9844   -1.0283 H   0  0  0  0  0  0  0  0  0  0  0  0
   -1.5429    5.8142    0.6414 C   0  0  0  0  0  0  0  0  0  0  0  0
   -0.1781    7.3421    2.2395 C   0  0  0  0  0  0  0  0  0  0  0  0
   -0.5655    6.8223    1.0087 C   0  0  0  0  0  0  0  0  0  0  0  0
    2.9106   10.5160   -1.6455 C   0  0  0  0  0  0  0  0  0  0  0  0
    3.0457   10.6902   -2.7019 H   0  0  0  0  0  0  0  0  0  0  0  0
    2.0141    9.5622   -1.2018 C   0  0  0  0  0  0  0  0  0  0  0  0
    1.4370    8.9807   -1.9030 H   0  0  0  0  0  0  0  0  0  0  0  0
    0.9488    8.4027    0.7373 C   0  0  0  0  0  0  0  0  0  0  0  0
   -0.7854    8.0655    4.4992 C   0  0  0  0  0  0  0  0  0  0  0  0
   -0.6288    9.0797    4.1599 H   0  0  0  0  0  0  0  0  0  0  0  0
   -3.4288    3.8931   -0.0751 C   0  0  0  0  0  0  0  0  0  0  0  0
   -4.1585    3.1469   -0.3513 H   0  0  0  0  0  0  0  0  0  0  0  0
   -0.6100    7.0196    3.5949 C   0  0  0  0  0  0  0  0  0  0  0  0
    3.4492   10.9999    0.6426 C   0  0  0  0  0  0  0  0  0  0  0  0
   -1.3476    5.0131   -0.4846 C   0  0  0  0  0  0  0  0  0  0  0  0
   -0.4457    5.1162   -1.0719 H   0  0  0  0  0  0  0  0  0  0  0  0
   -2.7018    5.6421    1.3997 C   0  0  0  0  0  0  0  0  0  0  0  0
   -2.8684    6.2695    2.2616 H   0  0  0  0  0  0  0  0  0  0  0  0
   -1.1700    7.8007    5.8008 C   0  0  0  0  0  0  0  0  0  0  0  0
   -1.3123    8.6146    6.4974 H   0  0  0  0  0  0  0  0  0  0  0  0
   -1.3757    6.4936    6.2122 C   0  0  0  0  0  0  0  0  0  0  0  0
   -1.6743    6.2870    7.2294 H   0  0  0  0  0  0  0  0  0  0  0  0
   -3.6333    4.6873    1.0421 C   0  0  0  0  0  0  0  0  0  0  0  0
   -4.5266    4.5641    1.6361 H   0  0  0  0  0  0  0  0  0  0  0  0
   -2.2841    4.0596   -0.8364 C   0  0  0  0  0  0  0  0  0  0  0  0
   -2.1181    3.4416   -1.7065 H   0  0  0  0  0  0  0  0  0  0  0  0
   -1.1942    5.4506    5.3179 C   0  0  0  0  0  0  0  0  0  0  0  0
   -1.3465    4.4310    5.6403 H   0  0  0  0  0  0  0  0  0  0  0  0
    2.5356    8.4416    5.6463 C   0  0  0  0  0  0  0  0  0  0  0  0
    2.7316    8.7627    6.6744 H   0  0  0  0  0  0  0  0  0  0  0  0
    3.4179    7.9424    5.2476 H   0  0  0  0  0  0  0  0  0  0  0  0
    1.6922    7.7454    5.6324 H   0  0  0  0  0  0  0  0  0  0  0  0
   -0.8132    5.7078    4.0139 C   0  0  0  0  0  0  0  0  0  0  0  0
   -0.6605    4.8945    3.3197 H   0  0  0  0  0  0  0  0  0  0  0  0
    4.2335   11.7118    1.6896 C   0  0  0  0  0  0  0  0  0  0  0  0
    3.5646   12.0448    2.4921 H   0  0  0  0  0  0  0  0  0  0  0  0
    4.7664   12.5652    1.2811 H   0  0  0  0  0  0  0  0  0  0  0  0
    4.9504   11.0102    2.1267 H   0  0  0  0  0  0  0  0  0  0  0  0
    1.4906   10.0321    5.1199 H   0  0  0  0  0  0  0  0  0  0  0  0
  1  2  1  0  0  0  0
  3  1  1  0  0  0  0
  4 50  1  0  0  0  0
  4 40  1  0  0  0  0
  5 13  1  0  0  0  0
  5  1  1  0  0  0  0
  6  1  1  0  0  0  0
  7 19  1  0  0  0  0
  7 14  1  0  0  0  0
  8  7  1  0  0  0  0
  9 19  2  0  0  0  0
  9  6  1  0  0  0  0
 10 25  2  0  0  0  0
 11 10  1  0  0  0  0
 12 14  1  0  0  0  0
 12 28  1  0  0  0  0
 13 24  1  0  0  0  0
 14 13  2  0  0  0  0
 15 17  2  0  0  0  0
 15 10  1  0  0  0  0
 16 15  1  0  0  0  0
 17  9  1  0  0  0  0
 18 17  1  0  0  0  0
 19  5  1  0  0  0  0
 20 30  1  0  0  0  0
 21 20  1  0  0  0  0
 22 34  1  0  0  0  0
 23 22  1  0  0  0  0
 24 44  1  0  0  0  0
 24 20  2  0  0  0  0
 25  6  1  0  0  0  0
 25 46  1  0  0  0  0
 26 12  2  0  0  0  0
 27 26  1  0  0  0  0
 28 29  1  0  0  0  0
 30 32  2  0  0  0  0
 30 31  1  0  0  0  0
 32 33  1  0  0  0  0
 34 28  2  0  0  0  0
 34 35  1  0  0  0  0
 36 26  1  0  0  0  0
 36 22  2  0  0  0  0
 37 36  1  0  0  0  0
 38 39  1  0  0  0  0
 38 32  1  0  0  0  0
 40 41  1  0  0  0  0
 42 40  1  0  0  0  0
 43 40  1  0  0  0  0
 44 38  2  0  0  0  0
 45 44  1  0  0  0  0
 46 49  1  0  0  0  0
 46 47  1  0  0  0  0
 48 46  1  0  0  0  0
M  END
$$$$
