CSD_code = WUZREP | q = 0 | S = 0 | Stoichiometry = C21H15Cl2N3Ni | MND = 4
 OpenBabel04212202113D

 42 47  0  0  0  0  0  0  0  0999 V2000
    3.4147    7.0780    1.1857 Ni  0  0  0  0  0  0  0  0  0  0  0  0
    3.2717    8.6404    2.4999 Cl  0  0  0  0  0  0  0  0  0  0  0  0
    1.8518    6.1006    1.9598 Cl  0  0  0  0  0  0  0  0  0  0  0  0
    4.5585    8.0951   -0.1476 N   0  0  0  0  0  0  0  0  0  0  0  0
    5.4470    6.1055    1.4771 N   0  0  0  0  0  0  0  0  0  0  0  0
    7.5609    6.2692    0.8279 N   0  0  0  0  0  0  0  0  0  0  0  0
    7.5188    5.2958    1.7848 C   0  0  0  0  0  0  0  0  0  0  0  0
    9.1565    2.7124    3.8406 C   0  0  0  0  0  0  0  0  0  0  0  0
    8.9158    1.9818    4.5956 H   0  0  0  0  0  0  0  0  0  0  0  0
    6.1852    5.2123    2.1838 C   0  0  0  0  0  0  0  0  0  0  0  0
    6.2906    6.7376    0.6756 C   0  0  0  0  0  0  0  0  0  0  0  0
    5.8656    7.7927   -0.2171 C   0  0  0  0  0  0  0  0  0  0  0  0
    5.7776    4.3036    3.2050 C   0  0  0  0  0  0  0  0  0  0  0  0
    6.7691    3.4638    3.7679 C   0  0  0  0  0  0  0  0  0  0  0  0
    6.7239    8.4599   -1.0887 C   0  0  0  0  0  0  0  0  0  0  0  0
    7.7700    8.2026   -1.1411 H   0  0  0  0  0  0  0  0  0  0  0  0
    9.8742    4.5516    1.9024 C   0  0  0  0  0  0  0  0  0  0  0  0
   10.1495    5.2712    1.1439 H   0  0  0  0  0  0  0  0  0  0  0  0
    8.5406    4.4711    2.3236 C   0  0  0  0  0  0  0  0  0  0  0  0
    4.8592    9.7663   -1.8034 C   0  0  0  0  0  0  0  0  0  0  0  0
    4.4267   10.5445   -2.4117 H   0  0  0  0  0  0  0  0  0  0  0  0
    4.4536    4.2580    3.6483 C   0  0  0  0  0  0  0  0  0  0  0  0
    3.7384    4.9340    3.2017 H   0  0  0  0  0  0  0  0  0  0  0  0
   10.4618    2.8010    3.4151 C   0  0  0  0  0  0  0  0  0  0  0  0
   11.2092    2.1477    3.8401 H   0  0  0  0  0  0  0  0  0  0  0  0
    6.2064    9.4639   -1.8882 C   0  0  0  0  0  0  0  0  0  0  0  0
    6.8477   10.0028   -2.5693 H   0  0  0  0  0  0  0  0  0  0  0  0
    4.0530    9.0556   -0.9164 C   0  0  0  0  0  0  0  0  0  0  0  0
    8.1507    3.5383    3.3193 C   0  0  0  0  0  0  0  0  0  0  0  0
    2.5960    9.3445   -0.7803 C   0  0  0  0  0  0  0  0  0  0  0  0
    2.0914    8.5037   -0.2832 H   0  0  0  0  0  0  0  0  0  0  0  0
    2.1368    9.5305   -1.7481 H   0  0  0  0  0  0  0  0  0  0  0  0
    2.4606   10.2243   -0.1517 H   0  0  0  0  0  0  0  0  0  0  0  0
   10.8293    3.7259    2.4416 C   0  0  0  0  0  0  0  0  0  0  0  0
   11.8560    3.7904    2.1141 H   0  0  0  0  0  0  0  0  0  0  0  0
    6.3512    2.5796    4.7734 C   0  0  0  0  0  0  0  0  0  0  0  0
    7.0599    1.9149    5.2413 H   0  0  0  0  0  0  0  0  0  0  0  0
    4.0844    3.3794    4.6373 C   0  0  0  0  0  0  0  0  0  0  0  0
    3.0621    3.3449    4.9807 H   0  0  0  0  0  0  0  0  0  0  0  0
    5.0417    2.5358    5.1952 C   0  0  0  0  0  0  0  0  0  0  0  0
    4.7570    1.8419    5.9728 H   0  0  0  0  0  0  0  0  0  0  0  0
    8.3824    6.5940    0.3471 H   0  0  0  0  0  0  0  0  0  0  0  0
  1  5  1  0  0  0  0
  1  3  1  0  0  0  0
  1  2  1  0  0  0  0
  4  1  1  0  0  0  0
  5 10  1  0  0  0  0
  6  7  1  0  0  0  0
  7 10  2  0  0  0  0
  7 19  1  0  0  0  0
  8  9  1  0  0  0  0
 10 13  1  0  0  0  0
 11  6  1  0  0  0  0
 11  5  1  0  0  0  0
 12  4  1  0  0  0  0
 12 11  2  0  0  0  0
 13 22  2  0  0  0  0
 13 14  1  0  0  0  0
 14 36  2  0  0  0  0
 15 12  1  0  0  0  0
 16 15  1  0  0  0  0
 17 19  2  0  0  0  0
 17 34  1  0  0  0  0
 18 17  1  0  0  0  0
 19 29  1  0  0  0  0
 20 28  2  0  0  0  0
 21 20  1  0  0  0  0
 22 38  1  0  0  0  0
 23 22  1  0  0  0  0
 24 25  1  0  0  0  0
 24  8  1  0  0  0  0
 26 20  1  0  0  0  0
 26 15  2  0  0  0  0
 27 26  1  0  0  0  0
 28 30  1  0  0  0  0
 28  4  1  0  0  0  0
 29 14  1  0  0  0  0
 29  8  2  0  0  0  0
 30 31  1  0  0  0  0
 30 33  1  0  0  0  0
 32 30  1  0  0  0  0
 34 24  2  0  0  0  0
 35 34  1  0  0  0  0
 36 40  1  0  0  0  0
 36 37  1  0  0  0  0
 38 39  1  0  0  0  0
 38 40  2  0  0  0  0
 40 41  1  0  0  0  0
 42  6  1  0  0  0  0
M  END
$$$$
