CSD_code = WUZSEP | q = 0 | S = 0 | Stoichiometry = C24H16Cl2N2Pt | MND = 4
 OpenBabel04212202113D

 45 50  0  0  0  0  0  0  0  0999 V2000
    9.2055   -2.3605    1.0045 C   0  0  0  0  0  0  0  0  0  0  0  0
    9.4802   -2.2408    2.0446 H   0  0  0  0  0  0  0  0  0  0  0  0
    8.7698   -3.5790    0.5016 C   0  0  0  0  0  0  0  0  0  0  0  0
    8.6918   -4.4248    1.1666 H   0  0  0  0  0  0  0  0  0  0  0  0
    8.4061   -3.7127   -0.8313 C   0  0  0  0  0  0  0  0  0  0  0  0
    8.5330   -2.5723   -1.6605 C   0  0  0  0  0  0  0  0  0  0  0  0
    8.3042   -2.5673   -3.0663 C   0  0  0  0  0  0  0  0  0  0  0  0
    8.0443   -3.4992   -3.5443 H   0  0  0  0  0  0  0  0  0  0  0  0
    8.4340   -1.4370   -3.8058 C   0  0  0  0  0  0  0  0  0  0  0  0
    8.2781   -1.4683   -4.8731 H   0  0  0  0  0  0  0  0  0  0  0  0
    8.8068   -0.1953   -3.2159 C   0  0  0  0  0  0  0  0  0  0  0  0
    8.9500    1.0199   -3.9281 C   0  0  0  0  0  0  0  0  0  0  0  0
    9.4306    2.1187   -3.2293 C   0  0  0  0  0  0  0  0  0  0  0  0
    9.5594    3.0625   -3.7356 H   0  0  0  0  0  0  0  0  0  0  0  0
    9.7185    2.0329   -1.8739 C   0  0  0  0  0  0  0  0  0  0  0  0
   10.0809    2.8863   -1.3154 H   0  0  0  0  0  0  0  0  0  0  0  0
    8.9736   -1.3741   -1.0635 C   0  0  0  0  0  0  0  0  0  0  0  0
    9.1113   -0.1881   -1.8399 C   0  0  0  0  0  0  0  0  0  0  0  0
    7.9067   -4.9987   -1.3333 C   0  0  0  0  0  0  0  0  0  0  0  0
    8.6198   -6.1680   -1.0781 C   0  0  0  0  0  0  0  0  0  0  0  0
    9.5546   -6.1129   -0.5398 H   0  0  0  0  0  0  0  0  0  0  0  0
    8.1513   -7.3860   -1.5339 C   0  0  0  0  0  0  0  0  0  0  0  0
    8.7173   -8.2845   -1.3395 H   0  0  0  0  0  0  0  0  0  0  0  0
    6.9592   -7.4547   -2.2360 C   0  0  0  0  0  0  0  0  0  0  0  0
    6.5929   -8.4069   -2.5886 H   0  0  0  0  0  0  0  0  0  0  0  0
    6.2353   -6.2991   -2.4790 C   0  0  0  0  0  0  0  0  0  0  0  0
    5.2991   -6.3503   -3.0146 H   0  0  0  0  0  0  0  0  0  0  0  0
    6.7051   -5.0770   -2.0345 C   0  0  0  0  0  0  0  0  0  0  0  0
    6.1255   -4.1807   -2.2023 H   0  0  0  0  0  0  0  0  0  0  0  0
    8.6000    1.1439   -5.3482 C   0  0  0  0  0  0  0  0  0  0  0  0
    9.5017    1.7184   -6.2410 C   0  0  0  0  0  0  0  0  0  0  0  0
   10.4704    2.0379   -5.8858 H   0  0  0  0  0  0  0  0  0  0  0  0
    9.1726    1.8531   -7.5768 C   0  0  0  0  0  0  0  0  0  0  0  0
    9.8826    2.2909   -8.2623 H   0  0  0  0  0  0  0  0  0  0  0  0
    7.9355    1.4313   -8.0351 C   0  0  0  0  0  0  0  0  0  0  0  0
    7.6783    1.5408   -9.0778 H   0  0  0  0  0  0  0  0  0  0  0  0
    7.0263    0.8751   -7.1508 C   0  0  0  0  0  0  0  0  0  0  0  0
    6.0561    0.5563   -7.5015 H   0  0  0  0  0  0  0  0  0  0  0  0
    7.3549    0.7280   -5.8159 C   0  0  0  0  0  0  0  0  0  0  0  0
    6.6346    0.3176   -5.1229 H   0  0  0  0  0  0  0  0  0  0  0  0
    9.2978   -1.2752    0.2496 N   0  0  0  0  0  0  0  0  0  0  0  0
    9.5531    0.9135   -1.1841 N   0  0  0  0  0  0  0  0  0  0  0  0
   10.5211    2.6664    1.1819 Cl  0  0  0  0  0  0  0  0  0  0  0  0
   10.2138    0.0382    2.9005 Cl  0  0  0  0  0  0  0  0  0  0  0  0
    9.8839    0.5684    0.7578 Pt  0  0  0  0  0  0  0  0  0  0  0  0
  1  2  1  0  0  0  0
  3  1  2  0  0  0  0
  3  4  1  0  0  0  0
  5  3  1  0  0  0  0
  6 17  1  0  0  0  0
  6  5  2  0  0  0  0
  7  6  1  0  0  0  0
  8  7  1  0  0  0  0
  9 11  1  0  0  0  0
  9  7  2  0  0  0  0
 10  9  1  0  0  0  0
 11 18  1  0  0  0  0
 12 13  1  0  0  0  0
 12 11  2  0  0  0  0
 13 15  2  0  0  0  0
 14 13  1  0  0  0  0
 15 16  1  0  0  0  0
 15 42  1  0  0  0  0
 17 41  1  0  0  0  0
 18 42  1  0  0  0  0
 18 17  2  0  0  0  0
 19 20  1  0  0  0  0
 19  5  1  0  0  0  0
 20 21  1  0  0  0  0
 22 23  1  0  0  0  0
 22 20  2  0  0  0  0
 24 22  1  0  0  0  0
 25 24  1  0  0  0  0
 26 24  2  0  0  0  0
 26 28  1  0  0  0  0
 27 26  1  0  0  0  0
 28 19  2  0  0  0  0
 29 28  1  0  0  0  0
 30 12  1  0  0  0  0
 31 32  1  0  0  0  0
 31 30  2  0  0  0  0
 33 31  1  0  0  0  0
 34 33  1  0  0  0  0
 35 33  2  0  0  0  0
 35 37  1  0  0  0  0
 36 35  1  0  0  0  0
 37 39  2  0  0  0  0
 38 37  1  0  0  0  0
 39 30  1  0  0  0  0
 39 40  1  0  0  0  0
 41 45  1  0  0  0  0
 41  1  1  0  0  0  0
 42 45  1  0  0  0  0
 45 43  1  0  0  0  0
 45 44  1  0  0  0  0
M  END
$$$$
