CSD_code = XABTUR | q = 0 | S = 0 | Stoichiometry = C8H12BrO2ReS3 | MND = 6
 OpenBabel04212202113D

 27 29  0  0  0  0  0  0  0  0999 V2000
    0.4294   11.6271    3.9276 Re  0  0  0  0  0  0  0  0  0  0  0  0
   -1.2207   11.8288    1.9893 Br  0  0  0  0  0  0  0  0  0  0  0  0
   -0.5725   10.2358    4.8117 C   0  0  0  0  0  2  0  0  0  0  0  0
   -0.4871   12.9297    5.0152 C   0  0  0  0  0  2  0  0  0  0  0  0
    3.1184    9.8470    4.7832 C   0  0  0  0  0  0  0  0  0  0  0  0
    4.1075    9.7683    5.2366 H   0  0  0  0  0  0  0  0  0  0  0  0
    2.4600    9.0954    5.2214 H   0  0  0  0  0  0  0  0  0  0  0  0
    3.1839    9.6801    3.2789 C   0  0  0  0  0  0  0  0  0  0  0  0
    3.3993    8.6383    3.0357 H   0  0  0  0  0  0  0  0  0  0  0  0
    3.9559   10.3043    2.8284 H   0  0  0  0  0  0  0  0  0  0  0  0
    2.1098   11.1415    1.0991 C   0  0  0  0  0  0  0  0  0  0  0  0
    2.8026   10.5586    0.4901 H   0  0  0  0  0  0  0  0  0  0  0  0
    1.1861   11.3073    0.5387 H   0  0  0  0  0  0  0  0  0  0  0  0
    2.7192   12.4647    1.5152 C   0  0  0  0  0  0  0  0  0  0  0  0
    2.7639   13.1344    0.6552 H   0  0  0  0  0  0  0  0  0  0  0  0
    3.7256   12.3503    1.9201 H   0  0  0  0  0  0  0  0  0  0  0  0
    2.9571   13.7984    4.0048 C   0  0  0  0  0  0  0  0  0  0  0  0
    3.6977   14.4186    3.4967 H   0  0  0  0  0  0  0  0  0  0  0  0
    2.4008   14.4125    4.7153 H   0  0  0  0  0  0  0  0  0  0  0  0
    3.6182   12.6369    4.7196 C   0  0  0  0  0  0  0  0  0  0  0  0
    4.1610   12.9984    5.5934 H   0  0  0  0  0  0  0  0  0  0  0  0
    4.3152   12.1010    4.0761 H   0  0  0  0  0  0  0  0  0  0  0  0
   -1.1325    9.3787    5.3338 O   0  0  0  0  0  1  0  0  0  0  0  0
   -0.9968   13.7355    5.6568 O   0  0  0  0  0  1  0  0  0  0  0  0
    1.5733   10.0862    2.4842 S   0  0  2  0  0  3  0  0  0  0  0  0
    2.3801   11.4223    5.3620 S   0  0  1  0  0  3  0  0  0  0  0  0
    1.6913   13.3165    2.7818 S   0  0  2  0  0  3  0  0  0  0  0  0
  1  3  1  0  0  0  0
  1  4  1  0  0  0  0
  1 26  1  0  0  0  0
  2  1  1  0  0  0  0
  3 23  1  0  0  0  0
  4 24  1  0  0  0  0
  5  7  1  0  0  0  0
  5  6  1  0  0  0  0
  5 26  1  0  0  0  0
  8  5  1  0  0  0  0
  9  8  1  0  0  0  0
 10  8  1  0  0  0  0
 11 14  1  0  0  0  0
 12 11  1  0  0  0  0
 13 11  1  0  0  0  0
 14 16  1  0  0  0  0
 15 14  1  0  0  0  0
 17 19  1  0  0  0  0
 17 20  1  0  0  0  0
 18 17  1  0  0  0  0
 20 21  1  0  0  0  0
 22 20  1  0  0  0  0
 25 11  1  6  0  0  0
 25  8  1  0  0  0  0
 25  1  1  0  0  0  0
 26 20  1  6  0  0  0
 27 14  1  6  0  0  0
 27  1  1  0  0  0  0
 27 17  1  0  0  0  0
M  END
$$$$
