CSD_code = XABVED | q = -1 | S = 0 | Stoichiometry = C8H8Br2N4O2Re(1-) | MND = 6
 OpenBabel04212202113D

 25 26  0  0  0  0  0  0  0  0999 V2000
    5.3515    4.3267    0.8864 Re  0  0  0  0  0  0  0  0  0  0  0  0
    6.9973    5.2865    1.0979 C   0  0  0  0  0  2  0  0  0  0  0  0
    5.5227    4.4245   -1.0203 C   0  0  0  0  0  2  0  0  0  0  0  0
    2.4398    3.6114    0.0721 C   0  0  0  0  0  3  0  0  0  0  0  0
    2.4049    4.4818   -0.5539 H   0  0  0  0  0  0  0  0  0  0  0  0
    1.8126    1.7896    1.1066 C   0  0  0  0  0  0  0  0  0  0  0  0
    1.1776    0.9816    1.4077 H   0  0  0  0  0  0  0  0  0  0  0  0
    3.0943    2.1026    1.4432 C   0  0  0  0  0  0  0  0  0  0  0  0
    3.7698    1.5710    2.0859 H   0  0  0  0  0  0  0  0  0  0  0  0
    5.9332    3.6853    3.8705 C   0  0  0  0  0  3  0  0  0  0  0  0
    6.9212    3.3630    3.6044 H   0  0  0  0  0  0  0  0  0  0  0  0
    4.1630    4.1238    5.0774 C   0  0  0  0  0  0  0  0  0  0  0  0
    3.5444    4.2071    5.9476 H   0  0  0  0  0  0  0  0  0  0  0  0
    3.9237    4.4178    3.7697 C   0  0  0  0  0  0  0  0  0  0  0  0
    3.0396    4.8326    3.3245 H   0  0  0  0  0  0  0  0  0  0  0  0
    3.4668    3.2377    0.7917 N   0  0  0  0  0  0  0  0  0  0  0  0
    5.0345    4.1387    3.0346 N   0  0  0  0  0  0  0  0  0  0  0  0
    1.4048    2.7598    0.2328 N   0  0  0  0  0  0  0  0  0  0  0  0
    0.5060    2.8260   -0.2142 H   0  0  0  0  0  0  0  0  0  0  0  0
    5.4473    3.6558    5.1297 N   0  0  0  0  0  0  0  0  0  0  0  0
    5.9426    3.3515    5.9507 H   0  0  0  0  0  0  0  0  0  0  0  0
    7.9982    5.8605    1.2683 O   0  0  0  0  0  1  0  0  0  0  0  0
    5.5855    4.4705   -2.1840 O   0  0  0  0  0  1  0  0  0  0  0  0
    3.8256    6.5000    1.0341 Br  0  0  0  0  0  0  0  0  0  0  0  0
    6.5132    1.9418    1.0749 Br  0  0  0  0  0  0  0  0  0  0  0  0
  1 24  1  0  0  0  0
  1 25  1  0  0  0  0
  1  2  1  0  0  0  0
  1 17  1  0  0  0  0
  2 22  1  0  0  0  0
  3  1  1  0  0  0  0
  4 18  1  0  0  0  0
  4 16  1  0  0  0  0
  5  4  1  0  0  0  0
  6  7  1  0  0  0  0
  6  8  2  0  0  0  0
  8  9  1  0  0  0  0
 10 20  1  0  0  0  0
 11 10  1  0  0  0  0
 12 20  1  0  0  0  0
 12 13  1  0  0  0  0
 14 12  2  0  0  0  0
 15 14  1  0  0  0  0
 16  1  1  0  0  0  0
 16  8  1  0  0  0  0
 17 14  1  0  0  0  0
 17 10  1  0  0  0  0
 18  6  1  0  0  0  0
 19 18  1  0  0  0  0
 20 21  1  0  0  0  0
 23  3  1  0  0  0  0
M  END
$$$$
