CSD_code = XACGAJ | q = 0 | S = 0 | Stoichiometry = C30H22Cl2N4Ni | MND = 6
 OpenBabel04212202113D

 59 66  0  0  1  0  0  0  0  0999 V2000
    6.6584    3.2896    0.1887 Ni  0  0  0  0  0  0  0  0  0  0  0  0
    4.6015    3.0159    0.2862 Cl  0  0  0  0  0  0  0  0  0  0  0  0
    8.7868    3.4131   -0.0104 Cl  0  0  0  0  0  0  0  0  0  0  0  0
    6.5153    3.5549   -1.9244 N   0  0  0  0  0  0  0  0  0  0  0  0
    6.5848    5.4469   -0.0832 N   0  0  0  0  0  0  0  0  0  0  0  0
    6.8766    4.1171    2.1892 N   0  0  0  0  0  0  0  0  0  0  0  0
    6.9327    1.5850    1.4416 N   0  0  0  0  0  0  0  0  0  0  0  0
    6.2880    2.6110   -2.8193 C   0  0  0  0  0  3  0  0  0  0  0  0
    6.2739    2.8599   -4.1836 C   0  0  0  0  0  0  0  0  0  0  0  0
    6.5030    4.1549   -4.6202 C   0  0  0  0  0  0  0  0  0  0  0  0
    6.7203    5.1488   -3.6838 C   0  0  0  0  0  0  0  0  0  0  0  0
    6.7111    4.8192   -2.3293 C   0  0  0  0  0  0  0  0  0  0  0  0
    6.9560    5.7999   -1.2621 C   0  0  2  0  0  3  0  0  0  0  0  0
    7.7403    7.0188   -1.5573 C   0  0  0  0  0  0  0  0  0  0  0  0
    7.2237    8.0652   -2.3150 C   0  0  0  0  0  0  0  0  0  0  0  0
    7.9917    9.1915   -2.5512 C   0  0  0  0  0  0  0  0  0  0  0  0
    9.2754    9.2789   -2.0389 C   0  0  0  0  0  0  0  0  0  0  0  0
    9.7905    8.2396   -1.2817 C   0  0  0  0  0  0  0  0  0  0  0  0
    9.0271    7.1133   -1.0362 C   0  0  0  0  0  0  0  0  0  0  0  0
    6.6157    6.1919    1.0648 C   0  0  0  0  0  0  0  0  0  0  0  0
    6.3752    7.5685    1.1071 C   0  0  0  0  0  0  0  0  0  0  0  0
    6.3140    8.2283    2.3146 C   0  0  0  0  0  0  0  0  0  0  0  0
    6.4761    7.5305    3.5069 C   0  0  0  0  0  0  0  0  0  0  0  0
    6.6971    6.1711    3.4944 C   0  0  0  0  0  0  0  0  0  0  0  0
    6.7772    5.4789    2.2822 C   0  0  0  0  0  0  0  0  0  0  0  0
    7.5049    3.3159    2.9735 C   0  0  2  0  0  3  0  0  0  0  0  0
    8.4863    3.7467    3.9931 C   0  0  0  0  0  0  0  0  0  0  0  0
    9.6552    4.3612    3.5544 C   0  0  0  0  0  0  0  0  0  0  0  0
   10.5995    4.7836    4.4717 C   0  0  0  0  0  0  0  0  0  0  0  0
   10.3820    4.6046    5.8279 C   0  0  0  0  0  0  0  0  0  0  0  0
    9.2152    4.0022    6.2678 C   0  0  0  0  0  0  0  0  0  0  0  0
    8.2681    3.5710    5.3558 C   0  0  0  0  0  0  0  0  0  0  0  0
    7.3394    1.8840    2.6850 C   0  0  2  0  0  3  0  0  0  0  0  0
    7.6169    0.8820    3.6135 C   0  0  0  0  0  0  0  0  0  0  0  0
    7.4466   -0.4404    3.2477 C   0  0  0  0  0  0  0  0  0  0  0  0
    6.9978   -0.7308    1.9691 C   0  0  0  0  0  0  0  0  0  0  0  0
    6.7526    0.3220    1.1005 C   0  0  0  0  0  0  0  0  0  0  0  0
    6.1199    1.6131   -2.4363 H   0  0  0  0  0  0  0  0  0  0  0  0
    6.1038    2.0552   -4.8808 H   0  0  0  0  0  0  0  0  0  0  0  0
    6.5134    4.3879   -5.6746 H   0  0  0  0  0  0  0  0  0  0  0  0
    6.8975    6.1666   -3.9911 H   0  0  0  0  0  0  0  0  0  0  0  0
    6.2115    8.0102   -2.6919 H   0  0  0  0  0  0  0  0  0  0  0  0
    7.5845   10.0043   -3.1349 H   0  0  0  0  0  0  0  0  0  0  0  0
    9.8721   10.1589   -2.2279 H   0  0  0  0  0  0  0  0  0  0  0  0
   10.7906    8.3065   -0.8805 H   0  0  0  0  0  0  0  0  0  0  0  0
    9.4198    6.2902   -0.4573 H   0  0  0  0  0  0  0  0  0  0  0  0
    6.2047    8.1048    0.1868 H   0  0  0  0  0  0  0  0  0  0  0  0
    6.1289    9.2917    2.3341 H   0  0  0  0  0  0  0  0  0  0  0  0
    6.4174    8.0541    4.4493 H   0  0  0  0  0  0  0  0  0  0  0  0
    6.7764    5.6254    4.4215 H   0  0  0  0  0  0  0  0  0  0  0  0
    9.8168    4.4822    2.4932 H   0  0  0  0  0  0  0  0  0  0  0  0
   11.5080    5.2541    4.1265 H   0  0  0  0  0  0  0  0  0  0  0  0
   11.1197    4.9366    6.5434 H   0  0  0  0  0  0  0  0  0  0  0  0
    9.0394    3.8690    7.3253 H   0  0  0  0  0  0  0  0  0  0  0  0
    7.3453    3.1259    5.7024 H   0  0  0  0  0  0  0  0  0  0  0  0
    7.9600    1.1413    4.6018 H   0  0  0  0  0  0  0  0  0  0  0  0
    7.6613   -1.2324    3.9498 H   0  0  0  0  0  0  0  0  0  0  0  0
    6.8547   -1.7485    1.6432 H   0  0  0  0  0  0  0  0  0  0  0  0
    6.4072    0.1392    0.0914 H   0  0  0  0  0  0  0  0  0  0  0  0
  1  2  1  0  0  0  0
  1  7  1  0  0  0  0
  1  6  1  0  0  0  0
  3  1  1  0  0  0  0
  4  1  1  0  0  0  0
  5  1  1  0  0  0  0
  5 20  1  0  0  0  0
  6 25  1  0  0  0  0
  6 26  1  0  0  0  0
  7 33  1  0  0  0  0
  8 38  1  0  0  0  0
  8  4  1  0  0  0  0
  9  8  1  0  0  0  0
 10  9  2  0  0  0  0
 10 11  1  0  0  0  0
 11 12  2  0  0  0  0
 12  4  1  0  0  0  0
 12 13  1  0  0  0  0
 13 14  1  1  0  0  0
 13  5  1  0  0  0  0
 14 19  1  0  0  0  0
 15 14  2  0  0  0  0
 16 15  1  0  0  0  0
 16 17  2  0  0  0  0
 17 18  1  0  0  0  0
 18 19  2  0  0  0  0
 18 45  1  0  0  0  0
 19 46  1  0  0  0  0
 20 21  2  0  0  0  0
 20 25  1  0  0  0  0
 21 22  1  0  0  0  0
 22 48  1  0  0  0  0
 22 23  2  0  0  0  0
 23 49  1  0  0  0  0
 24 23  1  0  0  0  0
 24 50  1  0  0  0  0
 25 24  2  0  0  0  0
 26 27  1  6  0  0  0
 27 32  1  0  0  0  0
 28 27  2  0  0  0  0
 28 29  1  0  0  0  0
 29 30  2  0  0  0  0
 30 31  1  0  0  0  0
 30 53  1  0  0  0  0
 31 54  1  0  0  0  0
 32 55  1  0  0  0  0
 32 31  2  0  0  0  0
 33 26  1  0  0  0  0
 33 34  1  6  0  0  0
 34 56  1  0  0  0  0
 35 34  2  0  0  0  0
 35 57  1  0  0  0  0
 36 35  1  0  0  0  0
 37  7  1  0  0  0  0
 37 36  2  0  0  0  0
 39  9  1  0  0  0  0
 40 10  1  0  0  0  0
 41 11  1  0  0  0  0
 42 15  1  0  0  0  0
 43 16  1  0  0  0  0
 44 17  1  0  0  0  0
 47 21  1  0  0  0  0
 51 28  1  0  0  0  0
 52 29  1  0  0  0  0
 58 36  1  0  0  0  0
 59 37  1  0  0  0  0
M  END
$$$$
