CSD_code = XACQUQ | q = 0 | S = 0 | Stoichiometry = C6H10AuClN2 | MND = 2
 OpenBabel04212202113D

 20 20  0  0  1  0  0  0  0  0999 V2000
    0.5137   11.8055    4.4189 C   0  0  0  0  0  0  0  0  0  0  0  0
    0.7651   11.2705    5.3319 H   0  0  0  0  0  0  0  0  0  0  0  0
   -0.5090   12.1720    4.4924 H   0  0  0  0  0  0  0  0  0  0  0  0
    1.1741   12.6642    4.3128 H   0  0  0  0  0  0  0  0  0  0  0  0
    0.6509   10.9031    3.2514 C   0  0  2  0  0  3  0  0  0  0  0  0
    0.4658   11.2007    1.8987 C   0  0  0  0  0  0  0  0  0  0  0  0
    0.1942   12.1465    1.4784 H   0  0  0  0  0  0  0  0  0  0  0  0
    0.7060   10.0238    1.2142 C   0  0  0  0  0  0  0  0  0  0  0  0
    0.6490    9.7562   -0.2451 C   0  0  0  0  0  0  0  0  0  0  0  0
    0.9426    8.7374   -0.4773 H   0  0  0  0  0  0  0  0  0  0  0  0
    1.3089   10.4414   -0.7747 H   0  0  0  0  0  0  0  0  0  0  0  0
   -0.3626    9.9208   -0.6143 H   0  0  0  0  0  0  0  0  0  0  0  0
    1.3407    7.7129    1.9206 C   0  0  0  0  0  0  0  0  0  0  0  0
    1.5419    7.2618    2.8931 H   0  0  0  0  0  0  0  0  0  0  0  0
    2.2297    7.6177    1.2949 H   0  0  0  0  0  0  0  0  0  0  0  0
    0.5068    7.1882    1.4514 H   0  0  0  0  0  0  0  0  0  0  0  0
    0.9834    9.6213    3.3719 N   0  0  0  0  0  0  0  0  0  0  0  0
    1.0158    9.0925    2.1376 N   0  0  0  0  0  0  0  0  0  0  0  0
    1.8484    7.4530    6.9815 Cl  0  0  0  0  0  0  0  0  0  0  0  0
    1.3945    8.5971    5.1227 Au  0  0  0  0  0  0  0  0  0  0  0  0
  1  3  1  0  0  0  0
  1  2  1  0  0  0  0
  4  1  1  0  0  0  0
  5 17  1  0  0  0  0
  5  1  1  1  0  0  0
  6  5  1  0  0  0  0
  7  6  1  0  0  0  0
  8  6  2  0  0  0  0
  8 18  1  0  0  0  0
  9  8  1  0  0  0  0
 10  9  1  0  0  0  0
 11  9  1  0  0  0  0
 12  9  1  0  0  0  0
 13 18  1  0  0  0  0
 13 14  1  0  0  0  0
 15 13  1  0  0  0  0
 16 13  1  0  0  0  0
 17 20  1  0  0  0  0
 18 17  1  0  0  0  0
 20 19  1  0  0  0  0
M  END
$$$$
