CSD_code = XADNEW | q = 0 | S = 0 | Stoichiometry = C16H30ClF3N2NiP2 | MND = 4
 OpenBabel04212202113D

 55 55  0  0  1  0  0  0  0  0999 V2000
    5.3913   -3.3225    3.6270 Ni  0  0  0  0  0  0  0  0  0  0  0  0
    4.7885   -4.9225    4.8126 Cl  0  0  0  0  0  0  0  0  0  0  0  0
    3.3494   -3.2516    2.8741 P   0  0  0  0  0  4  0  0  0  0  0  0
    7.3788   -3.6839    4.4301 P   0  0  0  0  0  4  0  0  0  0  0  0
    6.8001   -0.3791    0.8901 N   0  0  0  0  0  0  0  0  0  0  0  0
    6.0501    0.5337    2.9225 N   0  0  0  0  0  0  0  0  0  0  0  0
    6.7677   -2.5820    0.4806 F   0  0  0  0  0  0  0  0  0  0  0  0
    6.8475    1.8285    1.2727 F   0  0  0  0  0  0  0  0  0  0  0  0
    5.2562   -0.8366    4.5453 F   0  0  0  0  0  0  0  0  0  0  0  0
    5.9577   -1.8703    2.5840 C   0  0  0  0  0  0  0  0  0  0  0  0
    6.5021   -1.5869    1.3366 C   0  0  1  0  0  3  0  0  0  0  0  0
    6.5549    0.6128    1.7098 C   0  0  0  0  0  0  0  0  0  0  0  0
    5.7750   -0.6936    3.3069 C   0  0  0  0  0  0  0  0  0  0  0  0
    2.9271   -4.7031    1.8245 C   0  0  0  0  0  0  0  0  0  0  0  0
    3.1779   -5.5882    2.4163 H   0  0  0  0  0  0  0  0  0  0  0  0
    1.8494   -4.7122    1.6415 H   0  0  0  0  0  0  0  0  0  0  0  0
    3.7130   -4.7039    0.5184 C   0  0  0  0  0  0  0  0  0  0  0  0
    3.3664   -3.9190   -0.1500 H   0  0  0  0  0  0  0  0  0  0  0  0
    3.6041   -5.6583    0.0076 H   0  0  0  0  0  0  0  0  0  0  0  0
    4.7729   -4.5385    0.7137 H   0  0  0  0  0  0  0  0  0  0  0  0
    2.0466   -3.3343    4.1708 C   0  0  0  0  0  0  0  0  0  0  0  0
    1.0664   -3.2321    3.6996 H   0  0  0  0  0  0  0  0  0  0  0  0
    2.1132   -4.3266    4.6231 H   0  0  0  0  0  0  0  0  0  0  0  0
    2.2702   -2.2653    5.2329 C   0  0  0  0  0  0  0  0  0  0  0  0
    3.2718   -2.3692    5.6515 H   0  0  0  0  0  0  0  0  0  0  0  0
    1.5486   -2.3681    6.0404 H   0  0  0  0  0  0  0  0  0  0  0  0
    2.1785   -1.2655    4.8131 H   0  0  0  0  0  0  0  0  0  0  0  0
    2.8559   -1.7894    1.8485 C   0  0  0  0  0  0  0  0  0  0  0  0
    3.0445   -0.8998    2.4576 H   0  0  0  0  0  0  0  0  0  0  0  0
    3.5552   -1.7523    1.0079 H   0  0  0  0  0  0  0  0  0  0  0  0
    1.4240   -1.7661    1.3308 C   0  0  0  0  0  0  0  0  0  0  0  0
    1.2008   -2.6520    0.7415 H   0  0  0  0  0  0  0  0  0  0  0  0
    1.2844   -0.8947    0.6935 H   0  0  0  0  0  0  0  0  0  0  0  0
    0.7078   -1.6990    2.1457 H   0  0  0  0  0  0  0  0  0  0  0  0
    7.5450   -3.8478    6.2534 C   0  0  0  0  0  0  0  0  0  0  0  0
    6.8880   -4.6663    6.5566 H   0  0  0  0  0  0  0  0  0  0  0  0
    8.5757   -4.1228    6.4904 H   0  0  0  0  0  0  0  0  0  0  0  0
    7.1280   -2.5619    6.9566 C   0  0  0  0  0  0  0  0  0  0  0  0
    7.7840   -1.7349    6.6918 H   0  0  0  0  0  0  0  0  0  0  0  0
    7.1538   -2.6896    8.0368 H   0  0  0  0  0  0  0  0  0  0  0  0
    6.1119   -2.2956    6.6666 H   0  0  0  0  0  0  0  0  0  0  0  0
    7.9521   -5.3184    3.8079 C   0  0  0  0  0  0  0  0  0  0  0  0
    9.0344   -5.4087    3.9218 H   0  0  0  0  0  0  0  0  0  0  0  0
    7.4680   -6.0828    4.4205 H   0  0  0  0  0  0  0  0  0  0  0  0
    7.5296   -5.4760    2.3515 C   0  0  0  0  0  0  0  0  0  0  0  0
    6.4516   -5.2911    2.2709 H   0  0  0  0  0  0  0  0  0  0  0  0
    7.7341   -6.4808    1.9885 H   0  0  0  0  0  0  0  0  0  0  0  0
    8.0458   -4.7643    1.7100 H   0  0  0  0  0  0  0  0  0  0  0  0
    8.7506   -2.5304    3.9569 C   0  0  0  0  0  0  0  0  0  0  0  0
    8.8501   -2.6126    2.8700 H   0  0  0  0  0  0  0  0  0  0  0  0
    8.4075   -1.5134    4.1696 H   0  0  0  0  0  0  0  0  0  0  0  0
   10.1002   -2.7644    4.6222 C   0  0  0  0  0  0  0  0  0  0  0  0
   10.0597   -2.5433    5.6856 H   0  0  0  0  0  0  0  0  0  0  0  0
   10.8440   -2.1088    4.1729 H   0  0  0  0  0  0  0  0  0  0  0  0
   10.4374   -3.7904    4.4932 H   0  0  0  0  0  0  0  0  0  0  0  0
  1  4  1  0  0  0  0
  1  2  1  0  0  0  0
  3  1  1  0  0  0  0
  3 21  1  0  0  0  0
  4 35  1  0  0  0  0
  5 11  1  0  0  0  0
  5 12  2  0  0  0  0
  6 13  2  0  0  0  0
  8 12  1  0  0  0  0
 10 13  1  0  0  0  0
 10  1  2  0  0  0  0
 11  7  1  1  0  0  0
 11 10  1  0  0  0  0
 12  6  1  0  0  0  0
 13  9  1  0  0  0  0
 14 15  1  0  0  0  0
 14  3  1  0  0  0  0
 16 14  1  0  0  0  0
 17 20  1  0  0  0  0
 17 14  1  0  0  0  0
 18 17  1  0  0  0  0
 19 17  1  0  0  0  0
 21 23  1  0  0  0  0
 21 24  1  0  0  0  0
 22 21  1  0  0  0  0
 24 25  1  0  0  0  0
 24 26  1  0  0  0  0
 27 24  1  0  0  0  0
 28 29  1  0  0  0  0
 28  3  1  0  0  0  0
 30 28  1  0  0  0  0
 31 28  1  0  0  0  0
 31 34  1  0  0  0  0
 32 31  1  0  0  0  0
 33 31  1  0  0  0  0
 35 37  1  0  0  0  0
 35 36  1  0  0  0  0
 35 38  1  0  0  0  0
 38 40  1  0  0  0  0
 39 38  1  0  0  0  0
 41 38  1  0  0  0  0
 42 43  1  0  0  0  0
 42 44  1  0  0  0  0
 42  4  1  0  0  0  0
 45 42  1  0  0  0  0
 46 45  1  0  0  0  0
 47 45  1  0  0  0  0
 48 45  1  0  0  0  0
 49 51  1  0  0  0  0
 49  4  1  0  0  0  0
 49 52  1  0  0  0  0
 50 49  1  0  0  0  0
 52 53  1  0  0  0  0
 54 52  1  0  0  0  0
 55 52  1  0  0  0  0
M  END
$$$$
