CSD_code = XADWOR | q = 0 | S = 0 | Stoichiometry = C20H24Cl2N2O4Pt | MND = 6
 OpenBabel04212202113D

 53 56  0  0  1  0  0  0  0  0999 V2000
    7.3788    4.2727    8.8452 Pt  0  0  0  0  0  0  0  0  0  0  0  0
    7.8386    2.6740    7.2590 Cl  0  0  0  0  0  0  0  0  0  0  0  0
    6.9520    5.6918   10.3898 N   0  0  0  0  0  4  0  0  0  0  0  0
    5.9214    5.5205   10.4927 H   0  0  0  0  0  0  0  0  0  0  0  0
    7.4221    5.2909   11.2017 H   0  0  0  0  0  0  0  0  0  0  0  0
    5.4154    4.1400    8.1996 O   0  0  0  0  0  0  0  0  0  0  0  0
    4.4024    4.9738   10.0047 O   0  0  0  0  0  0  0  0  0  0  0  0
    4.3992    4.3332    8.9526 C   0  0  0  0  0  0  0  0  0  0  0  0
    3.1243    3.7660    8.4147 C   0  0  0  0  0  0  0  0  0  0  0  0
    3.1431    2.8394    7.3777 C   0  0  0  0  0  0  0  0  0  0  0  0
    4.0905    2.5360    6.9592 H   0  0  0  0  0  0  0  0  0  0  0  0
    1.9535    2.3130    6.9096 C   0  0  0  0  0  0  0  0  0  0  0  0
    1.9641    1.5893    6.1082 H   0  0  0  0  0  0  0  0  0  0  0  0
    0.7492    2.7100    7.4690 C   0  0  0  0  0  0  0  0  0  0  0  0
   -0.1783    2.2969    7.1001 H   0  0  0  0  0  0  0  0  0  0  0  0
    0.7310    3.6320    8.5038 C   0  0  0  0  0  0  0  0  0  0  0  0
   -0.2086    3.9366    8.9407 H   0  0  0  0  0  0  0  0  0  0  0  0
    1.9162    4.1600    8.9797 C   0  0  0  0  0  0  0  0  0  0  0  0
    1.9271    4.8742    9.7891 H   0  0  0  0  0  0  0  0  0  0  0  0
    7.2328    7.1293   10.2823 C   0  0  1  0  0  0  0  0  0  0  0  0
    7.1946    7.5486   11.2982 H   0  0  0  0  0  0  0  0  0  0  0  0
    8.6336    7.3768    9.6961 C   0  0  0  0  0  0  0  0  0  0  0  0
    9.2131    6.4586    9.7852 H   0  0  0  0  0  0  0  0  0  0  0  0
    9.1520    8.1368   10.2818 H   0  0  0  0  0  0  0  0  0  0  0  0
    6.1566    7.8323    9.4548 C   0  0  0  0  0  0  0  0  0  0  0  0
    6.3507    8.9050    9.5031 H   0  0  0  0  0  0  0  0  0  0  0  0
    5.1799    7.6501    9.9047 H   0  0  0  0  0  0  0  0  0  0  0  0
    7.8053    5.6912    7.3001 N   0  0  0  0  0  4  0  0  0  0  0  0
    8.8358    5.5196    7.1968 H   0  0  0  0  0  0  0  0  0  0  0  0
    7.3346    5.2903    6.4885 H   0  0  0  0  0  0  0  0  0  0  0  0
    7.5250    7.1289    7.4074 C   0  0  1  0  0  0  0  0  0  0  0  0
    7.5634    7.5480    6.3915 H   0  0  0  0  0  0  0  0  0  0  0  0
    6.1243    7.3769    7.9936 C   0  0  0  0  0  0  0  0  0  0  0  0
    5.5446    6.4589    7.9050 H   0  0  0  0  0  0  0  0  0  0  0  0
    5.6060    8.1368    7.4077 H   0  0  0  0  0  0  0  0  0  0  0  0
    8.6015    7.8316    8.2348 C   0  0  0  0  0  0  0  0  0  0  0  0
    8.4080    8.9044    8.1861 H   0  0  0  0  0  0  0  0  0  0  0  0
    9.5781    7.6487    7.7850 H   0  0  0  0  0  0  0  0  0  0  0  0
    6.9191    2.6748   10.4321 Cl  0  0  0  0  0  0  0  0  0  0  0  0
    9.3423    4.1402    9.4907 O   0  0  0  0  0  0  0  0  0  0  0  0
   10.3548    4.9728    7.6847 O   0  0  0  0  0  0  0  0  0  0  0  0
   10.3583    4.3329    8.7373 C   0  0  0  0  0  0  0  0  0  0  0  0
   11.6333    3.7659    9.2749 C   0  0  0  0  0  0  0  0  0  0  0  0
   11.6149    2.8390   10.3116 C   0  0  0  0  0  0  0  0  0  0  0  0
   10.6676    2.5351   10.7301 H   0  0  0  0  0  0  0  0  0  0  0  0
   12.8047    2.3128   10.7794 C   0  0  0  0  0  0  0  0  0  0  0  0
   12.7944    1.5886   11.5805 H   0  0  0  0  0  0  0  0  0  0  0  0
   14.0088    2.7103   10.2200 C   0  0  0  0  0  0  0  0  0  0  0  0
   14.9365    2.2972   10.5887 H   0  0  0  0  0  0  0  0  0  0  0  0
   14.0266    3.6326    9.1855 C   0  0  0  0  0  0  0  0  0  0  0  0
   14.9662    3.9377    8.7487 H   0  0  0  0  0  0  0  0  0  0  0  0
   12.8413    4.1605    8.7099 C   0  0  0  0  0  0  0  0  0  0  0  0
   12.8300    4.8748    7.9007 H   0  0  0  0  0  0  0  0  0  0  0  0
  1 40  1  0  0  0  0
  1  3  1  0  0  0  0
  1 39  1  0  0  0  0
  2  1  1  0  0  0  0
  3  4  1  0  0  0  0
  3  5  1  0  0  0  0
  6  1  1  0  0  0  0
  6  8  1  0  0  0  0
  8  7  2  0  0  0  0
  9  8  1  0  0  0  0
  9 18  1  0  0  0  0
 10  9  2  0  0  0  0
 11 10  1  0  0  0  0
 12 10  1  0  0  0  0
 12 14  2  0  0  0  0
 13 12  1  0  0  0  0
 14 16  1  0  0  0  0
 15 14  1  0  0  0  0
 16 17  1  0  0  0  0
 16 18  2  0  0  0  0
 18 19  1  0  0  0  0
 20  3  1  0  0  0  0
 20 21  1  1  0  0  0
 22 23  1  0  0  0  0
 22 24  1  0  0  0  0
 22 20  1  0  0  0  0
 25 26  1  0  0  0  0
 25 27  1  0  0  0  0
 25 20  1  0  0  0  0
 28 31  1  0  0  0  0
 28  1  1  0  0  0  0
 29 28  1  0  0  0  0
 30 28  1  0  0  0  0
 31 32  1  6  0  0  0
 31 33  1  0  0  0  0
 31 36  1  0  0  0  0
 33 25  1  0  0  0  0
 34 33  1  0  0  0  0
 35 33  1  0  0  0  0
 36 22  1  0  0  0  0
 37 36  1  0  0  0  0
 38 36  1  0  0  0  0
 41 42  2  0  0  0  0
 42 43  1  0  0  0  0
 42 40  1  0  0  0  0
 43 44  1  0  0  0  0
 44 45  1  0  0  0  0
 44 46  2  0  0  0  0
 46 47  1  0  0  0  0
 48 49  1  0  0  0  0
 48 46  1  0  0  0  0
 50 48  2  0  0  0  0
 51 50  1  0  0  0  0
 52 50  1  0  0  0  0
 52 43  2  0  0  0  0
 53 52  1  0  0  0  0
M  END
$$$$
