CSD_code = XAFGOC | q = 0 | S = 0 | Stoichiometry = C23H22Cl2N2O2SZn | MND = 5
 OpenBabel04212202113D

 53 58  0  0  1  0  0  0  0  0999 V2000
    8.3310    2.6741   10.2041 Zn  0  0  0  0  0  0  0  0  0  0  0  0
    6.7152    3.7986    9.0609 Cl  0  0  0  0  0  0  0  0  0  0  0  0
    9.1598    0.6539   10.4502 Cl  0  0  0  0  0  0  0  0  0  0  0  0
    7.9531    8.1706    4.0289 N   0  0  0  0  0  0  0  0  0  0  0  0
    9.0052    4.1584   11.5798 N   0  0  0  0  0  0  0  0  0  0  0  0
    9.2016    5.1687    7.4766 O   0  0  0  0  0  0  0  0  0  0  0  0
    9.7191    3.6496    8.9539 O   0  0  0  0  0  0  0  0  0  0  0  0
    6.9046    2.3872   12.6320 S   0  0  0  0  0  0  0  0  0  0  0  0
    9.2914    4.7800    8.7580 C   0  0  0  0  0  0  0  0  0  0  0  0
    9.0117    5.7558    9.7995 C   0  0  0  0  0  0  0  0  0  0  0  0
    8.6709    7.0396    9.4407 C   0  0  0  0  0  0  0  0  0  0  0  0
    8.4671    7.7762   10.2060 H   0  0  0  0  0  0  0  0  0  0  0  0
    8.5150    7.3914    8.0910 C   0  0  0  0  0  0  0  0  0  0  0  0
    8.0927    8.6571    7.6449 C   0  0  0  0  0  0  0  0  0  0  0  0
    7.9042    9.4258    8.3797 H   0  0  0  0  0  0  0  0  0  0  0  0
    7.9018    8.9245    6.3188 C   0  0  0  0  0  0  0  0  0  0  0  0
    8.1384    7.9135    5.3430 C   0  0  0  0  0  0  0  0  0  0  0  0
    8.5730    6.6412    5.7665 C   0  0  0  0  0  0  0  0  0  0  0  0
    8.7577    6.3980    7.1163 C   0  0  1  0  0  3  0  0  0  0  0  0
    7.4389   10.2805    5.8680 C   0  0  0  0  0  0  0  0  0  0  0  0
    6.3463   10.2934    5.8097 H   0  0  0  0  0  0  0  0  0  0  0  0
    7.7402   11.0370    6.5931 H   0  0  0  0  0  0  0  0  0  0  0  0
    8.0248   10.5782    4.4948 C   0  0  0  0  0  0  0  0  0  0  0  0
    9.1147   10.5969    4.5582 H   0  0  0  0  0  0  0  0  0  0  0  0
    7.6837   11.5448    4.1237 H   0  0  0  0  0  0  0  0  0  0  0  0
    7.5870    9.4806    3.5370 C   0  0  0  0  0  0  0  0  0  0  0  0
    6.4986    9.5301    3.3894 H   0  0  0  0  0  0  0  0  0  0  0  0
    8.0654    9.6218    2.5624 H   0  0  0  0  0  0  0  0  0  0  0  0
    8.1044    7.1455    3.0178 C   0  0  0  0  0  0  0  0  0  0  0  0
    9.1174    7.1946    2.5939 H   0  0  0  0  0  0  0  0  0  0  0  0
    7.3916    7.3563    2.2144 H   0  0  0  0  0  0  0  0  0  0  0  0
    7.8514    5.7582    3.5888 C   0  0  0  0  0  0  0  0  0  0  0  0
    6.8158    5.6845    3.9253 H   0  0  0  0  0  0  0  0  0  0  0  0
    8.0169    5.0089    2.8153 H   0  0  0  0  0  0  0  0  0  0  0  0
    8.7836    5.5370    4.7711 C   0  0  0  0  0  0  0  0  0  0  0  0
    8.5844    4.5800    5.2530 H   0  0  0  0  0  0  0  0  0  0  0  0
    9.8241    5.5277    4.4340 H   0  0  0  0  0  0  0  0  0  0  0  0
    9.0819    5.3710   11.1760 C   0  0  0  0  0  3  0  0  0  0  0  0
    9.1623    6.1868   11.9016 H   0  0  0  0  0  0  0  0  0  0  0  0
    9.2152    3.8010   12.8999 C   0  0  0  0  0  0  0  0  0  0  0  0
    8.3835    2.8432   13.4948 C   0  0  0  0  0  0  0  0  0  0  0  0
    8.6748    2.3693   14.7646 C   0  0  0  0  0  0  0  0  0  0  0  0
    8.0303    1.6379   15.2249 H   0  0  0  0  0  0  0  0  0  0  0  0
    9.7862    2.8332   15.4435 C   0  0  0  0  0  0  0  0  0  0  0  0
   10.0116    2.4477   16.4260 H   0  0  0  0  0  0  0  0  0  0  0  0
   10.6022    3.7963   14.8693 C   0  0  0  0  0  0  0  0  0  0  0  0
   11.4663    4.1631   15.4020 H   0  0  0  0  0  0  0  0  0  0  0  0
   10.3180    4.2812   13.6088 C   0  0  0  0  0  0  0  0  0  0  0  0
   10.9713    4.9991   13.1345 H   0  0  0  0  0  0  0  0  0  0  0  0
    6.8213    0.5946   12.9258 C   0  0  0  0  0  0  0  0  0  0  0  0
    7.7551    0.1453   12.6001 H   0  0  0  0  0  0  0  0  0  0  0  0
    6.0036    0.2381   12.3070 H   0  0  0  0  0  0  0  0  0  0  0  0
    6.6091    0.3954   13.9711 H   0  0  0  0  0  0  0  0  0  0  0  0
  1  3  1  0  0  0  0
  1  5  1  0  0  0  0
  2  1  1  0  0  0  0
  4 17  1  0  0  0  0
  5 40  1  0  0  0  0
  6  9  1  0  0  0  0
  7  1  1  0  0  0  0
  8 50  1  0  0  0  0
  8 41  1  0  0  0  0
  9  7  1  0  0  0  0
  9 10  2  0  0  0  0
 10 38  1  0  0  0  0
 11 10  1  0  0  0  0
 11 12  1  0  0  0  0
 13 11  2  0  0  0  0
 14 13  1  0  0  0  0
 14 15  1  0  0  0  0
 16 14  2  0  0  0  0
 17 18  2  0  0  0  0
 17 16  1  0  0  0  0
 19 18  1  6  0  0  0
 19  6  1  0  0  0  0
 19 13  1  0  0  0  0
 20 16  1  0  0  0  0
 20 22  1  0  0  0  0
 21 20  1  0  0  0  0
 23 24  1  0  0  0  0
 23 20  1  0  0  0  0
 25 23  1  0  0  0  0
 26  4  1  0  0  0  0
 26 23  1  0  0  0  0
 27 26  1  0  0  0  0
 28 26  1  0  0  0  0
 29 32  1  0  0  0  0
 29  4  1  0  0  0  0
 30 29  1  0  0  0  0
 31 29  1  0  0  0  0
 32 33  1  0  0  0  0
 32 35  1  0  0  0  0
 34 32  1  0  0  0  0
 35 36  1  0  0  0  0
 35 18  1  0  0  0  0
 37 35  1  0  0  0  0
 38  5  1  0  0  0  0
 38 39  1  0  0  0  0
 40 41  2  0  0  0  0
 40 48  1  0  0  0  0
 41 42  1  0  0  0  0
 42 43  1  0  0  0  0
 42 44  2  0  0  0  0
 44 45  1  0  0  0  0
 46 47  1  0  0  0  0
 46 44  1  0  0  0  0
 48 46  2  0  0  0  0
 49 48  1  0  0  0  0
 50 53  1  0  0  0  0
 51 50  1  0  0  0  0
 52 50  1  0  0  0  0
M  END
$$$$
