CSD_code = XAFHUK | q = 0 | S = 0 | Stoichiometry = C15H18ClIN2O2Pt | MND = 6
 OpenBabel04212202113D

 40 42  0  0  1  0  0  0  0  0999 V2000
    2.8988    2.0721    3.3647 Pt  0  0  0  0  0  0  0  0  0  0  0  0
    0.8323    1.2469    1.7878 I   0  0  0  0  0  0  0  0  0  0  0  0
    3.7909   -0.0525    3.5073 Cl  0  0  0  0  0  0  0  0  0  0  0  0
    4.9341    4.9589    3.8321 O   0  0  0  0  0  0  0  0  0  0  0  0
    3.5770    4.6531    5.5949 O   0  0  0  0  0  0  0  0  0  0  0  0
    2.2032    3.9876    3.0229 N   0  0  0  0  0  0  0  0  0  0  0  0
    3.9110    2.6035    1.4905 N   0  0  0  0  0  0  0  0  0  0  0  0
    2.6423    4.5805    1.8967 C   0  0  0  0  0  0  0  0  0  0  0  0
    2.2201    5.8689    1.5722 C   0  0  0  0  0  0  0  0  0  0  0  0
    2.5845    6.3518    0.6812 H   0  0  0  0  0  0  0  0  0  0  0  0
    1.3316    6.5329    2.3976 C   0  0  0  0  0  0  0  0  0  0  0  0
    1.0010    7.5303    2.1523 H   0  0  0  0  0  0  0  0  0  0  0  0
    0.8762    5.8915    3.5388 C   0  0  0  0  0  0  0  0  0  0  0  0
    0.1780    6.3630    4.2102 H   0  0  0  0  0  0  0  0  0  0  0  0
    1.3468    4.6208    3.8142 C   0  0  0  0  0  0  0  0  0  0  0  0
    1.0283    4.0968    4.7033 H   0  0  0  0  0  0  0  0  0  0  0  0
    3.5411    3.8044    1.0302 C   0  0  0  0  0  0  0  0  0  0  0  0
    4.6673    1.8039    0.7585 C   0  0  0  0  0  0  0  0  0  0  0  0
    4.9019    0.8421    1.1979 H   0  0  0  0  0  0  0  0  0  0  0  0
    5.1207    2.1635   -0.4994 C   0  0  0  0  0  0  0  0  0  0  0  0
    5.7287    1.4840   -1.0737 H   0  0  0  0  0  0  0  0  0  0  0  0
    4.7639    3.4086   -0.9936 C   0  0  0  0  0  0  0  0  0  0  0  0
    5.0928    3.7280   -1.9709 H   0  0  0  0  0  0  0  0  0  0  0  0
    3.9660    4.2385   -0.2257 C   0  0  0  0  0  0  0  0  0  0  0  0
    3.6690    5.1990   -0.6123 H   0  0  0  0  0  0  0  0  0  0  0  0
    4.5586    2.7339    4.5471 C   0  0  1  0  0  0  0  0  0  0  0  0
    4.4633    2.2250    5.5097 H   0  0  0  0  0  0  0  0  0  0  0  0
    5.9073    2.4266    3.9224 C   0  0  0  0  0  0  0  0  0  0  0  0
    6.6964    2.7261    4.6151 H   0  0  0  0  0  0  0  0  0  0  0  0
    6.0619    2.9678    2.9916 H   0  0  0  0  0  0  0  0  0  0  0  0
    6.0079    1.3587    3.7439 H   0  0  0  0  0  0  0  0  0  0  0  0
    4.2970    4.1729    4.7443 C   0  0  0  0  0  0  0  0  0  0  0  0
    4.7888    6.3563    4.0024 C   0  0  0  0  0  0  0  0  0  0  0  0
    5.0854    6.8170    3.0624 H   0  0  0  0  0  0  0  0  0  0  0  0
    5.4356    6.7037    4.8111 H   0  0  0  0  0  0  0  0  0  0  0  0
    3.7554    6.6107    4.2491 H   0  0  0  0  0  0  0  0  0  0  0  0
    1.8674    1.6929    5.1239 C   0  0  0  0  0  0  0  0  0  0  0  0
    2.0922    2.4664    5.8605 H   0  0  0  0  0  0  0  0  0  0  0  0
    2.1516    0.7233    5.5348 H   0  0  0  0  0  0  0  0  0  0  0  0
    0.7945    1.6755    4.9239 H   0  0  0  0  0  0  0  0  0  0  0  0
  1  3  1  0  0  0  0
  1 26  1  0  0  0  0
  1 37  1  0  0  0  0
  2  1  1  0  0  0  0
  4 33  1  0  0  0  0
  4 32  1  0  0  0  0
  6  1  1  0  0  0  0
  6 15  1  0  0  0  0
  7  1  1  0  0  0  0
  8  6  1  0  0  0  0
  9  8  1  0  0  0  0
  9 11  2  0  0  0  0
 10  9  1  0  0  0  0
 11 13  1  0  0  0  0
 12 11  1  0  0  0  0
 13 15  2  0  0  0  0
 13 14  1  0  0  0  0
 15 16  1  0  0  0  0
 17  7  1  0  0  0  0
 17  8  2  0  0  0  0
 18 19  1  0  0  0  0
 18  7  1  0  0  0  0
 20 18  2  0  0  0  0
 21 20  1  0  0  0  0
 22 20  1  0  0  0  0
 22 24  2  0  0  0  0
 23 22  1  0  0  0  0
 24 17  1  0  0  0  0
 25 24  1  0  0  0  0
 26 32  1  0  0  0  0
 26 27  1  1  0  0  0
 28 26  1  0  0  0  0
 28 29  1  0  0  0  0
 30 28  1  0  0  0  0
 31 28  1  0  0  0  0
 32  5  2  0  0  0  0
 33 36  1  0  0  0  0
 33 35  1  0  0  0  0
 34 33  1  0  0  0  0
 37 39  1  0  0  0  0
 37 38  1  0  0  0  0
 40 37  1  0  0  0  0
M  END
$$$$
