CSD_code = XAGNUO | q = 0 | S = 0 | Stoichiometry = C16H24CuI | MND = 5
 OpenBabel04212202113D

 42 41  0  0  0  0  0  0  0  0999 V2000
    1.1030    8.1269    8.4723 I   0  0  0  0  0 15  0  0  0  0  0  0
    3.5293    8.3080    7.7440 Cu  0  0  0  0  0  0  0  0  0  0  0  0
    5.2471    7.8466    8.8030 C   0  0  0  0  0  2  0  0  0  0  0  0
    4.3444    7.1240    9.2132 C   0  0  0  0  0  2  0  0  0  0  0  0
    3.6431    6.1339   10.0051 C   0  0  0  0  0  0  0  0  0  0  0  0
    3.0214    5.4848    9.3854 H   0  0  0  0  0  0  0  0  0  0  0  0
    2.9852    6.6409   10.7160 H   0  0  0  0  0  0  0  0  0  0  0  0
    4.7032    5.3067   10.7514 C   0  0  0  0  0  0  0  0  0  0  0  0
    4.1797    4.6917   11.4862 H   0  0  0  0  0  0  0  0  0  0  0  0
    5.1970    4.6308   10.0498 H   0  0  0  0  0  0  0  0  0  0  0  0
    5.7614    6.1585   11.4694 C   0  0  0  0  0  0  0  0  0  0  0  0
    6.0930    5.5963   12.3446 H   0  0  0  0  0  0  0  0  0  0  0  0
    5.2888    7.0697   11.8397 H   0  0  0  0  0  0  0  0  0  0  0  0
    7.0117    6.5175   10.6367 C   0  0  0  0  0  0  0  0  0  0  0  0
    7.8917    6.2327   11.2167 H   0  0  0  0  0  0  0  0  0  0  0  0
    7.0288    5.9185    9.7244 H   0  0  0  0  0  0  0  0  0  0  0  0
    7.1692    8.0012   10.2647 C   0  0  0  0  0  0  0  0  0  0  0  0
    8.2299    8.2638   10.2697 H   0  0  0  0  0  0  0  0  0  0  0  0
    6.6752    8.6188   11.0172 H   0  0  0  0  0  0  0  0  0  0  0  0
    6.6120    8.3597    8.8760 C   0  0  0  0  0  0  0  0  0  0  0  0
    6.6461    9.4436    8.7383 H   0  0  0  0  0  0  0  0  0  0  0  0
    7.2243    7.8890    8.1000 H   0  0  0  0  0  0  0  0  0  0  0  0
    4.4863    9.0716    6.1064 C   0  0  0  0  0  3  0  0  0  0  0  0
    3.2803    9.2624    5.9584 C   0  0  0  0  0  0  0  0  0  0  0  0
    2.0358    9.6943    5.3513 C   0  0  0  0  0  0  0  0  0  0  0  0
    1.7450   10.6592    5.7773 H   0  0  0  0  0  0  0  0  0  0  0  0
    1.2243    8.9912    5.5435 H   0  0  0  0  0  0  0  0  0  0  0  0
    2.2674    9.8230    3.8366 C   0  0  0  0  0  0  0  0  0  0  0  0
    1.3916   10.3202    3.4148 H   0  0  0  0  0  0  0  0  0  0  0  0
    2.3222    8.8259    3.3948 H   0  0  0  0  0  0  0  0  0  0  0  0
    3.5276   10.6155    3.4606 C   0  0  0  0  0  0  0  0  0  0  0  0
    3.6684   11.4200    4.1847 H   0  0  0  0  0  0  0  0  0  0  0  0
    3.3394   11.0889    2.4949 H   0  0  0  0  0  0  0  0  0  0  0  0
    4.8245    9.7864    3.3382 C   0  0  0  0  0  0  0  0  0  0  0  0
    4.5827    8.7224    3.3536 H   0  0  0  0  0  0  0  0  0  0  0  0
    5.2652    9.9956    2.3615 H   0  0  0  0  0  0  0  0  0  0  0  0
    5.8996   10.0709    4.3986 C   0  0  0  0  0  0  0  0  0  0  0  0
    5.7967   11.0992    4.7514 H   0  0  0  0  0  0  0  0  0  0  0  0
    6.8891    9.9791    3.9441 H   0  0  0  0  0  0  0  0  0  0  0  0
    5.8598    9.1205    5.6076 C   0  0  0  0  0  0  0  0  0  0  0  0
    6.1708    8.1148    5.3056 H   0  0  0  0  0  0  0  0  0  0  0  0
    6.5575    9.4790    6.3664 H   0  0  0  0  0  0  0  0  0  0  0  0
  3 20  1  0  0  0  0
  3  4  1  0  0  0  0
  4  5  1  0  0  0  0
  5  7  1  0  0  0  0
  5  8  1  0  0  0  0
  6  5  1  0  0  0  0
  8 11  1  0  0  0  0
  8  9  1  0  0  0  0
 10  8  1  0  0  0  0
 11 13  1  0  0  0  0
 11 12  1  0  0  0  0
 14 15  1  0  0  0  0
 14 11  1  0  0  0  0
 16 14  1  0  0  0  0
 17 18  1  0  0  0  0
 17 14  1  0  0  0  0
 17 19  1  0  0  0  0
 20 17  1  0  0  0  0
 21 20  1  0  0  0  0
 22 20  1  0  0  0  0
 24 23  2  0  0  0  0
 24  2  1  0  0  0  0
 25 27  1  0  0  0  0
 25 26  1  0  0  0  0
 25 24  1  0  0  0  0
 28 25  1  0  0  0  0
 29 28  1  0  0  0  0
 30 28  1  0  0  0  0
 31 28  1  0  0  0  0
 31 32  1  0  0  0  0
 33 31  1  0  0  0  0
 34 35  1  0  0  0  0
 34 31  1  0  0  0  0
 34 37  1  0  0  0  0
 36 34  1  0  0  0  0
 37 38  1  0  0  0  0
 37 40  1  0  0  0  0
 39 37  1  0  0  0  0
 40 23  1  0  0  0  0
 40 42  1  0  0  0  0
 41 40  1  0  0  0  0
M  END
$$$$
