CSD_code = XAGNOI | q = 0 | S = 0 | Stoichiometry = C16H24BrCu | MND = 5
 OpenBabel04212202113D

 42 42  0  0  0  0  0  0  0  0999 V2000
    1.2571    1.4544    7.9933 Br  0  0  0  0  0 15  0  0  0  0  0  0
    3.5136    1.0672    7.5094 Cu  0  0  0  0  0  0  0  0  0  0  0  0
    4.2474    2.1809    9.0504 C   0  0  0  0  0  0  0  0  0  0  0  0
    5.1846    1.5197    8.6093 C   0  0  0  0  0  3  0  0  0  0  0  0
    3.2266    0.0054    5.7984 C   0  0  0  0  0  0  0  0  0  0  0  0
    4.4396    0.1631    5.9295 C   0  0  0  0  0  3  0  0  0  0  0  0
    3.4964    3.0927    9.8914 C   0  0  0  0  0  0  0  0  0  0  0  0
    2.8764    2.5161   10.5838 H   0  0  0  0  0  0  0  0  0  0  0  0
    2.8263    3.7229    9.3035 H   0  0  0  0  0  0  0  0  0  0  0  0
    4.5082    3.9578   10.6615 C   0  0  0  0  0  0  0  0  0  0  0  0
    4.9351    4.7028    9.9868 H   0  0  0  0  0  0  0  0  0  0  0  0
    3.9566    4.4942   11.4359 H   0  0  0  0  0  0  0  0  0  0  0  0
    5.6423    3.1539   11.3153 C   0  0  0  0  0  0  0  0  0  0  0  0
    5.2453    2.1946   11.6513 H   0  0  0  0  0  0  0  0  0  0  0  0
    5.9562    3.6968   12.2090 H   0  0  0  0  0  0  0  0  0  0  0  0
    6.8911    2.9244   10.4358 C   0  0  0  0  0  0  0  0  0  0  0  0
    6.8260    3.5423    9.5387 H   0  0  0  0  0  0  0  0  0  0  0  0
    7.7632    3.2700   10.9942 H   0  0  0  0  0  0  0  0  0  0  0  0
    7.1565    1.4680   10.0213 C   0  0  0  0  0  0  0  0  0  0  0  0
    6.7404    0.7956   10.7739 H   0  0  0  0  0  0  0  0  0  0  0  0
    8.2342    1.2920    9.9853 H   0  0  0  0  0  0  0  0  0  0  0  0
    6.5821    1.0953    8.6434 C   0  0  0  0  0  0  0  0  0  0  0  0
    7.1388    1.6122    7.8552 H   0  0  0  0  0  0  0  0  0  0  0  0
    6.6816    0.0181    8.4887 H   0  0  0  0  0  0  0  0  0  0  0  0
    5.8071    0.0365    5.4284 C   0  0  0  0  0  0  0  0  0  0  0  0
    6.5009   -0.2815    6.2084 H   0  0  0  0  0  0  0  0  0  0  0  0
    6.1432    1.0073    5.0496 H   0  0  0  0  0  0  0  0  0  0  0  0
    5.8090   -1.0022    4.2936 C   0  0  0  0  0  0  0  0  0  0  0  0
    6.7973   -0.9762    3.8284 H   0  0  0  0  0  0  0  0  0  0  0  0
    5.6760   -1.9974    4.7225 H   0  0  0  0  0  0  0  0  0  0  0  0
    4.7353   -0.7618    3.2206 C   0  0  0  0  0  0  0  0  0  0  0  0
    5.1613   -1.0583    2.2601 H   0  0  0  0  0  0  0  0  0  0  0  0
    4.5295    0.3079    3.1578 H   0  0  0  0  0  0  0  0  0  0  0  0
    3.4121   -1.5348    3.4117 C   0  0  0  0  0  0  0  0  0  0  0  0
    3.2028   -2.0765    2.4871 H   0  0  0  0  0  0  0  0  0  0  0  0
    3.5305   -2.2838    4.1967 H   0  0  0  0  0  0  0  0  0  0  0  0
    2.1816   -0.6727    3.7295 C   0  0  0  0  0  0  0  0  0  0  0  0
    1.2869   -1.1680    3.3471 H   0  0  0  0  0  0  0  0  0  0  0  0
    2.2694    0.2868    3.2162 H   0  0  0  0  0  0  0  0  0  0  0  0
    1.9631   -0.4271    5.2314 C   0  0  0  0  0  0  0  0  0  0  0  0
    1.1769    0.3147    5.3817 H   0  0  0  0  0  0  0  0  0  0  0  0
    1.6456   -1.3493    5.7276 H   0  0  0  0  0  0  0  0  0  0  0  0
  2  3  1  0  0  0  0
  3  7  1  0  0  0  0
  4 22  1  0  0  0  0
  4  3  2  0  0  0  0
  5  6  2  0  0  0  0
  5  2  1  0  0  0  0
  7  8  1  0  0  0  0
  7 10  1  0  0  0  0
  9  7  1  0  0  0  0
 10 13  1  0  0  0  0
 10 12  1  0  0  0  0
 11 10  1  0  0  0  0
 13 14  1  0  0  0  0
 13 15  1  0  0  0  0
 16 18  1  0  0  0  0
 16 13  1  0  0  0  0
 17 16  1  0  0  0  0
 19 16  1  0  0  0  0
 19 20  1  0  0  0  0
 21 19  1  0  0  0  0
 22 19  1  0  0  0  0
 23 22  1  0  0  0  0
 24 22  1  0  0  0  0
 25  6  1  0  0  0  0
 25 26  1  0  0  0  0
 27 25  1  0  0  0  0
 28 30  1  0  0  0  0
 28 25  1  0  0  0  0
 29 28  1  0  0  0  0
 31 34  1  0  0  0  0
 31 28  1  0  0  0  0
 32 31  1  0  0  0  0
 33 31  1  0  0  0  0
 34 37  1  0  0  0  0
 34 36  1  0  0  0  0
 35 34  1  0  0  0  0
 37 40  1  0  0  0  0
 38 37  1  0  0  0  0
 39 37  1  0  0  0  0
 40 41  1  0  0  0  0
 40 42  1  0  0  0  0
 40  5  1  0  0  0  0
M  END
$$$$
