CSD_code = XAHNOM | q = 0 | S = 0 | Stoichiometry = C26H24Cl2O12P2Pt | MND = 4
 OpenBabel04212202113D

 67 71  0  0  0  0  0  0  0  0999 V2000
   10.5050    3.5024    2.7236 Pt  0  0  0  0  0  0  0  0  0  0  0  0
   10.7178    5.3057    4.2104 Cl  0  0  0  0  0  0  0  0  0  0  0  0
   10.0141    2.0915    1.0411 P   0  0  0  0  0  4  0  0  0  0  0  0
    8.4307    1.7625    0.9864 O   0  0  0  0  0  0  0  0  0  0  0  0
    8.2255   -1.0394    0.9281 O   0  0  0  0  0  0  0  0  0  0  0  0
    6.6602    1.0251    4.0559 O   0  0  0  0  0  0  0  0  0  0  0  0
   10.4615    0.5241    0.9945 O   0  0  0  0  0  0  0  0  0  0  0  0
   12.3818    2.2537    0.8263 O   0  0  0  0  0  0  0  0  0  0  0  0
   13.2480   -1.5104    2.0004 O   0  0  0  0  0  0  0  0  0  0  0  0
   10.1118    2.8503   -0.6403 C   0  0  0  0  0  0  0  0  0  0  0  0
    7.8281    1.0439    1.9998 C   0  0  0  0  0  0  0  0  0  0  0  0
    7.7935   -0.4149    1.8874 C   0  0  0  0  0  0  0  0  0  0  0  0
    7.1833   -1.0457    3.0500 C   0  0  0  0  0  0  0  0  0  0  0  0
    6.6689   -0.3081    4.0452 C   0  0  0  0  0  0  0  0  0  0  0  0
    7.2668    1.6900    3.0559 C   0  0  0  0  0  0  0  0  0  0  0  0
    7.2359    3.1693    3.2129 C   0  0  0  0  0  0  0  0  0  0  0  0
   11.7030    0.1114    1.3067 C   0  0  0  0  0  0  0  0  0  0  0  0
   12.7312    1.1192    1.1862 C   0  0  0  0  0  0  0  0  0  0  0  0
   14.0537    0.6631    1.5054 C   0  0  0  0  0  0  0  0  0  0  0  0
   14.2254   -0.6204    1.8909 C   0  0  0  0  0  0  0  0  0  0  0  0
   11.9742   -1.1555    1.7226 C   0  0  0  0  0  0  0  0  0  0  0  0
   10.9595   -2.2215    1.9253 C   0  0  0  0  0  0  0  0  0  0  0  0
   10.5538    2.1215   -1.3217 H   0  0  0  0  0  0  0  0  0  0  0  0
    9.0735    3.0171   -0.9245 H   0  0  0  0  0  0  0  0  0  0  0  0
    7.1589   -2.1222    3.0861 H   0  0  0  0  0  0  0  0  0  0  0  0
    6.2025   -0.7218    4.9286 H   0  0  0  0  0  0  0  0  0  0  0  0
    7.1285    3.6332    2.2383 H   0  0  0  0  0  0  0  0  0  0  0  0
    8.1797    3.5188    3.6556 H   0  0  0  0  0  0  0  0  0  0  0  0
    6.4255    3.4542    3.8783 H   0  0  0  0  0  0  0  0  0  0  0  0
   14.8907    1.3363    1.4339 H   0  0  0  0  0  0  0  0  0  0  0  0
   15.1881   -1.0404    2.1470 H   0  0  0  0  0  0  0  0  0  0  0  0
   10.6506   -2.2311    2.9711 H   0  0  0  0  0  0  0  0  0  0  0  0
   11.3804   -3.1933    1.6808 H   0  0  0  0  0  0  0  0  0  0  0  0
   10.0808   -2.0162    1.3165 H   0  0  0  0  0  0  0  0  0  0  0  0
   10.9968    4.9126    1.0407 P   0  0  0  0  0  4  0  0  0  0  0  0
   12.5803    5.2413    0.9866 O   0  0  0  0  0  0  0  0  0  0  0  0
   12.7870    8.0431    0.9281 O   0  0  0  0  0  0  0  0  0  0  0  0
   14.3508    5.9779    4.0563 O   0  0  0  0  0  0  0  0  0  0  0  0
   10.5494    6.4800    0.9926 O   0  0  0  0  0  0  0  0  0  0  0  0
    8.6287    4.7505    0.8261 O   0  0  0  0  0  0  0  0  0  0  0  0
    7.7641    8.5144    2.0024 O   0  0  0  0  0  0  0  0  0  0  0  0
   10.8995    4.1531   -0.6403 C   0  0  0  0  0  0  0  0  0  0  0  0
   13.1830    5.9596    2.0000 C   0  0  0  0  0  0  0  0  0  0  0  0
   13.2189    7.4183    1.8873 C   0  0  0  0  0  0  0  0  0  0  0  0
   13.8298    8.0489    3.0496 C   0  0  0  0  0  0  0  0  0  0  0  0
   14.3436    7.3112    4.0450 C   0  0  0  0  0  0  0  0  0  0  0  0
   13.7435    5.3134    3.0564 C   0  0  0  0  0  0  0  0  0  0  0  0
   13.7729    3.8341    3.2140 C   0  0  0  0  0  0  0  0  0  0  0  0
    9.3082    6.8926    1.3062 C   0  0  0  0  0  0  0  0  0  0  0  0
    8.2798    5.8848    1.1866 C   0  0  0  0  0  0  0  0  0  0  0  0
    6.9577    6.3410    1.5076 C   0  0  0  0  0  0  0  0  0  0  0  0
    6.7866    7.6243    1.8940 C   0  0  0  0  0  0  0  0  0  0  0  0
    9.0376    8.1595    1.7227 C   0  0  0  0  0  0  0  0  0  0  0  0
   10.0524    9.2256    1.9239 C   0  0  0  0  0  0  0  0  0  0  0  0
   10.4576    4.8816   -1.3222 H   0  0  0  0  0  0  0  0  0  0  0  0
   11.9378    3.9862   -0.9243 H   0  0  0  0  0  0  0  0  0  0  0  0
   13.8554    9.1254    3.0854 H   0  0  0  0  0  0  0  0  0  0  0  0
   14.8108    7.7247    4.9281 H   0  0  0  0  0  0  0  0  0  0  0  0
   13.8797    3.3697    2.2395 H   0  0  0  0  0  0  0  0  0  0  0  0
   12.8287    3.4858    3.6568 H   0  0  0  0  0  0  0  0  0  0  0  0
   14.5831    3.5485    3.8794 H   0  0  0  0  0  0  0  0  0  0  0  0
    6.1206    5.6680    1.4370 H   0  0  0  0  0  0  0  0  0  0  0  0
    5.8243    8.0444    2.1515 H   0  0  0  0  0  0  0  0  0  0  0  0
   10.3609    9.2371    2.9698 H   0  0  0  0  0  0  0  0  0  0  0  0
    9.6319   10.1970    1.6774 H   0  0  0  0  0  0  0  0  0  0  0  0
   10.9313    9.0190    1.3158 H   0  0  0  0  0  0  0  0  0  0  0  0
   10.2907    1.7005    4.2121 Cl  0  0  0  0  0  0  0  0  0  0  0  0
  1  2  1  0  0  0  0
  1 67  1  0  0  0  0
  3  1  1  0  0  0  0
  4  3  1  0  0  0  0
  4 11  1  0  0  0  0
  5 12  2  0  0  0  0
  7  3  1  0  0  0  0
  7 17  1  0  0  0  0
  8 18  2  0  0  0  0
 10  3  1  0  0  0  0
 11 15  2  0  0  0  0
 12 11  1  0  0  0  0
 12 13  1  0  0  0  0
 13 25  1  0  0  0  0
 13 14  2  0  0  0  0
 14  6  1  0  0  0  0
 14 26  1  0  0  0  0
 15 16  1  0  0  0  0
 15  6  1  0  0  0  0
 16 28  1  0  0  0  0
 16 29  1  0  0  0  0
 17 21  2  0  0  0  0
 18 17  1  0  0  0  0
 18 19  1  0  0  0  0
 19 20  2  0  0  0  0
 20  9  1  0  0  0  0
 20 31  1  0  0  0  0
 21 22  1  0  0  0  0
 21  9  1  0  0  0  0
 22 32  1  0  0  0  0
 23 10  1  0  0  0  0
 24 10  1  0  0  0  0
 27 16  1  0  0  0  0
 30 19  1  0  0  0  0
 33 22  1  0  0  0  0
 34 22  1  0  0  0  0
 35  1  1  0  0  0  0
 36 35  1  0  0  0  0
 36 43  1  0  0  0  0
 37 44  2  0  0  0  0
 39 35  1  0  0  0  0
 39 49  1  0  0  0  0
 40 50  2  0  0  0  0
 42 10  1  0  0  0  0
 42 35  1  0  0  0  0
 43 47  2  0  0  0  0
 44 43  1  0  0  0  0
 44 45  1  0  0  0  0
 45 57  1  0  0  0  0
 45 46  2  0  0  0  0
 46 38  1  0  0  0  0
 46 58  1  0  0  0  0
 47 48  1  0  0  0  0
 47 38  1  0  0  0  0
 48 60  1  0  0  0  0
 48 61  1  0  0  0  0
 49 53  2  0  0  0  0
 50 49  1  0  0  0  0
 50 51  1  0  0  0  0
 51 52  2  0  0  0  0
 52 41  1  0  0  0  0
 52 63  1  0  0  0  0
 53 54  1  0  0  0  0
 53 41  1  0  0  0  0
 54 64  1  0  0  0  0
 55 42  1  0  0  0  0
 56 42  1  0  0  0  0
 59 48  1  0  0  0  0
 62 51  1  0  0  0  0
 65 54  1  0  0  0  0
 66 54  1  0  0  0  0
M  END
$$$$
