CSD_code = XAHVIO | q = 0 | S = 0 | Stoichiometry = C17H17ClN2OPd | MND = 4
 OpenBabel04212202113D

 39 42  0  0  1  0  0  0  0  0999 V2000
    0.7954   -2.1387    7.0116 Pd  0  0  1  0  0  0  0  0  0  0  0  0
    1.6010   -4.1670    6.8944 Cl  0  0  0  0  0  0  0  0  0  0  0  0
    1.9742   -1.1406    5.3155 O   0  0  0  0  0  0  0  0  0  0  0  0
    0.1284   -0.2660    7.0665 N   0  0  2  0  0  0  0  0  0  0  0  0
    0.8767    0.5759    6.2890 N   0  0  0  0  0  0  0  0  0  0  0  0
    0.7160    1.5781    6.3659 H   0  0  0  0  0  0  0  0  0  0  0  0
   -1.7521   -0.5447    8.5400 C   0  0  0  0  0  0  0  0  0  0  0  0
   -1.5061   -1.9121    8.8385 C   0  0  0  0  0  0  0  0  0  0  0  0
   -2.5600   -2.6801    9.3321 C   0  0  0  0  0  0  0  0  0  0  0  0
   -2.3860   -3.7281    9.5276 H   0  0  0  0  0  0  0  0  0  0  0  0
   -3.8032   -2.1380    9.6032 C   0  0  0  0  0  0  0  0  0  0  0  0
   -3.9940   -0.7731    9.3982 C   0  0  0  0  0  0  0  0  0  0  0  0
   -4.9527   -0.3361    9.6389 H   0  0  0  0  0  0  0  0  0  0  0  0
   -2.9999    0.0276    8.8730 C   0  0  0  0  0  0  0  0  0  0  0  0
   -0.1656   -2.5179    8.7567 C   0  0  0  0  0  0  0  0  0  0  0  0
   -0.1972   -3.5818    9.0052 H   0  0  0  0  0  0  0  0  0  0  0  0
    0.5357   -2.0013    9.4428 H   0  0  0  0  0  0  0  0  0  0  0  0
   -4.9091   -2.9818   10.1545 C   0  0  0  0  0  0  0  0  0  0  0  0
   -4.7581   -4.0287    9.9040 H   0  0  0  0  0  0  0  0  0  0  0  0
   -5.8728   -2.6577    9.7673 H   0  0  0  0  0  0  0  0  0  0  0  0
   -4.9371   -2.8926   11.2413 H   0  0  0  0  0  0  0  0  0  0  0  0
   -3.2933    1.4807    8.6298 C   0  0  0  0  0  0  0  0  0  0  0  0
   -3.2769    1.7098    7.5647 H   0  0  0  0  0  0  0  0  0  0  0  0
   -2.5676    2.1186    9.1330 H   0  0  0  0  0  0  0  0  0  0  0  0
   -4.2804    1.7295    9.0104 H   0  0  0  0  0  0  0  0  0  0  0  0
   -0.8019    0.2428    7.8075 C   0  0  0  0  0  3  0  0  0  0  0  0
   -0.9370    1.3251    7.7901 H   0  0  0  0  0  0  0  0  0  0  0  0
    1.7472    0.0646    5.3709 C   0  0  1  0  0  3  0  0  0  0  0  0
    2.4222    1.0308    4.4782 C   0  0  0  0  0  0  0  0  0  0  0  0
    3.6435    0.6414    3.9278 C   0  0  0  0  0  0  0  0  0  0  0  0
    4.0361   -0.3316    4.1812 H   0  0  0  0  0  0  0  0  0  0  0  0
    4.3295    1.4907    3.0818 C   0  0  0  0  0  0  0  0  0  0  0  0
    5.2768    1.1850    2.6649 H   0  0  0  0  0  0  0  0  0  0  0  0
    3.7991    2.7319    2.7672 C   0  0  0  0  0  0  0  0  0  0  0  0
    4.3324    3.3968    2.1048 H   0  0  0  0  0  0  0  0  0  0  0  0
    2.5765    3.1170    3.2938 C   0  0  0  0  0  0  0  0  0  0  0  0
    2.1551    4.0767    3.0345 H   0  0  0  0  0  0  0  0  0  0  0  0
    1.8872    2.2747    4.1468 C   0  0  0  0  0  0  0  0  0  0  0  0
    0.9200    2.5822    4.5188 H   0  0  0  0  0  0  0  0  0  0  0  0
  1  2  1  6  0  0  0
  1  4  1  0  0  0  0
  1 15  1  0  0  0  0
  3 28  1  0  0  0  0
  3  1  1  0  0  0  0
  4 26  1  1  0  0  0
  5  6  1  0  0  0  0
  5  4  1  0  0  0  0
  7  8  2  0  0  0  0
  7 14  1  0  0  0  0
  8  9  1  0  0  0  0
  9 10  1  0  0  0  0
  9 11  2  0  0  0  0
 11 18  1  0  0  0  0
 12 11  1  0  0  0  0
 12 13  1  0  0  0  0
 14 12  2  0  0  0  0
 15  8  1  0  0  0  0
 15 16  1  0  0  0  0
 15 17  1  0  0  0  0
 18 21  1  0  0  0  0
 19 18  1  0  0  0  0
 20 18  1  0  0  0  0
 22 14  1  0  0  0  0
 22 25  1  0  0  0  0
 22 24  1  0  0  0  0
 23 22  1  0  0  0  0
 26  7  1  0  0  0  0
 27 26  1  0  0  0  0
 28 29  1  1  0  0  0
 28  5  1  0  0  0  0
 30 31  1  0  0  0  0
 30 29  2  0  0  0  0
 32 30  1  0  0  0  0
 33 32  1  0  0  0  0
 34 32  2  0  0  0  0
 34 36  1  0  0  0  0
 35 34  1  0  0  0  0
 36 38  2  0  0  0  0
 37 36  1  0  0  0  0
 38 29  1  0  0  0  0
 38 39  1  0  0  0  0
M  END
$$$$
