CSD_code = XAHYOV | q = 0 | S = 0 | Stoichiometry = C11H18ClN2O3Re | MND = 6
 OpenBabel04212202113D

 36 37  0  0  0  0  0  0  0  0999 V2000
    6.3016    6.0930    7.1369 Re  0  0  0  0  0  0  0  0  0  0  0  0
    5.3918    7.7680    7.5211 C   0  0  0  0  0  2  0  0  0  0  0  0
    4.8388    8.7184    7.8404 O   0  0  0  0  0  1  0  0  0  0  0  0
    4.7468    5.4043    6.1940 C   0  0  0  0  0  2  0  0  0  0  0  0
    3.8095    4.9457    5.7227 O   0  0  0  0  0  1  0  0  0  0  0  0
    7.1585    6.7577    5.5366 C   0  0  0  0  0  2  0  0  0  0  0  0
    7.7164    7.1328    4.5978 O   0  0  0  0  0  1  0  0  0  0  0  0
    5.5667    5.1436    9.1844 Cl  0  0  0  0  0  0  0  0  0  0  0  0
    8.0466    6.6182    8.4826 N   0  0  0  0  0  4  0  0  0  0  0  0
    7.7793    6.1019    9.3289 H   0  0  0  0  0  0  0  0  0  0  0  0
    9.4879    6.6721    8.2797 C   0  0  0  0  0  0  0  0  0  0  0  0
   10.1143    6.0812    8.9375 H   0  0  0  0  0  0  0  0  0  0  0  0
    9.8130    6.6822    7.2475 H   0  0  0  0  0  0  0  0  0  0  0  0
    8.7601    7.8463    8.8099 C   0  0  0  0  0  0  0  0  0  0  0  0
    8.8762    8.1879   10.2773 C   0  0  0  0  0  0  0  0  0  0  0  0
    9.1021    7.3061   10.8747 H   0  0  0  0  0  0  0  0  0  0  0  0
    7.9405    8.6158   10.6337 H   0  0  0  0  0  0  0  0  0  0  0  0
    9.6669    8.9192   10.4309 H   0  0  0  0  0  0  0  0  0  0  0  0
    8.5213    9.0357    7.9112 C   0  0  0  0  0  0  0  0  0  0  0  0
    7.6589    9.6000    8.2585 H   0  0  0  0  0  0  0  0  0  0  0  0
    8.3307    8.7139    6.8901 H   0  0  0  0  0  0  0  0  0  0  0  0
    9.3911    9.6894    7.9209 H   0  0  0  0  0  0  0  0  0  0  0  0
    7.3564    4.0894    7.0628 N   0  0  0  0  0  4  0  0  0  0  0  0
    7.1319    3.7369    8.0006 H   0  0  0  0  0  0  0  0  0  0  0  0
    8.6669    3.6618    6.5924 C   0  0  0  0  0  0  0  0  0  0  0  0
    9.1830    4.3632    5.9499 H   0  0  0  0  0  0  0  0  0  0  0  0
    9.3112    3.1422    7.2918 H   0  0  0  0  0  0  0  0  0  0  0  0
    7.4387    3.0059    6.0912 C   0  0  0  0  0  0  0  0  0  0  0  0
    7.0811    1.6250    6.5897 C   0  0  0  0  0  0  0  0  0  0  0  0
    7.4660    0.8688    5.9087 H   0  0  0  0  0  0  0  0  0  0  0  0
    5.9987    1.5186    6.6425 H   0  0  0  0  0  0  0  0  0  0  0  0
    7.4949    1.4394    7.5795 H   0  0  0  0  0  0  0  0  0  0  0  0
    6.9590    3.3057    4.6915 C   0  0  0  0  0  0  0  0  0  0  0  0
    7.1498    4.3447    4.4338 H   0  0  0  0  0  0  0  0  0  0  0  0
    5.8890    3.1257    4.6160 H   0  0  0  0  0  0  0  0  0  0  0  0
    7.4705    2.6632    3.9778 H   0  0  0  0  0  0  0  0  0  0  0  0
  1  2  1  0  0  0  0
  1  9  1  0  0  0  0
  1  8  1  0  0  0  0
  2  3  1  0  0  0  0
  4  1  1  0  0  0  0
  5  4  1  0  0  0  0
  6  1  1  0  0  0  0
  7  6  1  0  0  0  0
  9 14  1  0  0  0  0
  9 10  1  0  0  0  0
 11  9  1  0  0  0  0
 11 14  1  0  0  0  0
 11 12  1  0  0  0  0
 13 11  1  0  0  0  0
 14 15  1  0  0  0  0
 15 18  1  0  0  0  0
 15 17  1  0  0  0  0
 15 16  1  0  0  0  0
 19 22  1  0  0  0  0
 19 20  1  0  0  0  0
 19 14  1  0  0  0  0
 21 19  1  0  0  0  0
 23  1  1  0  0  0  0
 23 24  1  0  0  0  0
 25 23  1  0  0  0  0
 25 27  1  0  0  0  0
 26 25  1  0  0  0  0
 28 29  1  0  0  0  0
 28 25  1  0  0  0  0
 28 23  1  0  0  0  0
 29 31  1  0  0  0  0
 29 32  1  0  0  0  0
 30 29  1  0  0  0  0
 33 28  1  0  0  0  0
 34 33  1  0  0  0  0
 35 33  1  0  0  0  0
 36 33  1  0  0  0  0
M  END
$$$$
