CSD_code = XAHYIP | q = 0 | S = 0 | Stoichiometry = C11H18BrMnN2O3 | MND = 6
 OpenBabel04212202113D

 36 37  0  0  0  0  0  0  0  0999 V2000
   13.7053    8.7390    1.3626 Br  0  0  0  0  0  0  0  0  0  0  0  0
   15.3805    8.0642    3.0063 Mn  0  0  0  0  0  0  0  0  0  0  0  0
   17.4228    7.2378    4.9227 O   0  0  0  0  0  1  0  0  0  0  0  0
   14.4737   10.1514    4.8486 O   0  0  0  0  0  1  0  0  0  0  0  0
   13.4066    6.3831    4.3662 O   0  0  0  0  0  1  0  0  0  0  0  0
   15.9659    6.5563    1.5148 N   0  0  0  0  0  4  0  0  0  0  0  0
   16.7472    9.3631    1.8705 N   0  0  0  0  0  4  0  0  0  0  0  0
   16.6396    7.5628    4.1370 C   0  0  0  0  0  2  0  0  0  0  0  0
   14.8607    9.3585    4.1119 C   0  0  0  0  0  2  0  0  0  0  0  0
   14.1962    7.0078    3.8118 C   0  0  0  0  0  2  0  0  0  0  0  0
   17.2357    5.9071    1.2076 C   0  0  0  0  0  0  0  0  0  0  0  0
   17.6082    5.9893    0.1931 H   0  0  0  0  0  0  0  0  0  0  0  0
   18.0004    5.9877    1.9690 H   0  0  0  0  0  0  0  0  0  0  0  0
   16.0297    5.0975    1.4864 C   0  0  0  0  0  0  0  0  0  0  0  0
   15.3121    4.4215    0.3407 C   0  0  0  0  0  0  0  0  0  0  0  0
   14.2407    4.3981    0.5343 H   0  0  0  0  0  0  0  0  0  0  0  0
   15.6623    3.3974    0.2331 H   0  0  0  0  0  0  0  0  0  0  0  0
   15.4809    4.9430   -0.6001 H   0  0  0  0  0  0  0  0  0  0  0  0
   15.9100    4.3747    2.8059 C   0  0  0  0  0  0  0  0  0  0  0  0
   16.4104    3.4103    2.7458 H   0  0  0  0  0  0  0  0  0  0  0  0
   14.8628    4.2057    3.0480 H   0  0  0  0  0  0  0  0  0  0  0  0
   16.3620    4.9537    3.6084 H   0  0  0  0  0  0  0  0  0  0  0  0
   18.1819    9.3108    1.6122 C   0  0  0  0  0  0  0  0  0  0  0  0
   18.7521    8.6576    2.2596 H   0  0  0  0  0  0  0  0  0  0  0  0
   18.5049    9.3034    0.5776 H   0  0  0  0  0  0  0  0  0  0  0  0
   17.5685   10.5292    2.1838 C   0  0  0  0  0  0  0  0  0  0  0  0
   17.3697   11.7407    1.3021 C   0  0  0  0  0  0  0  0  0  0  0  0
   17.2838   11.4619    0.2531 H   0  0  0  0  0  0  0  0  0  0  0  0
   18.2108   12.4222    1.4085 H   0  0  0  0  0  0  0  0  0  0  0  0
   16.4630   12.2685    1.5937 H   0  0  0  0  0  0  0  0  0  0  0  0
   17.7812   10.8528    3.6426 C   0  0  0  0  0  0  0  0  0  0  0  0
   16.9665   11.4718    4.0127 H   0  0  0  0  0  0  0  0  0  0  0  0
   18.7140   11.3988    3.7680 H   0  0  0  0  0  0  0  0  0  0  0  0
   17.8247    9.9445    4.2397 H   0  0  0  0  0  0  0  0  0  0  0  0
   15.5041    6.8990    0.6650 H   0  0  0  0  0  0  0  0  0  0  0  0
   16.2170    9.5344    1.0089 H   0  0  0  0  0  0  0  0  0  0  0  0
  1  2  1  0  0  0  0
  2 10  1  0  0  0  0
  2  9  1  0  0  0  0
  2  8  1  0  0  0  0
  6  2  1  0  0  0  0
  7 26  1  0  0  0  0
  7  2  1  0  0  0  0
  8  3  1  0  0  0  0
  9  4  1  0  0  0  0
 10  5  1  0  0  0  0
 11 14  1  0  0  0  0
 11  6  1  0  0  0  0
 11 13  1  0  0  0  0
 12 11  1  0  0  0  0
 14  6  1  0  0  0  0
 14 19  1  0  0  0  0
 15 16  1  0  0  0  0
 15 14  1  0  0  0  0
 17 15  1  0  0  0  0
 18 15  1  0  0  0  0
 19 21  1  0  0  0  0
 19 22  1  0  0  0  0
 20 19  1  0  0  0  0
 23  7  1  0  0  0  0
 23 26  1  0  0  0  0
 23 24  1  0  0  0  0
 25 23  1  0  0  0  0
 26 31  1  0  0  0  0
 27 29  1  0  0  0  0
 27 30  1  0  0  0  0
 27 26  1  0  0  0  0
 28 27  1  0  0  0  0
 31 33  1  0  0  0  0
 31 32  1  0  0  0  0
 31 34  1  0  0  0  0
 35  6  1  0  0  0  0
 36  7  1  0  0  0  0
M  END
$$$$
