CSD_code = XAKFEW | q = 0 | S = 0 | Stoichiometry = C32H24CdCl2N4O4 | MND = 4
 OpenBabel04212202113D

 67 74  0  0  1  0  0  0  0  0999 V2000
    7.2347   -1.1766    3.9010 Cd  0  0  0  0  0  0  0  0  0  0  0  0
    9.1720   -2.3479    4.5125 Cl  0  0  0  0  0  0  0  0  0  0  0  0
    8.9624    1.1294    4.2198 O   0  0  0  0  0  0  0  0  0  0  0  0
    7.7831    5.2323    1.1359 O   0  0  0  0  0  0  0  0  0  0  0  0
    7.7697    0.0874    1.9785 N   0  0  0  0  0  0  0  0  0  0  0  0
    8.2815    1.8469    0.7100 N   0  0  0  0  0  0  0  0  0  0  0  0
    7.4319   -0.2109    0.6879 C   0  0  0  0  0  0  0  0  0  0  0  0
    6.8605   -1.3614    0.1503 C   0  0  0  0  0  0  0  0  0  0  0  0
    6.6032   -2.1931    0.7901 H   0  0  0  0  0  0  0  0  0  0  0  0
    6.6292   -1.3698   -1.2079 C   0  0  0  0  0  0  0  0  0  0  0  0
    6.1856   -2.2406   -1.6653 H   0  0  0  0  0  0  0  0  0  0  0  0
    6.9544   -0.2763   -2.0170 C   0  0  0  0  0  0  0  0  0  0  0  0
    6.7575   -0.3322   -3.0771 H   0  0  0  0  0  0  0  0  0  0  0  0
    7.5159    0.8732   -1.4981 C   0  0  0  0  0  0  0  0  0  0  0  0
    7.7603    1.7123   -2.1319 H   0  0  0  0  0  0  0  0  0  0  0  0
    7.7486    0.8949   -0.1305 C   0  0  0  0  0  0  0  0  0  0  0  0
    8.2580    1.3097    1.9672 C   0  0  2  0  0  3  0  0  0  0  0  0
    8.7126    1.9495    3.1755 C   0  0  0  0  0  0  0  0  0  0  0  0
    8.9225    3.2551    3.5577 C   0  0  0  0  0  0  0  0  0  0  0  0
    8.7774    4.1424    2.9778 H   0  0  0  0  0  0  0  0  0  0  0  0
    9.3321    3.2056    4.9070 C   0  0  0  0  0  0  0  0  0  0  0  0
    9.5888    4.0387    5.5285 H   0  0  0  0  0  0  0  0  0  0  0  0
    9.3389    1.8858    5.2512 C   0  0  0  0  0  0  0  0  0  0  0  0
    9.5941    1.3794    6.1619 H   0  0  0  0  0  0  0  0  0  0  0  0
    8.7517    3.1449    0.2936 C   0  0  0  0  0  0  0  0  0  0  0  0
    9.1438    3.0418   -0.7237 H   0  0  0  0  0  0  0  0  0  0  0  0
    9.5619    3.4663    0.9516 H   0  0  0  0  0  0  0  0  0  0  0  0
    7.6549    4.1643    0.3183 C   0  0  0  0  0  0  0  0  0  0  0  0
    6.4674    4.2283   -0.3495 C   0  0  0  0  0  0  0  0  0  0  0  0
    6.0887    3.5197   -1.0566 H   0  0  0  0  0  0  0  0  0  0  0  0
    5.8333    5.4181    0.0855 C   0  0  0  0  0  0  0  0  0  0  0  0
    4.8832    5.7935   -0.2341 H   0  0  0  0  0  0  0  0  0  0  0  0
    6.6801    5.9851    0.9848 C   0  0  0  0  0  0  0  0  0  0  0  0
    6.6201    6.8876    1.5593 H   0  0  0  0  0  0  0  0  0  0  0  0
    5.2972   -2.3472    3.2884 Cl  0  0  0  0  0  0  0  0  0  0  0  0
    5.5062    1.1283    3.5828 O   0  0  0  0  0  0  0  0  0  0  0  0
    6.6897    5.2300    6.6633 O   0  0  0  0  0  0  0  0  0  0  0  0
    6.6999    0.0874    5.8238 N   0  0  0  0  0  0  0  0  0  0  0  0
    6.1881    1.8470    7.0921 N   0  0  0  0  0  0  0  0  0  0  0  0
    7.0380   -0.2107    7.1143 C   0  0  0  0  0  0  0  0  0  0  0  0
    7.6095   -1.3611    7.6519 C   0  0  0  0  0  0  0  0  0  0  0  0
    7.8670   -2.1927    7.0121 H   0  0  0  0  0  0  0  0  0  0  0  0
    7.8407   -1.3695    9.0102 C   0  0  0  0  0  0  0  0  0  0  0  0
    8.2843   -2.2402    9.4676 H   0  0  0  0  0  0  0  0  0  0  0  0
    7.5152   -0.2761    9.8192 C   0  0  0  0  0  0  0  0  0  0  0  0
    7.7118   -0.3321   10.8794 H   0  0  0  0  0  0  0  0  0  0  0  0
    6.9537    0.8735    9.3003 C   0  0  0  0  0  0  0  0  0  0  0  0
    6.7091    1.7125    9.9341 H   0  0  0  0  0  0  0  0  0  0  0  0
    6.7212    0.8951    7.9327 C   0  0  0  0  0  0  0  0  0  0  0  0
    6.2114    1.3097    5.8350 C   0  0  2  0  0  3  0  0  0  0  0  0
    5.7561    1.9490    4.6267 C   0  0  0  0  0  0  0  0  0  0  0  0
    5.5453    3.2543    4.2440 C   0  0  0  0  0  0  0  0  0  0  0  0
    5.6904    4.1419    4.8235 H   0  0  0  0  0  0  0  0  0  0  0  0
    5.1351    3.2040    2.8949 C   0  0  0  0  0  0  0  0  0  0  0  0
    4.8777    4.0367    2.2731 H   0  0  0  0  0  0  0  0  0  0  0  0
    5.1288    1.8841    2.5514 C   0  0  0  0  0  0  0  0  0  0  0  0
    4.8733    1.3771    1.6411 H   0  0  0  0  0  0  0  0  0  0  0  0
    5.7182    3.1452    7.5086 C   0  0  0  0  0  0  0  0  0  0  0  0
    5.3259    3.0421    8.5258 H   0  0  0  0  0  0  0  0  0  0  0  0
    4.9083    3.4669    6.8504 H   0  0  0  0  0  0  0  0  0  0  0  0
    6.8154    4.1642    7.4842 C   0  0  0  0  0  0  0  0  0  0  0  0
    8.0013    4.2296    8.1548 C   0  0  0  0  0  0  0  0  0  0  0  0
    8.3780    3.5229    8.8649 H   0  0  0  0  0  0  0  0  0  0  0  0
    8.6369    5.4180    7.7182 C   0  0  0  0  0  0  0  0  0  0  0  0
    9.5863    5.7940    8.0391 H   0  0  0  0  0  0  0  0  0  0  0  0
    7.7926    5.9828    6.8150 C   0  0  0  0  0  0  0  0  0  0  0  0
    7.8545    6.8836    6.2380 H   0  0  0  0  0  0  0  0  0  0  0  0
  1  2  1  0  0  0  0
  1 38  1  0  0  0  0
  3 23  1  0  0  0  0
  5  1  1  0  0  0  0
  6 17  1  0  0  0  0
  7  5  1  0  0  0  0
  8  7  1  0  0  0  0
  8  9  1  0  0  0  0
 10  8  2  0  0  0  0
 11 10  1  0  0  0  0
 12 14  2  0  0  0  0
 12 10  1  0  0  0  0
 13 12  1  0  0  0  0
 14 16  1  0  0  0  0
 15 14  1  0  0  0  0
 16  7  2  0  0  0  0
 16  6  1  0  0  0  0
 17  5  1  0  0  0  0
 17 18  1  6  0  0  0
 18 19  2  0  0  0  0
 18  3  1  0  0  0  0
 19 21  1  0  0  0  0
 20 19  1  0  0  0  0
 21 23  2  0  0  0  0
 21 22  1  0  0  0  0
 23 24  1  0  0  0  0
 25 28  1  0  0  0  0
 25  6  1  0  0  0  0
 25 27  1  0  0  0  0
 26 25  1  0  0  0  0
 28  4  1  0  0  0  0
 29 31  1  0  0  0  0
 29 28  2  0  0  0  0
 30 29  1  0  0  0  0
 31 33  2  0  0  0  0
 32 31  1  0  0  0  0
 33  4  1  0  0  0  0
 33 34  1  0  0  0  0
 35  1  1  0  0  0  0
 36 51  1  0  0  0  0
 37 66  1  0  0  0  0
 37 61  1  0  0  0  0
 38 50  1  0  0  0  0
 38 40  1  0  0  0  0
 39 58  1  0  0  0  0
 39 49  1  0  0  0  0
 40 41  2  0  0  0  0
 40 49  1  0  0  0  0
 41 43  1  0  0  0  0
 42 41  1  0  0  0  0
 43 44  1  0  0  0  0
 43 45  2  0  0  0  0
 45 46  1  0  0  0  0
 47 45  1  0  0  0  0
 47 48  1  0  0  0  0
 49 47  2  0  0  0  0
 50 51  1  1  0  0  0
 50 39  1  0  0  0  0
 52 51  2  0  0  0  0
 52 53  1  0  0  0  0
 54 52  1  0  0  0  0
 55 54  1  0  0  0  0
 56 54  2  0  0  0  0
 56 36  1  0  0  0  0
 57 56  1  0  0  0  0
 58 59  1  0  0  0  0
 60 58  1  0  0  0  0
 61 58  1  0  0  0  0
 61 62  2  0  0  0  0
 62 63  1  0  0  0  0
 64 65  1  0  0  0  0
 64 62  1  0  0  0  0
 66 64  2  0  0  0  0
 67 66  1  0  0  0  0
M  END
$$$$
