CSD_code = XAKGEX | q = 0 | S = 0 | Stoichiometry = C10H8Br4N2Pt | MND = 6
 OpenBabel04212202113D

 25 27  0  0  1  0  0  0  0  0999 V2000
   -0.0006    2.0913    1.9448 Pt  0  0  0  0  0  0  0  0  0  0  0  0
   -1.9665    0.6350    1.8227 Br  0  0  0  0  0  0  0  0  0  0  0  0
   -1.2814    3.5424    3.4458 Br  0  0  0  0  0  0  0  0  0  0  0  0
    1.0130    0.7726    3.8807 Br  0  0  0  0  0  0  0  0  0  0  0  0
   -0.6923    3.4097   -0.1272 Br  0  0  0  0  0  0  0  0  0  0  0  0
    1.7678    3.2379    1.9443 N   0  0  0  0  0  0  0  0  0  0  0  0
    1.2314    0.9473    0.6737 N   0  0  0  0  0  0  0  0  0  0  0  0
    1.9400    4.3722    2.6017 C   0  0  0  0  0  3  0  0  0  0  0  0
    1.1052    4.7274    3.1934 H   0  0  0  0  0  0  0  0  0  0  0  0
    3.1277    5.0818    2.5437 C   0  0  0  0  0  0  0  0  0  0  0  0
    3.2299    6.0019    3.0944 H   0  0  0  0  0  0  0  0  0  0  0  0
    4.1593    4.5793    1.7674 C   0  0  0  0  0  0  0  0  0  0  0  0
    5.0997    5.1027    1.6928 H   0  0  0  0  0  0  0  0  0  0  0  0
    3.9693    3.3910    1.0838 C   0  0  0  0  0  0  0  0  0  0  0  0
    4.7616    2.9899    0.4751 H   0  0  0  0  0  0  0  0  0  0  0  0
    2.7499    2.7241    1.1879 C   0  0  0  0  0  0  0  0  0  0  0  0
    2.4599    1.4588    0.5011 C   0  0  1  0  0  3  0  0  0  0  0  0
    3.3862    0.7900   -0.2972 C   0  0  0  0  0  0  0  0  0  0  0  0
    4.3763    1.1891   -0.4371 H   0  0  0  0  0  0  0  0  0  0  0  0
    3.0285   -0.3978   -0.9108 C   0  0  0  0  0  0  0  0  0  0  0  0
    3.7392   -0.9230   -1.5299 H   0  0  0  0  0  0  0  0  0  0  0  0
    1.7509   -0.8974   -0.7176 C   0  0  0  0  0  0  0  0  0  0  0  0
    1.4271   -1.8168   -1.1760 H   0  0  0  0  0  0  0  0  0  0  0  0
    0.8798   -0.1860    0.0902 C   0  0  0  0  0  0  0  0  0  0  0  0
   -0.1279   -0.5390    0.2723 H   0  0  0  0  0  0  0  0  0  0  0  0
  1  3  1  0  0  0  0
  1  4  1  0  0  0  0
  2  1  1  0  0  0  0
  5  1  1  0  0  0  0
  6  1  1  0  0  0  0
  6  8  1  0  0  0  0
  7  1  1  0  0  0  0
  8  9  1  0  0  0  0
 10  8  1  0  0  0  0
 10 11  1  0  0  0  0
 12 10  2  0  0  0  0
 13 12  1  0  0  0  0
 14 16  2  0  0  0  0
 14 12  1  0  0  0  0
 15 14  1  0  0  0  0
 16  6  1  0  0  0  0
 17 18  1  1  0  0  0
 17  7  1  0  0  0  0
 17 16  1  0  0  0  0
 19 18  1  0  0  0  0
 20 22  1  0  0  0  0
 20 18  2  0  0  0  0
 21 20  1  0  0  0  0
 22 24  2  0  0  0  0
 23 22  1  0  0  0  0
 24 25  1  0  0  0  0
 24  7  1  0  0  0  0
M  END
$$$$
