CSD_code = XAKHUO | q = 0 | S = 0 | Stoichiometry = C10H14CdCl2N6O2 | MND = 6
 OpenBabel04212202113D

 35 36  0  0  1  0  0  0  0  0999 V2000
    0.1669    5.0080    2.8712 Cd  0  0  0  0  0  0  0  0  0  0  0  0
    1.8374    4.2783    1.2959 Cl  0  0  0  0  0  0  0  0  0  0  0  0
   -0.4896    3.0043    4.0379 Cl  0  0  0  0  0  0  0  0  0  0  0  0
    0.9302    7.4619    3.1709 O   0  0  0  0  0  0  0  0  0  0  0  0
    0.5941    6.0290    4.8528 N   0  0  0  0  0  0  0  0  0  0  0  0
    0.3578    6.8016    7.0355 N   0  0  0  0  0  0  0  0  0  0  0  0
    0.1558    6.6030    8.0054 H   0  0  0  0  0  0  0  0  0  0  0  0
    0.0738    4.5486    6.5084 N   0  0  0  0  0  0  0  0  0  0  0  0
   -0.1111    3.8491    5.7468 H   0  0  0  0  0  0  0  0  0  0  0  0
   -0.2476    4.3617    7.4425 H   0  0  0  0  0  0  0  0  0  0  0  0
    0.8144    7.2956    4.3787 C   0  0  0  0  0  0  0  0  0  0  0  0
    0.8891    8.3629    5.3662 C   0  0  0  0  0  0  0  0  0  0  0  0
    1.1120    9.3586    5.0243 H   0  0  0  0  0  0  0  0  0  0  0  0
    0.6557    8.0925    6.6642 C   0  0  0  0  0  0  0  0  0  0  0  0
    0.3318    5.7868    6.1111 C   0  0  2  0  0  3  0  0  0  0  0  0
    0.6848    9.0964    7.7682 C   0  0  0  0  0  0  0  0  0  0  0  0
    0.9402   10.0770    7.3802 H   0  0  0  0  0  0  0  0  0  0  0  0
    1.4225    8.8129    8.5183 H   0  0  0  0  0  0  0  0  0  0  0  0
   -0.2890    9.1543    8.2535 H   0  0  0  0  0  0  0  0  0  0  0  0
   -2.1219    6.2699    3.0953 O   0  0  0  0  0  0  0  0  0  0  0  0
   -1.1437    5.7368    1.1557 N   0  0  0  0  0  0  0  0  0  0  0  0
   -1.9186    6.6372   -0.8473 N   0  0  0  0  0  0  0  0  0  0  0  0
   -1.8143    6.7366   -1.8473 H   0  0  0  0  0  0  0  0  0  0  0  0
   -0.0340    5.2684   -0.7813 N   0  0  0  0  0  0  0  0  0  0  0  0
    0.7109    4.8279   -0.1841 H   0  0  0  0  0  0  0  0  0  0  0  0
    0.1441    5.4477   -1.7543 H   0  0  0  0  0  0  0  0  0  0  0  0
   -2.1207    6.3746    1.8753 C   0  0  0  0  0  0  0  0  0  0  0  0
   -3.0980    7.1436    1.1169 C   0  0  0  0  0  0  0  0  0  0  0  0
   -3.9002    7.6186    1.6545 H   0  0  0  0  0  0  0  0  0  0  0  0
   -2.9739    7.2572   -0.2188 C   0  0  0  0  0  0  0  0  0  0  0  0
   -1.0179    5.8799   -0.1387 C   0  0  2  0  0  3  0  0  0  0  0  0
   -3.9006    8.0210   -1.1050 C   0  0  0  0  0  0  0  0  0  0  0  0
   -4.7051    8.4581   -0.5230 H   0  0  0  0  0  0  0  0  0  0  0  0
   -4.3308    7.3629   -1.8594 H   0  0  0  0  0  0  0  0  0  0  0  0
   -3.3640    8.8196   -1.6164 H   0  0  0  0  0  0  0  0  0  0  0  0
  1  3  1  0  0  0  0
  1  5  1  0  0  0  0
  2  1  1  0  0  0  0
  4 11  2  0  0  0  0
  5 15  1  0  0  0  0
  6  7  1  0  0  0  0
  8 10  1  0  0  0  0
  9  8  1  0  0  0  0
 11  5  1  0  0  0  0
 11 12  1  0  0  0  0
 12 14  2  0  0  0  0
 13 12  1  0  0  0  0
 14  6  1  0  0  0  0
 14 16  1  0  0  0  0
 15  8  1  1  0  0  0
 15  6  1  0  0  0  0
 16 19  1  0  0  0  0
 16 18  1  0  0  0  0
 17 16  1  0  0  0  0
 21 27  1  0  0  0  0
 21  1  1  0  0  0  0
 22 30  1  0  0  0  0
 22 31  1  0  0  0  0
 23 22  1  0  0  0  0
 24 25  1  0  0  0  0
 26 24  1  0  0  0  0
 27 20  2  0  0  0  0
 28 29  1  0  0  0  0
 28 27  1  0  0  0  0
 30 28  2  0  0  0  0
 31 24  1  6  0  0  0
 31 21  1  0  0  0  0
 32 33  1  0  0  0  0
 32 30  1  0  0  0  0
 34 32  1  0  0  0  0
 35 32  1  0  0  0  0
M  END
$$$$
