CSD_code = XAKKIF | q = 0 | S = 0 | Stoichiometry = C11H10Br2N2Zn | MND = 4
 OpenBabel04212202113D

 26 28  0  0  1  0  0  0  0  0999 V2000
    4.5470    9.2569    3.7896 C   0  0  0  0  0  0  0  0  0  0  0  0
    5.4170    8.7131    4.1611 H   0  0  0  0  0  0  0  0  0  0  0  0
    3.7348    8.5408    3.6555 H   0  0  0  0  0  0  0  0  0  0  0  0
    4.2479    9.9883    4.5346 H   0  0  0  0  0  0  0  0  0  0  0  0
    4.8659    9.9127    2.4920 C   0  0  2  0  0  3  0  0  0  0  0  0
    4.7057   11.2854    2.3079 C   0  0  0  0  0  0  0  0  0  0  0  0
    4.3461   11.8979    3.1190 H   0  0  0  0  0  0  0  0  0  0  0  0
    5.0143   11.8379    1.0806 C   0  0  0  0  0  0  0  0  0  0  0  0
    4.9015   12.8979    0.9108 H   0  0  0  0  0  0  0  0  0  0  0  0
    5.4718   11.0153    0.0637 C   0  0  0  0  0  0  0  0  0  0  0  0
    5.7111   11.4382   -0.8967 H   0  0  0  0  0  0  0  0  0  0  0  0
    5.6096    9.6525    0.3102 C   0  0  0  0  0  0  0  0  0  0  0  0
    6.0805    8.7032   -0.7149 C   0  0  2  0  0  3  0  0  0  0  0  0
    6.4635    9.1012   -1.9955 C   0  0  0  0  0  0  0  0  0  0  0  0
    6.4426   10.1386   -2.2836 H   0  0  0  0  0  0  0  0  0  0  0  0
    6.8810    8.1480   -2.9076 C   0  0  0  0  0  0  0  0  0  0  0  0
    7.1807    8.4431   -3.9018 H   0  0  0  0  0  0  0  0  0  0  0  0
    6.9075    6.8165   -2.5263 C   0  0  0  0  0  0  0  0  0  0  0  0
    7.2220    6.0413   -3.2054 H   0  0  0  0  0  0  0  0  0  0  0  0
    6.5198    6.5019   -1.2352 C   0  0  0  0  0  0  0  0  0  0  0  0
    6.5255    5.4783   -0.8845 H   0  0  0  0  0  0  0  0  0  0  0  0
    5.3075    9.1378    1.5070 N   0  0  0  0  0  0  0  0  0  0  0  0
    6.1229    7.4142   -0.3631 N   0  0  0  0  0  0  0  0  0  0  0  0
    7.8032    6.9800    2.7327 Br  0  0  0  0  0  0  0  0  0  0  0  0
    3.5715    6.0220    1.7687 Br  0  0  0  0  0  0  0  0  0  0  0  0
    5.6859    7.0437    1.6920 Zn  0  0  0  0  0  0  0  0  0  0  0  0
  1  2  1  0  0  0  0
  1  4  1  0  0  0  0
  3  1  1  0  0  0  0
  5  1  1  6  0  0  0
  6  5  1  0  0  0  0
  6  7  1  0  0  0  0
  8  6  2  0  0  0  0
  9  8  1  0  0  0  0
 10 12  2  0  0  0  0
 10  8  1  0  0  0  0
 11 10  1  0  0  0  0
 12 22  1  0  0  0  0
 13 14  1  6  0  0  0
 13 23  1  0  0  0  0
 13 12  1  0  0  0  0
 15 14  1  0  0  0  0
 16 18  1  0  0  0  0
 16 14  2  0  0  0  0
 17 16  1  0  0  0  0
 18 20  2  0  0  0  0
 19 18  1  0  0  0  0
 20 21  1  0  0  0  0
 20 23  1  0  0  0  0
 22 26  1  0  0  0  0
 22  5  1  0  0  0  0
 23 26  1  0  0  0  0
 26 25  1  0  0  0  0
 26 24  1  0  0  0  0
M  END
$$$$
