CSD_code = XAKMAZ | q = 0 | S = 0 | Stoichiometry = C13H12Cl2HgN2 | MND = 4
 OpenBabel04212202113D

 30 30  0  0  0  0  0  0  0  0999 V2000
    2.0684    3.2093    1.4051 Hg  0  0  0  0  0  0  0  0  0  0  0  0
    2.2075    5.2908    2.8280 N   0  0  0  0  0  0  0  0  0  0  0  0
    2.9501    6.3479    2.5504 C   0  0  0  0  0  0  0  0  0  0  0  0
    3.2711    6.4466    1.5212 H   0  0  0  0  0  0  0  0  0  0  0  0
    3.3078    7.2927    3.5041 C   0  0  0  0  0  0  0  0  0  0  0  0
    3.9185    8.1377    3.2290 H   0  0  0  0  0  0  0  0  0  0  0  0
    2.8698    7.1172    4.8062 C   0  0  0  0  0  0  0  0  0  0  0  0
    3.1325    7.8248    5.5785 H   0  0  0  0  0  0  0  0  0  0  0  0
    2.0871    6.0133    5.1003 C   0  0  0  0  0  0  0  0  0  0  0  0
    1.7233    5.8422    6.1020 H   0  0  0  0  0  0  0  0  0  0  0  0
    1.7720    5.1164    4.0809 C   0  0  0  0  0  0  0  0  0  0  0  0
    0.9458    3.9442    4.3579 C   0  0  0  0  0  0  0  0  0  0  0  0
    0.6772    3.7777    5.4070 H   0  0  0  0  0  0  0  0  0  0  0  0
    0.5561    3.1777    3.4319 N   0  0  0  0  0  0  0  0  0  0  0  0
   -0.2186    2.0005    3.7114 C   0  0  0  0  0  0  0  0  0  0  0  0
   -1.1984    2.1390    3.2425 H   0  0  0  0  0  0  0  0  0  0  0  0
   -0.3461    1.8381    4.7909 H   0  0  0  0  0  0  0  0  0  0  0  0
    0.4995    0.8443    3.0557 C   0  0  0  0  0  0  0  0  0  0  0  0
    0.3706    0.6451    1.6804 C   0  0  0  0  0  0  0  0  0  0  0  0
   -0.3490    1.2270    1.1150 H   0  0  0  0  0  0  0  0  0  0  0  0
    1.1049   -0.3512    1.0526 C   0  0  0  0  0  0  0  0  0  0  0  0
    0.9946   -0.5080   -0.0104 H   0  0  0  0  0  0  0  0  0  0  0  0
    1.9668   -1.1467    1.7902 C   0  0  0  0  0  0  0  0  0  0  0  0
    2.5468   -1.9136    1.2992 H   0  0  0  0  0  0  0  0  0  0  0  0
    2.0860   -0.9569    3.1559 C   0  0  0  0  0  0  0  0  0  0  0  0
    2.7585   -1.5747    3.7316 H   0  0  0  0  0  0  0  0  0  0  0  0
    1.3609    0.0392    3.7867 C   0  0  0  0  0  0  0  0  0  0  0  0
    1.4725    0.1964    4.8499 H   0  0  0  0  0  0  0  0  0  0  0  0
    3.8611    2.2660    2.4774 Cl  0  0  0  0  0  0  0  0  0  0  0  0
    1.0808    3.7891   -0.5588 Cl  0  0  0  0  0  0  0  0  0  0  0  0
  1 29  1  0  0  0  0
  2 11  1  0  0  0  0
  3  2  2  0  0  0  0
  3  5  1  0  0  0  0
  4  3  1  0  0  0  0
  5  7  2  0  0  0  0
  6  5  1  0  0  0  0
  7  9  1  0  0  0  0
  7  8  1  0  0  0  0
  9 10  1  0  0  0  0
 11 12  1  0  0  0  0
 11  9  2  0  0  0  0
 12 13  1  0  0  0  0
 14 15  1  0  0  0  0
 14 12  2  0  0  0  0
 15 17  1  0  0  0  0
 16 15  1  0  0  0  0
 18 15  1  0  0  0  0
 18 27  1  0  0  0  0
 19 18  2  0  0  0  0
 20 19  1  0  0  0  0
 21 19  1  0  0  0  0
 21 23  2  0  0  0  0
 22 21  1  0  0  0  0
 23 25  1  0  0  0  0
 24 23  1  0  0  0  0
 25 26  1  0  0  0  0
 25 27  2  0  0  0  0
 27 28  1  0  0  0  0
 30  1  1  0  0  0  0
M  END
$$$$
