CSD_code = XAKPEE | q = 0 | S = 0 | Stoichiometry = C5H12Cl2N2OPt | MND = 4
 OpenBabel04212202113D

 23 24  0  0  1  0  0  0  0  0999 V2000
   -0.2268    1.3201    4.7824 Pt  0  0  0  0  0  0  0  0  0  0  0  0
   -1.9228    2.7528    5.0868 Cl  0  0  0  0  0  0  0  0  0  0  0  0
    1.0610    2.2510    6.3562 Cl  0  0  0  0  0  0  0  0  0  0  0  0
    2.8318    1.1257    2.1646 O   0  0  0  0  0  0  0  0  0  0  0  0
   -1.2844    0.3052    3.2331 N   0  0  0  0  0  4  0  0  0  0  0  0
    1.2900   -0.0902    4.2607 N   0  0  0  0  0  4  0  0  0  0  0  0
   -0.2723   -0.2777    2.3561 C   0  0  2  0  0  0  0  0  0  0  0  0
    0.8621   -0.9610    3.1581 C   0  0  1  0  0  0  0  0  0  0  0  0
    1.9575   -1.0722    2.0953 C   0  0  0  0  0  0  0  0  0  0  0  0
    1.9376    0.3150    1.4326 C   0  0  1  0  0  0  0  0  0  0  0  0
    0.4731    0.7993    1.5524 C   0  0  0  0  0  0  0  0  0  0  0  0
   -0.7162   -1.0167    1.6729 H   0  0  0  0  0  0  0  0  0  0  0  0
    0.5466   -1.9297    3.5550 H   0  0  0  0  0  0  0  0  0  0  0  0
    2.8090    2.0310    1.8374 H   0  0  0  0  0  0  0  0  0  0  0  0
   -1.8748   -0.4097    3.6556 H   0  0  0  0  0  0  0  0  0  0  0  0
   -1.8910    0.9609    2.7421 H   0  0  0  0  0  0  0  0  0  0  0  0
    2.0413    0.5275    3.9352 H   0  0  0  0  0  0  0  0  0  0  0  0
    1.6490   -0.6116    5.0560 H   0  0  0  0  0  0  0  0  0  0  0  0
    2.9380   -1.2733    2.5221 H   0  0  0  0  0  0  0  0  0  0  0  0
    1.7169   -1.8486    1.3711 H   0  0  0  0  0  0  0  0  0  0  0  0
    2.2588    0.2640    0.3840 H   0  0  0  0  0  0  0  0  0  0  0  0
    0.4462    1.7357    2.1216 H   0  0  0  0  0  0  0  0  0  0  0  0
    0.0168    0.9709    0.5796 H   0  0  0  0  0  0  0  0  0  0  0  0
  1  2  1  0  0  0  0
  1  3  1  0  0  0  0
  5 15  1  0  0  0  0
  5  1  1  0  0  0  0
  6  1  1  0  0  0  0
  6 18  1  0  0  0  0
  7 12  1  6  0  0  0
  7  8  1  0  0  0  0
  7  5  1  0  0  0  0
  8 13  1  1  0  0  0
  8  6  1  0  0  0  0
  9 19  1  0  0  0  0
  9  8  1  0  0  0  0
 10 21  1  6  0  0  0
 10 11  1  0  0  0  0
 10  9  1  0  0  0  0
 10  4  1  0  0  0  0
 11 22  1  0  0  0  0
 11  7  1  0  0  0  0
 14  4  1  0  0  0  0
 16  5  1  0  0  0  0
 17  6  1  0  0  0  0
 20  9  1  0  0  0  0
 23 11  1  0  0  0  0
M  END
$$$$
