CSD_code = XALFUL | q = 0 | S = 0 | Stoichiometry = C17H30Cl2NPRu | MND = 5
 OpenBabel04212202113D

 52 53  0  0  0  0  0  0  0  0999 V2000
    5.2516    1.1775    4.7467 Ru  0  0  0  0  0  0  0  0  0  0  0  0
    6.4102    1.1985    2.7088 P   0  0  0  0  0  4  0  0  0  0  0  0
    7.1872    1.5509    5.9892 Cl  0  0  0  0  0  0  0  0  0  0  0  0
    3.5575   -0.0355    3.6984 Cl  0  0  0  0  0  0  0  0  0  0  0  0
    4.2927    0.7568    6.4811 N   0  0  0  0  0  0  0  0  0  0  0  0
    4.8341   -0.2443    7.1732 C   0  0  0  0  0  3  0  0  0  0  0  0
    5.8028   -0.6065    6.8373 H   0  0  0  0  0  0  0  0  0  0  0  0
    4.2310   -0.8023    8.2835 C   0  0  0  0  0  0  0  0  0  0  0  0
    4.7121   -1.6121    8.8083 H   0  0  0  0  0  0  0  0  0  0  0  0
    3.0075   -0.2982    8.6971 C   0  0  0  0  0  0  0  0  0  0  0  0
    2.5027   -0.7055    9.5595 H   0  0  0  0  0  0  0  0  0  0  0  0
    2.4487    0.7414    7.9749 C   0  0  0  0  0  0  0  0  0  0  0  0
    1.4963    1.1612    8.2598 H   0  0  0  0  0  0  0  0  0  0  0  0
    3.1133    1.2486    6.8649 C   0  0  0  0  0  0  0  0  0  0  0  0
    2.5215    2.3523    6.0434 C   0  0  0  0  0  0  0  0  0  0  0  0
    2.1592    1.9186    5.1043 H   0  0  0  0  0  0  0  0  0  0  0  0
    1.6728    2.7892    6.5718 H   0  0  0  0  0  0  0  0  0  0  0  0
    3.5514    3.4375    5.7012 C   0  0  0  0  0  0  0  0  0  0  0  0
    3.0294    4.2845    5.2446 H   0  0  0  0  0  0  0  0  0  0  0  0
    4.0195    3.8060    6.6254 H   0  0  0  0  0  0  0  0  0  0  0  0
    4.6210    2.9507    4.7969 C   0  0  0  0  0  3  0  0  0  0  0  0
    5.0625    3.7492    4.1896 H   0  0  0  0  0  0  0  0  0  0  0  0
    6.9889   -0.5718    2.4759 C   0  0  0  0  0  0  0  0  0  0  0  0
    7.9758   -0.5552    1.9973 H   0  0  0  0  0  0  0  0  0  0  0  0
    7.1382   -1.1546    3.8840 C   0  0  0  0  0  0  0  0  0  0  0  0
    7.5000   -2.1823    3.8423 H   0  0  0  0  0  0  0  0  0  0  0  0
    6.1544   -1.1692    4.3801 H   0  0  0  0  0  0  0  0  0  0  0  0
    7.8376   -0.5689    4.4835 H   0  0  0  0  0  0  0  0  0  0  0  0
    6.0491   -1.4507    1.6551 C   0  0  0  0  0  0  0  0  0  0  0  0
    6.4049   -2.4807    1.6829 H   0  0  0  0  0  0  0  0  0  0  0  0
    6.0076   -1.1397    0.6145 H   0  0  0  0  0  0  0  0  0  0  0  0
    5.0425   -1.4300    2.0696 H   0  0  0  0  0  0  0  0  0  0  0  0
    5.3973    1.5716    1.1859 C   0  0  0  0  0  0  0  0  0  0  0  0
    4.7035    0.7218    1.1621 H   0  0  0  0  0  0  0  0  0  0  0  0
    4.5511    2.8220    1.4108 C   0  0  0  0  0  0  0  0  0  0  0  0
    3.8668    2.9600    0.5752 H   0  0  0  0  0  0  0  0  0  0  0  0
    5.1698    3.7125    1.4971 H   0  0  0  0  0  0  0  0  0  0  0  0
    3.9660    2.7054    2.3241 H   0  0  0  0  0  0  0  0  0  0  0  0
    6.1419    1.6455   -0.1422 C   0  0  0  0  0  0  0  0  0  0  0  0
    5.4270    1.5628   -0.9602 H   0  0  0  0  0  0  0  0  0  0  0  0
    6.8697    0.8454   -0.2464 H   0  0  0  0  0  0  0  0  0  0  0  0
    6.6530    2.5987   -0.2453 H   0  0  0  0  0  0  0  0  0  0  0  0
    8.0500    2.0930    2.7053 C   0  0  0  0  0  0  0  0  0  0  0  0
    8.5728    1.5809    3.5264 H   0  0  0  0  0  0  0  0  0  0  0  0
    7.8560    3.5464    3.1271 C   0  0  0  0  0  0  0  0  0  0  0  0
    8.8238    4.0327    3.2381 H   0  0  0  0  0  0  0  0  0  0  0  0
    7.3414    3.5875    4.0851 H   0  0  0  0  0  0  0  0  0  0  0  0
    7.2804    4.0976    2.3863 H   0  0  0  0  0  0  0  0  0  0  0  0
    8.9219    2.0124    1.4555 C   0  0  0  0  0  0  0  0  0  0  0  0
    9.9444    2.2766    1.7227 H   0  0  0  0  0  0  0  0  0  0  0  0
    8.5868    2.7151    0.6987 H   0  0  0  0  0  0  0  0  0  0  0  0
    8.9404    1.0166    1.0201 H   0  0  0  0  0  0  0  0  0  0  0  0
  1 21  1  0  0  0  0
  1  3  1  0  0  0  0
  1  5  1  0  0  0  0
  2  1  1  0  0  0  0
  4  1  1  0  0  0  0
  5 14  1  0  0  0  0
  5  6  1  0  0  0  0
  6  8  1  0  0  0  0
  7  6  1  0  0  0  0
  8 10  2  0  0  0  0
  8  9  1  0  0  0  0
 10 11  1  0  0  0  0
 12 13  1  0  0  0  0
 12 10  1  0  0  0  0
 14 12  2  0  0  0  0
 15 17  1  0  0  0  0
 15 14  1  0  0  0  0
 16 15  1  0  0  0  0
 18 15  1  0  0  0  0
 18 20  1  0  0  0  0
 19 18  1  0  0  0  0
 21 18  1  0  0  0  0
 22 21  1  0  0  0  0
 23  2  1  0  0  0  0
 23 25  1  0  0  0  0
 24 23  1  0  0  0  0
 25 27  1  0  0  0  0
 25 28  1  0  0  0  0
 26 25  1  0  0  0  0
 29 30  1  0  0  0  0
 29 32  1  0  0  0  0
 29 23  1  0  0  0  0
 31 29  1  0  0  0  0
 33 35  1  0  0  0  0
 33  2  1  0  0  0  0
 34 33  1  0  0  0  0
 35 37  1  0  0  0  0
 35 38  1  0  0  0  0
 36 35  1  0  0  0  0
 39 33  1  0  0  0  0
 40 39  1  0  0  0  0
 41 39  1  0  0  0  0
 42 39  1  0  0  0  0
 43  2  1  0  0  0  0
 43 45  1  0  0  0  0
 43 44  1  0  0  0  0
 45 46  1  0  0  0  0
 45 47  1  0  0  0  0
 48 45  1  0  0  0  0
 49 50  1  0  0  0  0
 49 43  1  0  0  0  0
 51 49  1  0  0  0  0
 52 49  1  0  0  0  0
M  END
$$$$
