CSD_code = XALHIB | q = 0 | S = 0 | Stoichiometry = C19H24Cl2N2Pd | MND = 4
 OpenBabel04212202113D

 48 50  0  0  0  0  0  0  0  0999 V2000
    6.4227   13.5334    9.0141 Pd  0  0  0  0  0  0  0  0  0  0  0  0
    8.5186   14.2341    9.0298 Cl  0  0  0  0  0  0  0  0  0  0  0  0
    6.5738   13.5314    6.7839 Cl  0  0  0  0  0  0  0  0  0  0  0  0
    5.9219   13.6538   11.0861 N   0  0  0  0  0  0  0  0  0  0  0  0
    6.4488   14.3540   12.0943 C   0  0  0  0  0  0  0  0  0  0  0  0
    6.0177   14.1586   13.4050 C   0  0  0  0  0  0  0  0  0  0  0  0
    6.4769   14.7235   14.2003 H   0  0  0  0  0  0  0  0  0  0  0  0
    5.0082   13.2483   13.6794 C   0  0  0  0  0  0  0  0  0  0  0  0
    4.6785   13.0831   14.6936 H   0  0  0  0  0  0  0  0  0  0  0  0
    4.4143   12.5817   12.6271 C   0  0  0  0  0  0  0  0  0  0  0  0
    3.5970   11.8954   12.7803 H   0  0  0  0  0  0  0  0  0  0  0  0
    4.8886   12.8127   11.3339 C   0  0  0  0  0  0  0  0  0  0  0  0
    4.3014   12.2151   10.1709 C   0  0  0  0  0  0  0  0  0  0  0  0
    3.4842   11.5040   10.2727 H   0  0  0  0  0  0  0  0  0  0  0  0
    4.7566   12.5598    9.0117 N   0  0  0  0  0  0  0  0  0  0  0  0
    4.2200   11.9698    7.8495 C   0  0  0  0  0  0  0  0  0  0  0  0
    4.7517   10.7578    7.3927 C   0  0  0  0  0  0  0  0  0  0  0  0
    4.1505   10.1597    6.2956 C   0  0  0  0  0  0  0  0  0  0  0  0
    4.5251    9.2168    5.9302 H   0  0  0  0  0  0  0  0  0  0  0  0
    3.0795   10.7582    5.6574 C   0  0  0  0  0  0  0  0  0  0  0  0
    2.6179   10.2709    4.8118 H   0  0  0  0  0  0  0  0  0  0  0  0
    2.6223   11.9938    6.0745 C   0  0  0  0  0  0  0  0  0  0  0  0
    1.8155   12.4720    5.5416 H   0  0  0  0  0  0  0  0  0  0  0  0
    3.1923   12.6268    7.1689 C   0  0  0  0  0  0  0  0  0  0  0  0
    7.4876   15.3689   11.7759 C   0  0  0  0  0  0  0  0  0  0  0  0
    7.2126   15.9072   10.8652 H   0  0  0  0  0  0  0  0  0  0  0  0
    8.4384   14.8767   11.5672 H   0  0  0  0  0  0  0  0  0  0  0  0
    7.6171   16.0668   12.5984 H   0  0  0  0  0  0  0  0  0  0  0  0
    5.9727   10.1522    8.0532 C   0  0  0  0  0  0  0  0  0  0  0  0
    6.4609   10.9241    8.6882 H   0  0  0  0  0  0  0  0  0  0  0  0
    7.0116    9.7332    7.0117 C   0  0  0  0  0  0  0  0  0  0  0  0
    7.2240   10.5708    6.3518 H   0  0  0  0  0  0  0  0  0  0  0  0
    6.6655    8.8916    6.4176 H   0  0  0  0  0  0  0  0  0  0  0  0
    7.9340    9.4424    7.5092 H   0  0  0  0  0  0  0  0  0  0  0  0
    5.5753    8.9713    8.9418 C   0  0  0  0  0  0  0  0  0  0  0  0
    6.4574    8.5339    9.4038 H   0  0  0  0  0  0  0  0  0  0  0  0
    5.0795    8.2052    8.3493 H   0  0  0  0  0  0  0  0  0  0  0  0
    4.8949    9.2880    9.7306 H   0  0  0  0  0  0  0  0  0  0  0  0
    2.7531   14.0050    7.6077 C   0  0  0  0  0  0  0  0  0  0  0  0
    3.4630   14.3694    8.3668 H   0  0  0  0  0  0  0  0  0  0  0  0
    1.3562   13.9584    8.2294 C   0  0  0  0  0  0  0  0  0  0  0  0
    1.3396   13.2935    9.0915 H   0  0  0  0  0  0  0  0  0  0  0  0
    0.6299   13.5972    7.5052 H   0  0  0  0  0  0  0  0  0  0  0  0
    1.0543   14.9515    8.5543 H   0  0  0  0  0  0  0  0  0  0  0  0
    2.8101   14.9848    6.4350 C   0  0  0  0  0  0  0  0  0  0  0  0
    2.6095   15.9951    6.7850 H   0  0  0  0  0  0  0  0  0  0  0  0
    2.0765   14.7351    5.6733 H   0  0  0  0  0  0  0  0  0  0  0  0
    3.8012   14.9613    5.9880 H   0  0  0  0  0  0  0  0  0  0  0  0
  1  2  1  0  0  0  0
  1  4  1  0  0  0  0
  3  1  1  0  0  0  0
  4 12  1  0  0  0  0
  4  5  1  0  0  0  0
  5  6  2  0  0  0  0
  6  8  1  0  0  0  0
  6  7  1  0  0  0  0
  8  9  1  0  0  0  0
 10 11  1  0  0  0  0
 10  8  2  0  0  0  0
 12 10  1  0  0  0  0
 13 14  1  0  0  0  0
 13 12  2  0  0  0  0
 15  1  1  0  0  0  0
 15 13  1  0  0  0  0
 16 15  1  0  0  0  0
 17 16  1  0  0  0  0
 17 29  1  0  0  0  0
 18 17  2  0  0  0  0
 19 18  1  0  0  0  0
 20 22  2  0  0  0  0
 20 18  1  0  0  0  0
 21 20  1  0  0  0  0
 22 24  1  0  0  0  0
 23 22  1  0  0  0  0
 24 39  1  0  0  0  0
 24 16  2  0  0  0  0
 25  5  1  0  0  0  0
 25 28  1  0  0  0  0
 26 25  1  0  0  0  0
 27 25  1  0  0  0  0
 29 30  1  0  0  0  0
 29 35  1  0  0  0  0
 31 34  1  0  0  0  0
 31 29  1  0  0  0  0
 32 31  1  0  0  0  0
 33 31  1  0  0  0  0
 35 36  1  0  0  0  0
 35 38  1  0  0  0  0
 37 35  1  0  0  0  0
 39 41  1  0  0  0  0
 39 40  1  0  0  0  0
 41 44  1  0  0  0  0
 41 42  1  0  0  0  0
 43 41  1  0  0  0  0
 45 46  1  0  0  0  0
 45 39  1  0  0  0  0
 47 45  1  0  0  0  0
 48 45  1  0  0  0  0
M  END
$$$$
