CSD_code = XALROR | q = 0 | S = 0 | Stoichiometry = C18H28F2HfSi | MND = 12
 OpenBabel04212202113D

 50 51  0  0  1  0  0  0  0  0999 V2000
    2.5266   17.3627    2.1095 Hf  0  0  0  0  0  0  0  0  0  0  0  0
    2.7774   18.9588    3.0877 F   0  0  0  0  0  0  0  0  0  0  0  0
    0.7517   17.7179    1.5837 F   0  0  0  0  0  0  0  0  0  0  0  0
    2.8318   20.3744    0.2018 Si  0  0  0  0  0  0  0  0  0  0  0  0
    2.9066   16.5553    4.3812 C   0  0  0  0  0  0  0  0  0  0  0  0
    1.5446   16.4106    3.9913 C   0  0  2  0  0  0  0  0  0  0  0  0
    1.4826   15.3968    2.9836 C   0  0  0  0  0  0  0  0  0  0  0  0
    2.8045   14.9145    2.7725 C   0  0  0  0  0  0  0  0  0  0  0  0
    3.6811   15.6396    3.6245 C   0  0  0  0  0  0  0  0  0  0  0  0
    3.4002   17.3976    5.5240 C   0  0  0  0  0  0  0  0  0  0  0  0
    3.2438   16.8759    6.4709 H   0  0  0  0  0  0  0  0  0  0  0  0
    2.8671   18.3455    5.5695 H   0  0  0  0  0  0  0  0  0  0  0  0
    4.4638   17.6043    5.4243 H   0  0  0  0  0  0  0  0  0  0  0  0
    0.3956   17.1945    4.5654 C   0  0  0  0  0  0  0  0  0  0  0  0
    0.2378   16.9362    5.6143 H   0  0  0  0  0  0  0  0  0  0  0  0
   -0.5227   16.9892    4.0198 H   0  0  0  0  0  0  0  0  0  0  0  0
    0.6003   18.2670    4.5050 H   0  0  0  0  0  0  0  0  0  0  0  0
    0.2184   14.8205    2.4032 C   0  0  0  0  0  0  0  0  0  0  0  0
   -0.2452   14.1305    3.1115 H   0  0  0  0  0  0  0  0  0  0  0  0
    0.4225   14.2712    1.4860 H   0  0  0  0  0  0  0  0  0  0  0  0
   -0.5015   15.6055    2.1750 H   0  0  0  0  0  0  0  0  0  0  0  0
    3.1668   13.6717    2.0054 C   0  0  0  0  0  0  0  0  0  0  0  0
    3.1744   12.8099    2.6765 H   0  0  0  0  0  0  0  0  0  0  0  0
    4.1542   13.7462    1.5530 H   0  0  0  0  0  0  0  0  0  0  0  0
    2.4453   13.4674    1.2169 H   0  0  0  0  0  0  0  0  0  0  0  0
    5.1318   15.3355    3.8853 C   0  0  0  0  0  0  0  0  0  0  0  0
    5.2499   14.9044    4.8810 H   0  0  0  0  0  0  0  0  0  0  0  0
    5.7476   16.2351    3.8400 H   0  0  0  0  0  0  0  0  0  0  0  0
    5.5174   14.6161    3.1672 H   0  0  0  0  0  0  0  0  0  0  0  0
    2.7250   17.4698   -0.3227 C   0  0  0  0  0  0  0  0  0  0  0  0
    1.8802   17.5422   -0.9937 H   0  0  0  0  0  0  0  0  0  0  0  0
    3.4272   16.2926   -0.0077 C   0  0  0  0  0  0  0  0  0  0  0  0
    3.2480   15.3185   -0.4391 H   0  0  0  0  0  0  0  0  0  0  0  0
    4.5381   16.6493    0.7899 C   0  0  0  0  0  0  0  0  0  0  0  0
    5.3559   15.9963    1.0579 H   0  0  0  0  0  0  0  0  0  0  0  0
    4.5040   18.0448    0.9876 C   0  0  0  0  0  0  0  0  0  0  0  0
    5.2765   18.6389    1.4584 H   0  0  0  0  0  0  0  0  0  0  0  0
    3.3799   18.5730    0.2852 C   0  0  2  0  0  0  0  0  0  0  0  0
    2.7991   20.8911   -1.6378 C   0  0  0  0  0  0  0  0  0  0  0  0
    2.0905   20.3018   -2.2097 H   0  0  0  0  0  0  0  0  0  0  0  0
    3.7727   20.7748   -2.1016 H   0  0  0  0  0  0  0  0  0  0  0  0
    2.5121   21.9323   -1.7325 H   0  0  0  0  0  0  0  0  0  0  0  0
    1.0913   20.6078    0.9474 C   0  0  0  0  0  0  0  0  0  0  0  0
    0.3440   20.0559    0.3844 H   0  0  0  0  0  0  0  0  0  0  0  0
    0.7957   21.6530    0.9520 H   0  0  0  0  0  0  0  0  0  0  0  0
    1.0600   20.2444    1.9718 H   0  0  0  0  0  0  0  0  0  0  0  0
    4.1078   21.4396    1.1433 C   0  0  0  0  0  0  0  0  0  0  0  0
    3.8385   22.4895    1.0975 H   0  0  0  0  0  0  0  0  0  0  0  0
    5.1036   21.3398    0.7226 H   0  0  0  0  0  0  0  0  0  0  0  0
    4.1517   21.1550    2.1897 H   0  0  0  0  0  0  0  0  0  0  0  0
  1  2  1  0  0  0  0
  1  6  1  0  0  0  0
  3  1  1  0  0  0  0
  4 43  1  0  0  0  0
  4 47  1  0  0  0  0
  5 10  1  0  0  0  0
  6  5  1  0  0  0  0
  6 14  1  1  0  0  0
  7  6  1  0  0  0  0
  8  7  2  0  0  0  0
  8  9  1  0  0  0  0
  9 26  1  0  0  0  0
  9  5  2  0  0  0  0
 10 12  1  0  0  0  0
 10 11  1  0  0  0  0
 13 10  1  0  0  0  0
 14 15  1  0  0  0  0
 16 14  1  0  0  0  0
 17 14  1  0  0  0  0
 18  7  1  0  0  0  0
 18 19  1  0  0  0  0
 20 18  1  0  0  0  0
 21 18  1  0  0  0  0
 22 23  1  0  0  0  0
 22  8  1  0  0  0  0
 24 22  1  0  0  0  0
 25 22  1  0  0  0  0
 26 27  1  0  0  0  0
 28 26  1  0  0  0  0
 29 26  1  0  0  0  0
 30 32  2  0  0  0  0
 30 38  1  0  0  0  0
 31 30  1  0  0  0  0
 32 34  1  0  0  0  0
 33 32  1  0  0  0  0
 34 36  2  0  0  0  0
 34 35  1  0  0  0  0
 36 37  1  0  0  0  0
 38  4  1  6  0  0  0
 38 36  1  0  0  0  0
 38  1  1  0  0  0  0
 39  4  1  0  0  0  0
 40 39  1  0  0  0  0
 41 39  1  0  0  0  0
 42 39  1  0  0  0  0
 43 45  1  0  0  0  0
 43 46  1  0  0  0  0
 44 43  1  0  0  0  0
 47 50  1  0  0  0  0
 48 47  1  0  0  0  0
 49 47  1  0  0  0  0
M  END
$$$$
