CSD_code = XALSIM | q = -1 | S = 0 | Stoichiometry = C6H18Cl3O3RuS3(1-) | MND = 6
 OpenBabel04212202113D

 34 33  0  0  0  0  0  0  0  0999 V2000
    3.1912    0.8863   14.0870 Ru  0  0  0  0  0  0  0  0  0  0  0  0
    4.0139   -0.0926   12.0797 Cl  0  0  0  0  0  0  0  0  0  0  0  0
    1.2964   -0.5481   14.2049 Cl  0  0  0  0  0  0  0  0  0  0  0  0
    4.5272   -0.4880   15.4953 Cl  0  0  0  0  0  0  0  0  0  0  0  0
    2.5626    1.7790   16.0699 S   0  0  0  0  0  0  0  0  0  0  0  0
    4.9875    2.2345   13.8026 S   0  0  0  0  0  0  0  0  0  0  0  0
    1.7823    2.1359   12.8305 S   0  0  0  0  0  0  0  0  0  0  0  0
    1.6803    2.9426   16.0272 O   0  0  0  0  0  1  0  0  0  0  0  0
    5.1426    3.3448   14.7393 O   0  0  0  0  0  1  0  0  0  0  0  0
    2.2629    3.4431   12.3896 O   0  0  0  0  0  1  0  0  0  0  0  0
    3.8994    2.2163   17.2230 C   0  0  0  0  0  0  0  0  0  0  0  0
    4.5046    2.9688   16.7282 H   0  0  0  0  0  0  0  0  0  0  0  0
    4.4774    1.3182   17.4079 H   0  0  0  0  0  0  0  0  0  0  0  0
    3.4443    2.6117   18.1233 H   0  0  0  0  0  0  0  0  0  0  0  0
    1.7447    0.5724   17.1663 C   0  0  0  0  0  0  0  0  0  0  0  0
    1.5265    1.0526   18.1130 H   0  0  0  0  0  0  0  0  0  0  0  0
    2.4281   -0.2631   17.2745 H   0  0  0  0  0  0  0  0  0  0  0  0
    0.8360    0.2454   16.6710 H   0  0  0  0  0  0  0  0  0  0  0  0
    5.2084    2.9519   12.1460 C   0  0  0  0  0  0  0  0  0  0  0  0
    4.3362    3.5680   11.9538 H   0  0  0  0  0  0  0  0  0  0  0  0
    5.2621    2.1308   11.4403 H   0  0  0  0  0  0  0  0  0  0  0  0
    6.1126    3.5487   12.1601 H   0  0  0  0  0  0  0  0  0  0  0  0
    6.5706    1.3291   13.8364 C   0  0  0  0  0  0  0  0  0  0  0  0
    7.3759    2.0266   13.6379 H   0  0  0  0  0  0  0  0  0  0  0  0
    6.5017    0.5523   13.0826 H   0  0  0  0  0  0  0  0  0  0  0  0
    6.6694    0.8824   14.8205 H   0  0  0  0  0  0  0  0  0  0  0  0
    1.2205    1.2765   11.3231 C   0  0  0  0  0  0  0  0  0  0  0  0
    0.5114    1.9103   10.8036 H   0  0  0  0  0  0  0  0  0  0  0  0
    0.7790    0.3394   11.6448 H   0  0  0  0  0  0  0  0  0  0  0  0
    2.0969    1.0825   10.7130 H   0  0  0  0  0  0  0  0  0  0  0  0
    0.1243    2.4273   13.5190 C   0  0  0  0  0  0  0  0  0  0  0  0
    0.2630    2.9732   14.4464 H   0  0  0  0  0  0  0  0  0  0  0  0
   -0.3257    1.4591   13.7062 H   0  0  0  0  0  0  0  0  0  0  0  0
   -0.4350    3.0145   12.8004 H   0  0  0  0  0  0  0  0  0  0  0  0
  1  3  1  0  0  0  0
  1  4  1  0  0  0  0
  1  5  1  0  0  0  0
  2  1  1  0  0  0  0
  5 15  1  0  0  0  0
  5 11  1  0  0  0  0
  6 23  1  0  0  0  0
  6  1  1  0  0  0  0
  6  9  1  0  0  0  0
  7 31  1  0  0  0  0
  7  1  1  0  0  0  0
  8  5  1  0  0  0  0
 10  7  1  0  0  0  0
 11 13  1  0  0  0  0
 11 14  1  0  0  0  0
 12 11  1  0  0  0  0
 15 17  1  0  0  0  0
 15 16  1  0  0  0  0
 18 15  1  0  0  0  0
 19 22  1  0  0  0  0
 19  6  1  0  0  0  0
 20 19  1  0  0  0  0
 21 19  1  0  0  0  0
 23 26  1  0  0  0  0
 24 23  1  0  0  0  0
 25 23  1  0  0  0  0
 27 29  1  0  0  0  0
 27  7  1  0  0  0  0
 28 27  1  0  0  0  0
 30 27  1  0  0  0  0
 31 33  1  0  0  0  0
 31 32  1  0  0  0  0
 34 31  1  0  0  0  0
M  END
$$$$
