CSD_code = XALSEI | q = -1 | S = 0 | Stoichiometry = C6H18Cl3O3RuS3(1-) | MND = 6
 OpenBabel04212202113D

 34 33  0  0  0  0  0  0  0  0999 V2000
    3.1372   11.5715    1.7425 Ru  0  0  0  0  0  0  0  0  0  0  0  0
    5.1551   10.8980    2.8070 Cl  0  0  0  0  0  0  0  0  0  0  0  0
    3.8449   13.8272    1.4753 Cl  0  0  0  0  0  0  0  0  0  0  0  0
    2.0022   11.9982    3.7886 Cl  0  0  0  0  0  0  0  0  0  0  0  0
    1.3117   12.3353    0.6427 S   0  0  0  0  0  0  0  0  0  0  0  0
    2.3301    9.4850    2.0876 S   0  0  0  0  0  0  0  0  0  0  0  0
    4.3065   11.0459   -0.1227 S   0  0  0  0  0  0  0  0  0  0  0  0
    0.2919   11.3543    0.2795 O   0  0  0  0  0  1  0  0  0  0  0  0
    2.5651    8.4970    1.0375 O   0  0  0  0  0  1  0  0  0  0  0  0
    3.5912   11.1083   -1.3950 O   0  0  0  0  0  1  0  0  0  0  0  0
    1.6215   13.3053   -0.8645 C   0  0  0  0  0  0  0  0  0  0  0  0
    2.2493   14.1445   -0.5881 H   0  0  0  0  0  0  0  0  0  0  0  0
    0.6627   13.6157   -1.2624 H   0  0  0  0  0  0  0  0  0  0  0  0
    2.1382   12.6493   -1.5572 H   0  0  0  0  0  0  0  0  0  0  0  0
    0.4353   13.6540    1.5479 C   0  0  0  0  0  0  0  0  0  0  0  0
    1.1646   14.4311    1.7493 H   0  0  0  0  0  0  0  0  0  0  0  0
    0.0810   13.2283    2.4811 H   0  0  0  0  0  0  0  0  0  0  0  0
   -0.3879   14.0081    0.9387 H   0  0  0  0  0  0  0  0  0  0  0  0
    2.9442    8.7286    3.6295 C   0  0  0  0  0  0  0  0  0  0  0  0
    2.6906    9.4102    4.4340 H   0  0  0  0  0  0  0  0  0  0  0  0
    4.0226    8.6428    3.5431 H   0  0  0  0  0  0  0  0  0  0  0  0
    2.4801    7.7568    3.7497 H   0  0  0  0  0  0  0  0  0  0  0  0
    0.5627    9.3579    2.4979 C   0  0  0  0  0  0  0  0  0  0  0  0
    0.3910    9.9560    3.3854 H   0  0  0  0  0  0  0  0  0  0  0  0
    0.3317    8.3104    2.6507 H   0  0  0  0  0  0  0  0  0  0  0  0
    0.0155    9.7596    1.6514 H   0  0  0  0  0  0  0  0  0  0  0  0
    5.1664    9.4433   -0.1186 C   0  0  0  0  0  0  0  0  0  0  0  0
    4.4039    8.6800   -0.0047 H   0  0  0  0  0  0  0  0  0  0  0  0
    5.8440    9.4390    0.7273 H   0  0  0  0  0  0  0  0  0  0  0  0
    5.6818    9.3415   -1.0661 H   0  0  0  0  0  0  0  0  0  0  0  0
    5.8004   12.0698   -0.3396 C   0  0  0  0  0  0  0  0  0  0  0  0
    6.3775   11.9757    0.5739 H   0  0  0  0  0  0  0  0  0  0  0  0
    5.4753   13.0972   -0.4676 H   0  0  0  0  0  0  0  0  0  0  0  0
    6.3432   11.7171   -1.2087 H   0  0  0  0  0  0  0  0  0  0  0  0
  1  6  1  0  0  0  0
  1  2  1  0  0  0  0
  1  4  1  0  0  0  0
  3  1  1  0  0  0  0
  5 15  1  0  0  0  0
  5  1  1  0  0  0  0
  6 23  1  0  0  0  0
  6 19  1  0  0  0  0
  7 27  1  0  0  0  0
  7  1  1  0  0  0  0
  8  5  1  0  0  0  0
  9  6  1  0  0  0  0
 10  7  1  0  0  0  0
 11 12  1  0  0  0  0
 11  5  1  0  0  0  0
 13 11  1  0  0  0  0
 14 11  1  0  0  0  0
 15 16  1  0  0  0  0
 15 17  1  0  0  0  0
 18 15  1  0  0  0  0
 19 22  1  0  0  0  0
 19 20  1  0  0  0  0
 21 19  1  0  0  0  0
 23 25  1  0  0  0  0
 23 24  1  0  0  0  0
 26 23  1  0  0  0  0
 27 28  1  0  0  0  0
 27 29  1  0  0  0  0
 30 27  1  0  0  0  0
 31  7  1  0  0  0  0
 31 32  1  0  0  0  0
 33 31  1  0  0  0  0
 34 31  1  0  0  0  0
M  END
$$$$
