CSD_code = XAMFEZ | q = 0 | S = 0 | Stoichiometry = C9H8IMnN2O4 | MND = 6
 OpenBabel04212202113D

 25 25  0  0  1  0  0  0  0  0999 V2000
    2.6616    4.6516   10.6094 I   0  0  0  0  0  0  0  0  0  0  0  0
    0.3912    4.8211    9.1052 Mn  0  0  0  0  0  0  0  0  0  0  0  0
    1.8319    6.5377    7.2264 O   0  0  0  0  0  1  0  0  0  0  0  0
    1.7072    2.7381    7.5121 O   0  0  0  0  0  1  0  0  0  0  0  0
   -2.0416    4.8813    7.4856 O   0  0  0  0  0  1  0  0  0  0  0  0
   -0.2940    7.4372   10.2349 O   0  0  0  0  0  1  0  0  0  0  0  0
   -0.9498    2.2720   10.3708 N   0  0  0  0  0  0  0  0  0  0  0  0
   -0.7746    3.8118   11.8567 N   0  0  0  0  0  0  0  0  0  0  0  0
    1.2712    5.8672    7.9624 C   0  0  0  0  0  2  0  0  0  0  0  0
    1.1374    3.4716    8.1779 C   0  0  0  0  0  2  0  0  0  0  0  0
   -1.0945    4.8389    8.1354 C   0  0  0  0  0  2  0  0  0  0  0  0
   -0.0703    6.3694    9.8908 C   0  0  0  0  0  2  0  0  0  0  0  0
   -0.5425    3.5524   10.5481 C   0  0  1  0  0  3  0  0  0  0  0  0
   -1.4094    1.7452   11.5452 C   0  0  0  0  0  0  0  0  0  0  0  0
   -1.7681    0.7398   11.6215 H   0  0  0  0  0  0  0  0  0  0  0  0
   -1.3006    2.7161   12.4788 C   0  0  0  0  0  0  0  0  0  0  0  0
   -1.5494    2.7113   13.5196 H   0  0  0  0  0  0  0  0  0  0  0  0
   -0.5560    5.0485   12.5627 C   0  0  0  0  0  0  0  0  0  0  0  0
   -0.6988    4.8735   13.6272 H   0  0  0  0  0  0  0  0  0  0  0  0
    0.4611    5.4111   12.4092 H   0  0  0  0  0  0  0  0  0  0  0  0
   -1.2661    5.8105   12.2350 H   0  0  0  0  0  0  0  0  0  0  0  0
   -0.9239    1.4972    9.1566 C   0  0  0  0  0  0  0  0  0  0  0  0
   -1.6557    0.6944    9.2349 H   0  0  0  0  0  0  0  0  0  0  0  0
   -1.1791    2.1187    8.2970 H   0  0  0  0  0  0  0  0  0  0  0  0
    0.0624    1.0542    8.9998 H   0  0  0  0  0  0  0  0  0  0  0  0
  2 12  1  0  0  0  0
  2  1  1  0  0  0  0
  3  9  1  0  0  0  0
  4 10  1  0  0  0  0
  5 11  1  0  0  0  0
  7 13  1  0  0  0  0
  7 14  1  0  0  0  0
  8 16  1  0  0  0  0
  8 18  1  0  0  0  0
  9  2  1  0  0  0  0
 10  2  1  0  0  0  0
 11  2  1  0  0  0  0
 12  6  1  0  0  0  0
 13  2  1  1  0  0  0
 13  8  1  0  0  0  0
 14 15  1  0  0  0  0
 14 16  2  0  0  0  0
 16 17  1  0  0  0  0
 18 19  1  0  0  0  0
 20 18  1  0  0  0  0
 21 18  1  0  0  0  0
 22 23  1  0  0  0  0
 22  7  1  0  0  0  0
 24 22  1  0  0  0  0
 25 22  1  0  0  0  0
M  END
$$$$
