CSD_code = XAMMON | q = 0 | S = 0 | Stoichiometry = C13H30FeI2N6 | MND = 4
 OpenBabel04212202113D

 52 52  0  0  0  0  0  0  0  0999 V2000
    2.5757    3.9238    3.6992 I   0  0  0  0  0  0  0  0  0  0  0  0
    5.1400    1.7836    1.7466 I   0  0  0  0  0  0  0  0  0  0  0  0
    2.7676    1.6869    2.4974 Fe  0  0  0  0  0  0  0  0  0  0  0  0
    0.7934    1.7128    2.0466 N   0  0  0  0  0  0  0  0  0  0  0  0
    2.4223    0.3972    4.0895 N   0  0  0  0  0  0  0  0  0  0  0  0
   -0.4826    2.9915    0.5318 N   0  0  0  0  0  0  0  0  0  0  0  0
    1.6796    2.1328    0.0001 N   0  0  0  0  0  0  0  0  0  0  0  0
    3.5861   -0.1552    6.0533 N   0  0  0  0  0  0  0  0  0  0  0  0
    4.2726   -0.9814    3.9879 N   0  0  0  0  0  0  0  0  0  0  0  0
   -0.2859    1.5703    2.9894 C   0  0  0  0  0  0  0  0  0  0  0  0
   -0.3843    2.4740    3.6009 H   0  0  0  0  0  0  0  0  0  0  0  0
   -1.2315    1.4121    2.4539 H   0  0  0  0  0  0  0  0  0  0  0  0
   -0.0183    0.3931    3.9272 C   0  0  0  0  0  0  0  0  0  0  0  0
    0.1401   -0.5155    3.3416 H   0  0  0  0  0  0  0  0  0  0  0  0
   -0.8999    0.2511    4.5546 H   0  0  0  0  0  0  0  0  0  0  0  0
    1.1958    0.6285    4.8330 C   0  0  0  0  0  0  0  0  0  0  0  0
    1.1463   -0.0693    5.6781 H   0  0  0  0  0  0  0  0  0  0  0  0
    1.1441    1.6479    5.2276 H   0  0  0  0  0  0  0  0  0  0  0  0
    0.6209    2.2698    0.8913 C   0  0  0  0  0  3  0  0  0  0  0  0
   -1.0045    4.0475    1.3722 C   0  0  0  0  0  0  0  0  0  0  0  0
   -0.3354    4.2238    2.2100 H   0  0  0  0  0  0  0  0  0  0  0  0
   -1.0646    4.9715    0.7906 H   0  0  0  0  0  0  0  0  0  0  0  0
   -2.0040    3.8079    1.7459 H   0  0  0  0  0  0  0  0  0  0  0  0
   -1.0356    2.9341   -0.7989 C   0  0  0  0  0  0  0  0  0  0  0  0
   -0.6628    2.0570   -1.3226 H   0  0  0  0  0  0  0  0  0  0  0  0
   -2.1229    2.8475   -0.7196 H   0  0  0  0  0  0  0  0  0  0  0  0
   -0.8088    3.8314   -1.3855 H   0  0  0  0  0  0  0  0  0  0  0  0
    1.9581    3.1576   -0.9799 C   0  0  0  0  0  0  0  0  0  0  0  0
    1.5992    4.1173   -0.6155 H   0  0  0  0  0  0  0  0  0  0  0  0
    3.0413    3.2251   -1.1032 H   0  0  0  0  0  0  0  0  0  0  0  0
    1.5154    2.9464   -1.9604 H   0  0  0  0  0  0  0  0  0  0  0  0
    2.1168    0.8026   -0.3805 C   0  0  0  0  0  0  0  0  0  0  0  0
    1.9435    0.1078    0.4444 H   0  0  0  0  0  0  0  0  0  0  0  0
    1.5735    0.4450   -1.2663 H   0  0  0  0  0  0  0  0  0  0  0  0
    3.1813    0.8190   -0.6185 H   0  0  0  0  0  0  0  0  0  0  0  0
    3.4123   -0.1991    4.6964 C   0  0  0  0  0  3  0  0  0  0  0  0
    4.0592   -1.2771    6.8244 C   0  0  0  0  0  0  0  0  0  0  0  0
    4.0319   -2.1800    6.2199 H   0  0  0  0  0  0  0  0  0  0  0  0
    5.0769   -1.1248    7.1992 H   0  0  0  0  0  0  0  0  0  0  0  0
    3.3997   -1.4146    7.6868 H   0  0  0  0  0  0  0  0  0  0  0  0
    3.4458    1.0852    6.7808 C   0  0  0  0  0  0  0  0  0  0  0  0
    3.3144    1.9095    6.0850 H   0  0  0  0  0  0  0  0  0  0  0  0
    2.5977    1.0575    7.4710 H   0  0  0  0  0  0  0  0  0  0  0  0
    4.3557    1.2685    7.3588 H   0  0  0  0  0  0  0  0  0  0  0  0
    5.6807   -1.0681    4.2931 C   0  0  0  0  0  0  0  0  0  0  0  0
    5.9313   -0.3863    5.1000 H   0  0  0  0  0  0  0  0  0  0  0  0
    5.9644   -2.0872    4.5722 H   0  0  0  0  0  0  0  0  0  0  0  0
    6.2603   -0.7755    3.4140 H   0  0  0  0  0  0  0  0  0  0  0  0
    3.8800   -1.5770    2.7353 C   0  0  0  0  0  0  0  0  0  0  0  0
    2.8155   -1.4071    2.5783 H   0  0  0  0  0  0  0  0  0  0  0  0
    4.4395   -1.1564    1.8960 H   0  0  0  0  0  0  0  0  0  0  0  0
    4.0760   -2.6532    2.7717 H   0  0  0  0  0  0  0  0  0  0  0  0
  2  3  1  0  0  0  0
  3  1  1  0  0  0  0
  3  5  1  0  0  0  0
  4  3  1  0  0  0  0
  4 10  1  0  0  0  0
  5 36  1  0  0  0  0
  5 16  1  0  0  0  0
  6 19  1  0  0  0  0
  6 20  1  0  0  0  0
  7 19  1  0  0  0  0
  8 41  1  0  0  0  0
  8 37  1  0  0  0  0
  9 45  1  0  0  0  0
  9 36  1  0  0  0  0
 10 11  1  0  0  0  0
 10 13  1  0  0  0  0
 12 10  1  0  0  0  0
 13 15  1  0  0  0  0
 13 16  1  0  0  0  0
 14 13  1  0  0  0  0
 16 18  1  0  0  0  0
 16 17  1  0  0  0  0
 19  4  1  0  0  0  0
 20 23  1  0  0  0  0
 20 21  1  0  0  0  0
 22 20  1  0  0  0  0
 24 26  1  0  0  0  0
 24  6  1  0  0  0  0
 25 24  1  0  0  0  0
 27 24  1  0  0  0  0
 28 29  1  0  0  0  0
 28  7  1  0  0  0  0
 30 28  1  0  0  0  0
 31 28  1  0  0  0  0
 32  7  1  0  0  0  0
 32 33  1  0  0  0  0
 34 32  1  0  0  0  0
 35 32  1  0  0  0  0
 36  8  1  0  0  0  0
 37 39  1  0  0  0  0
 37 40  1  0  0  0  0
 38 37  1  0  0  0  0
 41 44  1  0  0  0  0
 41 43  1  0  0  0  0
 42 41  1  0  0  0  0
 45 47  1  0  0  0  0
 45 46  1  0  0  0  0
 48 45  1  0  0  0  0
 49 52  1  0  0  0  0
 49  9  1  0  0  0  0
 50 49  1  0  0  0  0
 51 49  1  0  0  0  0
M  END
$$$$
