CSD_code = XAMTEL | q = 0 | S = 0 | Stoichiometry = C27H26Cl2NOPPd | MND = 4
 OpenBabel04212202113D

 59 62  0  0  0  0  0  0  0  0999 V2000
    4.3351   23.3265    5.1924 Pd  0  0  0  0  0  0  0  0  0  0  0  0
    3.8928   22.7992    7.3846 Cl  0  0  0  0  0  0  0  0  0  0  0  0
    2.1326   23.5479    4.6245 Cl  0  0  0  0  0  0  0  0  0  0  0  0
    4.6137   24.1577    3.1290 P   0  0  0  0  0  4  0  0  0  0  0  0
    6.3591   24.9835    7.0668 C   0  0  0  0  0  0  0  0  0  0  0  0
    7.0575   25.8045    6.8886 H   0  0  0  0  0  0  0  0  0  0  0  0
    6.1981   24.8723    8.1411 H   0  0  0  0  0  0  0  0  0  0  0  0
    5.3921   25.2057    6.5927 H   0  0  0  0  0  0  0  0  0  0  0  0
    6.8984   23.7564    6.5255 N   0  0  0  0  0  0  0  0  0  0  0  0
    8.2013   23.3900    7.0419 C   0  0  0  0  0  0  0  0  0  0  0  0
    8.1446   23.2653    8.1246 H   0  0  0  0  0  0  0  0  0  0  0  0
    8.9231   24.1766    6.8137 H   0  0  0  0  0  0  0  0  0  0  0  0
    8.5276   22.4574    6.5900 H   0  0  0  0  0  0  0  0  0  0  0  0
    6.1943   23.0132    5.7049 C   0  0  0  0  0  0  0  0  0  0  0  0
    6.8266   21.9113    5.2825 O   0  0  0  0  0  0  0  0  0  0  0  0
    6.1252   21.0511    4.4413 C   0  0  0  0  0  0  0  0  0  0  0  0
    6.7317   20.6792    3.2496 C   0  0  0  0  0  0  0  0  0  0  0  0
    7.6994   21.0863    2.9994 H   0  0  0  0  0  0  0  0  0  0  0  0
    6.0822   19.7977    2.4025 C   0  0  0  0  0  0  0  0  0  0  0  0
    6.5496   19.5129    1.4723 H   0  0  0  0  0  0  0  0  0  0  0  0
    4.8403   19.2892    2.7442 C   0  0  0  0  0  0  0  0  0  0  0  0
    4.3358   18.6063    2.0774 H   0  0  0  0  0  0  0  0  0  0  0  0
    4.2493   19.6451    3.9467 C   0  0  0  0  0  0  0  0  0  0  0  0
    3.2902   19.2341    4.2240 H   0  0  0  0  0  0  0  0  0  0  0  0
    4.8827   20.5298    4.8089 C   0  0  0  0  0  0  0  0  0  0  0  0
    4.4561   20.7395    5.7904 H   0  0  0  0  0  0  0  0  0  0  0  0
    6.2402   23.9387    2.3319 C   0  0  0  0  0  0  0  0  0  0  0  0
    7.3492   24.4446    3.0067 C   0  0  0  0  0  0  0  0  0  0  0  0
    7.1941   25.0019    3.9237 H   0  0  0  0  0  0  0  0  0  0  0  0
    8.6214   24.2483    2.5083 C   0  0  0  0  0  0  0  0  0  0  0  0
    9.4773   24.6462    3.0342 H   0  0  0  0  0  0  0  0  0  0  0  0
    8.7997   23.5367    1.3308 C   0  0  0  0  0  0  0  0  0  0  0  0
    9.7946   23.3782    0.9418 H   0  0  0  0  0  0  0  0  0  0  0  0
    7.7018   23.0299    0.6566 C   0  0  0  0  0  0  0  0  0  0  0  0
    7.8400   22.4771   -0.2611 H   0  0  0  0  0  0  0  0  0  0  0  0
    6.4246   23.2248    1.1547 C   0  0  0  0  0  0  0  0  0  0  0  0
    5.5690   22.8240    0.6296 H   0  0  0  0  0  0  0  0  0  0  0  0
    4.5317   25.9678    3.2801 C   0  0  0  0  0  0  0  0  0  0  0  0
    5.0564   26.8093    2.3018 C   0  0  0  0  0  0  0  0  0  0  0  0
    5.5273   26.3852    1.4246 H   0  0  0  0  0  0  0  0  0  0  0  0
    4.9823   28.1811    2.4606 C   0  0  0  0  0  0  0  0  0  0  0  0
    5.3868   28.8322    1.6994 H   0  0  0  0  0  0  0  0  0  0  0  0
    4.3905   28.7204    3.5923 C   0  0  0  0  0  0  0  0  0  0  0  0
    4.3334   29.7924    3.7101 H   0  0  0  0  0  0  0  0  0  0  0  0
    3.8738   27.8870    4.5711 C   0  0  0  0  0  0  0  0  0  0  0  0
    3.4130   28.3082    5.4522 H   0  0  0  0  0  0  0  0  0  0  0  0
    3.9453   26.5132    4.4198 C   0  0  0  0  0  0  0  0  0  0  0  0
    3.5182   25.8516    5.1774 H   0  0  0  0  0  0  0  0  0  0  0  0
    3.4460   23.7052    1.8179 C   0  0  0  0  0  0  0  0  0  0  0  0
    2.8566   24.6214    0.9578 C   0  0  0  0  0  0  0  0  0  0  0  0
    3.0724   25.6760    1.0519 H   0  0  0  0  0  0  0  0  0  0  0  0
    1.9709   24.1769   -0.0094 C   0  0  0  0  0  0  0  0  0  0  0  0
    1.5047   24.8895   -0.6743 H   0  0  0  0  0  0  0  0  0  0  0  0
    1.6730   22.8296   -0.1202 C   0  0  0  0  0  0  0  0  0  0  0  0
    0.9758   22.4919   -0.8729 H   0  0  0  0  0  0  0  0  0  0  0  0
    2.2542   21.9153    0.7454 C   0  0  0  0  0  0  0  0  0  0  0  0
    2.0092   20.8660    0.6712 H   0  0  0  0  0  0  0  0  0  0  0  0
    3.1351   22.3516    1.7148 C   0  0  0  0  0  0  0  0  0  0  0  0
    3.5744   21.6570    2.4220 H   0  0  0  0  0  0  0  0  0  0  0  0
  1 14  2  0  0  0  0
  1  2  1  0  0  0  0
  3  1  1  0  0  0  0
  4 38  1  0  0  0  0
  4  1  1  0  0  0  0
  5  7  1  0  0  0  0
  6  5  1  0  0  0  0
  8  5  1  0  0  0  0
  9 10  1  0  0  0  0
  9  5  1  0  0  0  0
 10 11  1  0  0  0  0
 12 10  1  0  0  0  0
 13 10  1  0  0  0  0
 14  9  1  0  0  0  0
 15 14  1  0  0  0  0
 16 25  1  0  0  0  0
 16 15  1  0  0  0  0
 17 16  2  0  0  0  0
 18 17  1  0  0  0  0
 19 21  2  0  0  0  0
 19 17  1  0  0  0  0
 20 19  1  0  0  0  0
 21 23  1  0  0  0  0
 22 21  1  0  0  0  0
 23 24  1  0  0  0  0
 23 25  2  0  0  0  0
 25 26  1  0  0  0  0
 27 28  1  0  0  0  0
 27  4  1  0  0  0  0
 28 29  1  0  0  0  0
 30 28  2  0  0  0  0
 30 31  1  0  0  0  0
 32 30  1  0  0  0  0
 33 32  1  0  0  0  0
 34 36  1  0  0  0  0
 34 32  2  0  0  0  0
 35 34  1  0  0  0  0
 36 27  2  0  0  0  0
 37 36  1  0  0  0  0
 38 47  1  0  0  0  0
 39 41  1  0  0  0  0
 39 38  2  0  0  0  0
 40 39  1  0  0  0  0
 41 43  2  0  0  0  0
 42 41  1  0  0  0  0
 43 44  1  0  0  0  0
 43 45  1  0  0  0  0
 45 46  1  0  0  0  0
 47 45  2  0  0  0  0
 47 48  1  0  0  0  0
 49  4  1  0  0  0  0
 50 51  1  0  0  0  0
 50 49  2  0  0  0  0
 52 50  1  0  0  0  0
 53 52  1  0  0  0  0
 54 52  2  0  0  0  0
 54 56  1  0  0  0  0
 55 54  1  0  0  0  0
 56 58  2  0  0  0  0
 57 56  1  0  0  0  0
 58 49  1  0  0  0  0
 58 59  1  0  0  0  0
M  END
$$$$
