CSD_code = XAMWAJ | q = 0 | S = 0 | Stoichiometry = C19H17AuClPS | MND = 2
 OpenBabel04212202113D

 40 42  0  0  0  0  0  0  0  0999 V2000
    0.9615    4.6591    8.8360 Au  0  0  0  0  0  0  0  0  0  0  0  0
    1.5783    6.7501    9.3514 P   0  0  0  0  0  4  0  0  0  0  0  0
    0.4145    2.5519    8.2311 Cl  0  0  0  0  0  0  0  0  0  0  0  0
    1.9924    8.0904    6.6724 S   0  0  0  0  0  0  0  0  0  0  0  0
    0.9881    8.0624    8.1983 C   0  0  0  0  0  0  0  0  0  0  0  0
    1.0022    7.3503   10.9593 C   0  0  0  0  0  0  0  0  0  0  0  0
   -0.2432    7.9571   11.0972 C   0  0  0  0  0  0  0  0  0  0  0  0
   -0.6918    8.3299   12.3511 C   0  0  0  0  0  0  0  0  0  0  0  0
    0.0875    8.0874   13.4706 C   0  0  0  0  0  0  0  0  0  0  0  0
    1.3171    7.4617   13.3388 C   0  0  0  0  0  0  0  0  0  0  0  0
    1.7728    7.0863   12.0893 C   0  0  0  0  0  0  0  0  0  0  0  0
    3.3619    7.0434    9.3943 C   0  0  0  0  0  0  0  0  0  0  0  0
    3.8790    8.2899    9.7385 C   0  0  0  0  0  0  0  0  0  0  0  0
    5.2458    8.4884    9.7241 C   0  0  0  0  0  0  0  0  0  0  0  0
    6.0971    7.4518    9.3710 C   0  0  0  0  0  0  0  0  0  0  0  0
    5.5836    6.2099    9.0367 C   0  0  0  0  0  0  0  0  0  0  0  0
    4.2154    6.0027    9.0481 C   0  0  0  0  0  0  0  0  0  0  0  0
    1.7341    6.4183    6.1003 C   0  0  0  0  0  0  0  0  0  0  0  0
    2.8372    5.5992    5.9180 C   0  0  0  0  0  0  0  0  0  0  0  0
    2.6529    4.3002    5.4768 C   0  0  0  0  0  0  0  0  0  0  0  0
    1.3784    3.8268    5.2155 C   0  0  0  0  0  0  0  0  0  0  0  0
    0.2830    4.6584    5.3805 C   0  0  0  0  0  0  0  0  0  0  0  0
    0.4560    5.9596    5.8171 C   0  0  0  0  0  0  0  0  0  0  0  0
    1.1001    9.0525    8.6487 H   0  0  0  0  0  0  0  0  0  0  0  0
   -0.0594    7.8876    7.9422 H   0  0  0  0  0  0  0  0  0  0  0  0
   -0.8592    8.1361   10.2270 H   0  0  0  0  0  0  0  0  0  0  0  0
   -1.6547    8.8075   12.4553 H   0  0  0  0  0  0  0  0  0  0  0  0
   -0.2670    8.3796   14.4475 H   0  0  0  0  0  0  0  0  0  0  0  0
    1.9201    7.2624   14.2120 H   0  0  0  0  0  0  0  0  0  0  0  0
    2.7286    6.5911   11.9791 H   0  0  0  0  0  0  0  0  0  0  0  0
    3.2115    9.0932   10.0198 H   0  0  0  0  0  0  0  0  0  0  0  0
    5.6506    9.4543    9.9875 H   0  0  0  0  0  0  0  0  0  0  0  0
    7.1644    7.6144    9.3585 H   0  0  0  0  0  0  0  0  0  0  0  0
    6.2470    5.4023    8.7652 H   0  0  0  0  0  0  0  0  0  0  0  0
    3.7963    5.0381    8.7881 H   0  0  0  0  0  0  0  0  0  0  0  0
    3.8250    5.9838    6.1256 H   0  0  0  0  0  0  0  0  0  0  0  0
    3.5086    3.6548    5.3468 H   0  0  0  0  0  0  0  0  0  0  0  0
    1.2351    2.8084    4.8916 H   0  0  0  0  0  0  0  0  0  0  0  0
   -0.7106    4.2910    5.1755 H   0  0  0  0  0  0  0  0  0  0  0  0
   -0.3960    6.6144    5.9325 H   0  0  0  0  0  0  0  0  0  0  0  0
  1  2  1  0  0  0  0
  2 12  1  0  0  0  0
  2  6  1  0  0  0  0
  3  1  1  0  0  0  0
  4  5  1  0  0  0  0
  5 24  1  0  0  0  0
  5  2  1  0  0  0  0
  6  7  2  0  0  0  0
  6 11  1  0  0  0  0
  7  8  1  0  0  0  0
  8 27  1  0  0  0  0
  8  9  2  0  0  0  0
  9 28  1  0  0  0  0
 10  9  1  0  0  0  0
 10 29  1  0  0  0  0
 11 10  2  0  0  0  0
 12 13  1  0  0  0  0
 13 31  1  0  0  0  0
 14 13  2  0  0  0  0
 14 32  1  0  0  0  0
 15 14  1  0  0  0  0
 16 17  1  0  0  0  0
 16 15  2  0  0  0  0
 17 12  2  0  0  0  0
 18  4  1  0  0  0  0
 19 18  1  0  0  0  0
 19 36  1  0  0  0  0
 20 19  2  0  0  0  0
 21 22  2  0  0  0  0
 21 20  1  0  0  0  0
 22 23  1  0  0  0  0
 23 40  1  0  0  0  0
 23 18  2  0  0  0  0
 25  5  1  0  0  0  0
 26  7  1  0  0  0  0
 30 11  1  0  0  0  0
 33 15  1  0  0  0  0
 34 16  1  0  0  0  0
 35 17  1  0  0  0  0
 37 20  1  0  0  0  0
 38 21  1  0  0  0  0
 39 22  1  0  0  0  0
M  END
$$$$
