CSD_code = XANHUR | q = 1 | S = 0 | Stoichiometry = C13H13BrN3PdS(1+) | MND = 4
 OpenBabel04212202113D

 32 35  0  0  1  0  0  0  0  0999 V2000
   -5.1395    3.6246   10.6780 Pd  0  0  2  0  0  0  0  0  0  0  0  0
   -4.8892    5.2998   12.2899 Br  0  0  0  0  0  0  0  0  0  0  0  0
   -2.9521    3.9331   10.2141 S   0  0  2  0  0  0  0  0  0  0  0  0
   -5.4286    2.1840    9.2601 N   0  0  0  0  0  0  0  0  0  0  0  0
   -6.7282    1.8160    9.2701 N   0  0  0  0  0  0  0  0  0  0  0  0
   -7.1258    3.2607   11.0332 N   0  0  0  0  0  0  0  0  0  0  0  0
   -2.4209    2.8063    8.9211 C   0  0  0  0  0  0  0  0  0  0  0  0
   -1.0745    2.9402    8.6106 C   0  0  0  0  0  0  0  0  0  0  0  0
   -0.4823    2.1593    7.6345 C   0  0  0  0  0  0  0  0  0  0  0  0
   -1.2529    1.2358    6.9440 C   0  0  0  0  0  0  0  0  0  0  0  0
   -2.5942    1.1091    7.2334 C   0  0  0  0  0  0  0  0  0  0  0  0
   -3.2219    1.8857    8.2247 C   0  0  0  0  0  0  0  0  0  0  0  0
   -4.6323    1.6402    8.4061 C   0  0  0  0  0  0  0  0  0  0  0  0
   -7.6138    2.3528   10.1731 C   0  0  2  0  0  3  0  0  0  0  0  0
   -8.9547    1.9618   10.1881 C   0  0  0  0  0  0  0  0  0  0  0  0
   -9.7956    2.5350   11.1197 C   0  0  0  0  0  0  0  0  0  0  0  0
   -9.2826    3.4740   12.0095 C   0  0  0  0  0  0  0  0  0  0  0  0
   -7.9460    3.8095   11.9344 C   0  0  0  0  0  0  0  0  0  0  0  0
   -2.3345    2.9901   11.6535 C   0  0  0  0  0  0  0  0  0  0  0  0
   -0.4884    3.6755    9.1417 H   0  0  0  0  0  0  0  0  0  0  0  0
    0.5658    2.2776    7.4115 H   0  0  0  0  0  0  0  0  0  0  0  0
   -0.8089    0.6218    6.1768 H   0  0  0  0  0  0  0  0  0  0  0  0
   -3.1864    0.3933    6.6836 H   0  0  0  0  0  0  0  0  0  0  0  0
   -5.0509    0.8963    7.7249 H   0  0  0  0  0  0  0  0  0  0  0  0
   -9.3131    1.2304    9.4819 H   0  0  0  0  0  0  0  0  0  0  0  0
  -10.8365    2.2557   11.1543 H   0  0  0  0  0  0  0  0  0  0  0  0
   -9.9110    3.9405   12.7489 H   0  0  0  0  0  0  0  0  0  0  0  0
   -7.5109    4.5364   12.6086 H   0  0  0  0  0  0  0  0  0  0  0  0
   -2.4390    3.6364   12.5241 H   0  0  0  0  0  0  0  0  0  0  0  0
   -1.2863    2.7554   11.4910 H   0  0  0  0  0  0  0  0  0  0  0  0
   -2.9146    2.0729   11.7854 H   0  0  0  0  0  0  0  0  0  0  0  0
   -7.0538    1.1234    8.5993 H   0  0  0  0  0  0  0  0  0  0  0  0
  1  6  1  0  0  0  0
  1  2  1  6  0  0  0
  3  1  1  0  0  0  0
  3 19  1  1  0  0  0
  4  5  1  0  0  0  0
  4  1  1  0  0  0  0
  5 14  1  0  0  0  0
  6 18  1  0  0  0  0
  7  3  2  0  0  0  0
  8  7  1  0  0  0  0
  8 20  1  0  0  0  0
  9  8  2  0  0  0  0
 10 11  2  0  0  0  0
 10  9  1  0  0  0  0
 11 12  1  0  0  0  0
 12 13  2  0  0  0  0
 12  7  1  0  0  0  0
 13  4  1  0  0  0  0
 14 15  1  1  0  0  0
 14  6  1  0  0  0  0
 15 16  2  0  0  0  0
 16 26  1  0  0  0  0
 16 17  1  0  0  0  0
 17 27  1  0  0  0  0
 18 17  2  0  0  0  0
 18 28  1  0  0  0  0
 19 31  1  0  0  0  0
 19 29  1  0  0  0  0
 21  9  1  0  0  0  0
 22 10  1  0  0  0  0
 23 11  1  0  0  0  0
 24 13  1  0  0  0  0
 25 15  1  0  0  0  0
 30 19  1  0  0  0  0
 32  5  1  0  0  0  0
M  END
$$$$
