CSD_code = XANHEB | q = 0 | S = 0 | Stoichiometry = C13H12ClN3PdS | MND = 4
 OpenBabel04212202113D

 31 34  0  0  0  0  0  0  0  0999 V2000
   -2.6634    1.2535    9.4361 Pd  0  0  2  0  0  0  0  0  0  0  0  0
   -3.1278    3.0470    8.1546 Cl  0  0  0  0  0  0  0  0  0  0  0  0
   -3.4820    2.4403   11.1866 S   0  0  1  0  0  0  0  0  0  0  0  0
   -2.1829   -0.3657   10.4679 N   0  0  0  0  0  0  0  0  0  0  0  0
   -1.6678   -1.3359    9.7280 N   0  0  0  0  0  0  0  0  0  0  0  0
   -1.8989    0.1500    7.9418 N   0  0  0  0  0  0  0  0  0  0  0  0
   -3.3089    1.5136   12.7094 C   0  0  0  0  0  0  0  0  0  0  0  0
   -3.7776    2.1803   13.8325 C   0  0  0  0  0  0  0  0  0  0  0  0
   -3.7095    1.6059   15.0863 C   0  0  0  0  0  0  0  0  0  0  0  0
   -3.1722    0.3313   15.2121 C   0  0  0  0  0  0  0  0  0  0  0  0
   -2.7204   -0.3403   14.1007 C   0  0  0  0  0  0  0  0  0  0  0  0
   -2.7715    0.2180   12.8063 C   0  0  0  0  0  0  0  0  0  0  0  0
   -2.2665   -0.6067   11.7486 C   0  0  0  0  0  0  0  0  0  0  0  0
   -1.5369   -1.0731    8.4281 C   0  0  0  0  0  0  0  0  0  0  0  0
   -1.0106   -2.0506    7.5557 C   0  0  0  0  0  0  0  0  0  0  0  0
   -0.8696   -1.7591    6.2251 C   0  0  0  0  0  0  0  0  0  0  0  0
   -1.2464   -0.4982    5.7523 C   0  0  0  0  0  0  0  0  0  0  0  0
   -1.7552    0.4191    6.6446 C   0  0  0  0  0  0  0  0  0  0  0  0
   -1.9465    3.4336   11.3081 C   0  0  0  0  0  0  0  0  0  0  0  0
   -4.2016    3.1656   13.7065 H   0  0  0  0  0  0  0  0  0  0  0  0
   -4.0737    2.1389   15.9502 H   0  0  0  0  0  0  0  0  0  0  0  0
   -3.1131   -0.1372   16.1828 H   0  0  0  0  0  0  0  0  0  0  0  0
   -2.3113   -1.3336   14.2101 H   0  0  0  0  0  0  0  0  0  0  0  0
   -1.9019   -1.5853   12.0558 H   0  0  0  0  0  0  0  0  0  0  0  0
   -0.7374   -3.0052    7.9727 H   0  0  0  0  0  0  0  0  0  0  0  0
   -0.4710   -2.4957    5.5436 H   0  0  0  0  0  0  0  0  0  0  0  0
   -1.1459   -0.2414    4.7111 H   0  0  0  0  0  0  0  0  0  0  0  0
   -2.0614    1.4087    6.3259 H   0  0  0  0  0  0  0  0  0  0  0  0
   -1.0734    2.7745   11.3125 H   0  0  0  0  0  0  0  0  0  0  0  0
   -1.9832    4.0245   12.2196 H   0  0  0  0  0  0  0  0  0  0  0  0
   -1.9343    4.0822   10.4322 H   0  0  0  0  0  0  0  0  0  0  0  0
  1  2  1  1  0  0  0
  1  4  1  0  0  0  0
  1  3  1  0  0  0  0
  3 19  1  1  0  0  0
  3  7  2  0  0  0  0
  4 13  1  0  0  0  0
  5  4  1  0  0  0  0
  6 14  1  0  0  0  0
  6  1  1  0  0  0  0
  7 12  1  0  0  0  0
  7  8  1  0  0  0  0
  8  9  2  0  0  0  0
  9 10  1  0  0  0  0
  9 21  1  0  0  0  0
 10 22  1  0  0  0  0
 11 23  1  0  0  0  0
 11 10  2  0  0  0  0
 12 11  1  0  0  0  0
 13 24  1  0  0  0  0
 13 12  2  0  0  0  0
 14  5  2  0  0  0  0
 15 25  1  0  0  0  0
 15 14  1  0  0  0  0
 16 15  2  0  0  0  0
 17 16  1  0  0  0  0
 17 18  2  0  0  0  0
 18  6  1  0  0  0  0
 19 29  1  0  0  0  0
 19 30  1  0  0  0  0
 20  8  1  0  0  0  0
 26 16  1  0  0  0  0
 27 17  1  0  0  0  0
 28 18  1  0  0  0  0
 31 19  1  0  0  0  0
M  END
$$$$
