CSD_code = XANJUT | q = 1 | S = 0 | Stoichiometry = C13H13BrN3PdS(1+) | MND = 4
 OpenBabel04212202113D

 32 35  0  0  1  0  0  0  0  0999 V2000
   13.5027    0.7925   14.3942 Pd  0  0  1  0  0  0  0  0  0  0  0  0
   15.0471   -0.9566   14.2526 Br  0  0  0  0  0  0  0  0  0  0  0  0
   13.3104    0.6196   12.1524 S   0  0  1  0  0  0  0  0  0  0  0  0
   12.1377    2.2988   14.5827 N   0  0  0  0  0  0  0  0  0  0  0  0
   12.0117    2.6141   15.8901 N   0  0  0  0  0  0  0  0  0  0  0  0
   13.6183    1.0379   16.4269 N   0  0  0  0  0  0  0  0  0  0  0  0
   12.1362    1.8262   11.5285 C   0  0  0  0  0  0  0  0  0  0  0  0
   11.9807    1.7629   10.1506 C   0  0  0  0  0  0  0  0  0  0  0  0
   11.1124    2.6113    9.4871 C   0  0  0  0  0  0  0  0  0  0  0  0
   10.3742    3.5319   10.2156 C   0  0  0  0  0  0  0  0  0  0  0  0
   10.5113    3.5910   11.5856 C   0  0  0  0  0  0  0  0  0  0  0  0
   11.3903    2.7449   12.2861 C   0  0  0  0  0  0  0  0  0  0  0  0
   11.4166    2.9240   13.7177 C   0  0  0  0  0  0  0  0  0  0  0  0
   12.7597    1.9784   16.8515 C   0  0  1  0  0  3  0  0  0  0  0  0
   12.6263    2.3060   18.2029 C   0  0  0  0  0  0  0  0  0  0  0  0
   13.4047    1.6327   19.1217 C   0  0  0  0  0  0  0  0  0  0  0  0
   14.2931    0.6594   18.6744 C   0  0  0  0  0  0  0  0  0  0  0  0
   14.3705    0.3917   17.3226 C   0  0  0  0  0  0  0  0  0  0  0  0
   14.8496    1.5315   11.7773 C   0  0  0  0  0  0  0  0  0  0  0  0
   12.5471    1.0296    9.5961 H   0  0  0  0  0  0  0  0  0  0  0  0
   11.0088    2.5468    8.4161 H   0  0  0  0  0  0  0  0  0  0  0  0
    9.6885    4.1972    9.7157 H   0  0  0  0  0  0  0  0  0  0  0  0
    9.9258    4.3063   12.1432 H   0  0  0  0  0  0  0  0  0  0  0  0
   10.7314    3.6898   14.0878 H   0  0  0  0  0  0  0  0  0  0  0  0
   11.9263    3.0666   18.5087 H   0  0  0  0  0  0  0  0  0  0  0  0
   13.3222    1.8609   20.1723 H   0  0  0  0  0  0  0  0  0  0  0  0
   14.9148    0.1150   19.3645 H   0  0  0  0  0  0  0  0  0  0  0  0
   15.0493   -0.3584   16.9368 H   0  0  0  0  0  0  0  0  0  0  0  0
   14.9262    2.4237   12.4039 H   0  0  0  0  0  0  0  0  0  0  0  0
   14.8429    1.8064   10.7263 H   0  0  0  0  0  0  0  0  0  0  0  0
   15.6773    0.8519   11.9763 H   0  0  0  0  0  0  0  0  0  0  0  0
   11.3451    3.3317   16.1662 H   0  0  0  0  0  0  0  0  0  0  0  0
  1  2  1  1  0  0  0
  1  4  1  0  0  0  0
  1  6  1  0  0  0  0
  3 19  1  6  0  0  0
  3  1  1  0  0  0  0
  4  5  1  0  0  0  0
  5 32  1  0  0  0  0
  5 14  1  0  0  0  0
  6 14  1  0  0  0  0
  6 18  1  0  0  0  0
  7  3  2  0  0  0  0
  7 12  1  0  0  0  0
  8  7  1  0  0  0  0
  9  8  2  0  0  0  0
  9 10  1  0  0  0  0
 10 11  2  0  0  0  0
 11 23  1  0  0  0  0
 11 12  1  0  0  0  0
 12 13  2  0  0  0  0
 13 24  1  0  0  0  0
 13  4  1  0  0  0  0
 14 15  1  6  0  0  0
 15 25  1  0  0  0  0
 15 16  2  0  0  0  0
 16 26  1  0  0  0  0
 17 16  1  0  0  0  0
 17 27  1  0  0  0  0
 18 17  2  0  0  0  0
 19 31  1  0  0  0  0
 19 29  1  0  0  0  0
 20  8  1  0  0  0  0
 21  9  1  0  0  0  0
 22 10  1  0  0  0  0
 28 18  1  0  0  0  0
 30 19  1  0  0  0  0
M  END
$$$$
