CSD_code = XANJED | q = 1 | S = 0 | Stoichiometry = C13H13BrN3PdS(1+) | MND = 4
 OpenBabel04212202113D

 32 35  0  0  1  0  0  0  0  0999 V2000
    1.4284    3.1346   18.2235 Pd  0  0  2  0  0  0  0  0  0  0  0  0
    3.0050    1.5604   17.5148 Br  0  0  0  0  0  0  0  0  0  0  0  0
    2.0286    2.5851   20.3289 S   0  0  2  0  0  0  0  0  0  0  0  0
    0.0099    4.4924   18.7826 N   0  0  0  0  0  0  0  0  0  0  0  0
   -0.5844    4.9853   17.6742 N   0  0  0  0  0  0  0  0  0  0  0  0
    0.8248    3.7132   16.3514 N   0  0  0  0  0  0  0  0  0  0  0  0
    1.1018    3.5591   21.5190 C   0  0  0  0  0  0  0  0  0  0  0  0
    1.4459    3.2732   22.8331 C   0  0  0  0  0  0  0  0  0  0  0  0
    0.8321    3.9180   23.8919 C   0  0  0  0  0  0  0  0  0  0  0  0
   -0.1556    4.8568   23.6344 C   0  0  0  0  0  0  0  0  0  0  0  0
   -0.5149    5.1345   22.3334 C   0  0  0  0  0  0  0  0  0  0  0  0
    0.0960    4.4988   21.2369 C   0  0  0  0  0  0  0  0  0  0  0  0
   -0.3938    4.8933   19.9381 C   0  0  0  0  0  0  0  0  0  0  0  0
   -0.1783    4.6029   16.4185 C   0  0  2  0  0  3  0  0  0  0  0  0
   -0.7858    5.1244   15.2739 C   0  0  0  0  0  0  0  0  0  0  0  0
   -0.3333    4.7034   14.0404 C   0  0  0  0  0  0  0  0  0  0  0  0
    0.7081    3.7823   13.9782 C   0  0  0  0  0  0  0  0  0  0  0  0
    1.2590    3.3119   15.1529 C   0  0  0  0  0  0  0  0  0  0  0  0
    3.5727    3.5640   20.3303 C   0  0  0  0  0  0  0  0  0  0  0  0
    2.0697    2.5941   15.1449 H   0  0  0  0  0  0  0  0  0  0  0  0
    1.0850    3.4326   13.0322 H   0  0  0  0  0  0  0  0  0  0  0  0
   -0.7839    5.0861   13.1386 H   0  0  0  0  0  0  0  0  0  0  0  0
   -1.5899    5.8366   15.3648 H   0  0  0  0  0  0  0  0  0  0  0  0
   -1.2050    5.6240   19.9662 H   0  0  0  0  0  0  0  0  0  0  0  0
   -1.2907    5.8613   22.1448 H   0  0  0  0  0  0  0  0  0  0  0  0
   -0.6484    5.3652   24.4476 H   0  0  0  0  0  0  0  0  0  0  0  0
    1.1166    3.6823   24.9047 H   0  0  0  0  0  0  0  0  0  0  0  0
    2.2028    2.5266   23.0222 H   0  0  0  0  0  0  0  0  0  0  0  0
    3.4081    4.5373   19.8595 H   0  0  0  0  0  0  0  0  0  0  0  0
    4.3117    2.9904   19.7719 H   0  0  0  0  0  0  0  0  0  0  0  0
    3.9026    3.6908   21.3577 H   0  0  0  0  0  0  0  0  0  0  0  0
   -1.3419    5.6574   17.7737 H   0  0  0  0  0  0  0  0  0  0  0  0
  1  2  1  1  0  0  0
  1  4  1  0  0  0  0
  1  3  1  0  0  0  0
  3 19  1  6  0  0  0
  3  7  2  0  0  0  0
  4 13  1  0  0  0  0
  5 32  1  0  0  0  0
  5  4  1  0  0  0  0
  6 14  1  0  0  0  0
  6  1  1  0  0  0  0
  7  8  1  0  0  0  0
  8 28  1  0  0  0  0
  8  9  2  0  0  0  0
  9 27  1  0  0  0  0
 10  9  1  0  0  0  0
 10 26  1  0  0  0  0
 11 10  2  0  0  0  0
 12  7  1  0  0  0  0
 12 11  1  0  0  0  0
 13 24  1  0  0  0  0
 13 12  2  0  0  0  0
 14 15  1  6  0  0  0
 14  5  1  0  0  0  0
 15 23  1  0  0  0  0
 16 15  2  0  0  0  0
 17 16  1  0  0  0  0
 17 18  2  0  0  0  0
 18  6  1  0  0  0  0
 19 31  1  0  0  0  0
 20 18  1  0  0  0  0
 21 17  1  0  0  0  0
 22 16  1  0  0  0  0
 25 11  1  0  0  0  0
 29 19  1  0  0  0  0
 30 19  1  0  0  0  0
M  END
$$$$
