CSD_code = XANLOQ | q = 0 | S = 0 | Stoichiometry = C9H9AuClN3 | MND = 2
 OpenBabel04212202113D

 23 24  0  0  0  0  0  0  0  0999 V2000
    2.0790    5.3090   -0.5252 Au  0  0  0  0  0  0  0  0  0  0  0  0
    3.0928    5.7395   -2.4785 Cl  0  0  0  0  0  0  0  0  0  0  0  0
    1.1642    4.9448    1.1993 C   0  0  0  0  0  0  0  0  0  0  0  0
    1.5418    4.1854    2.2918 C   0  0  0  0  0  0  0  0  0  0  0  0
    2.4262    3.6032    2.4320 H   0  0  0  0  0  0  0  0  0  0  0  0
   -0.0498    5.4157    1.5819 N   0  0  0  0  0  0  0  0  0  0  0  0
   -0.4250    5.0143    2.7722 N   0  0  0  0  0  2  0  0  0  0  0  0
    0.5499    4.2611    3.2123 N   0  0  0  0  0  0  0  0  0  0  0  0
   -0.9092    6.2710    0.8217 C   0  0  0  0  0  0  0  0  0  0  0  0
   -1.8034    6.4689    1.4088 H   0  0  0  0  0  0  0  0  0  0  0  0
   -1.1757    5.7896   -0.1190 H   0  0  0  0  0  0  0  0  0  0  0  0
   -0.3956    7.2048    0.5933 H   0  0  0  0  0  0  0  0  0  0  0  0
    0.4725    3.6480    4.4752 C   0  0  0  0  0  0  0  0  0  0  0  0
   -0.7697    3.5335    5.0903 C   0  0  0  0  0  0  0  0  0  0  0  0
   -1.6425    3.9197    4.5890 H   0  0  0  0  0  0  0  0  0  0  0  0
   -0.8633    2.9278    6.3290 C   0  0  0  0  0  0  0  0  0  0  0  0
   -1.8262    2.8364    6.8066 H   0  0  0  0  0  0  0  0  0  0  0  0
    0.2726    2.4367    6.9525 C   0  0  0  0  0  0  0  0  0  0  0  0
    0.1959    1.9612    7.9179 H   0  0  0  0  0  0  0  0  0  0  0  0
    1.5080    2.5602    6.3384 C   0  0  0  0  0  0  0  0  0  0  0  0
    2.3947    2.1857    6.8256 H   0  0  0  0  0  0  0  0  0  0  0  0
    1.6168    3.1673    5.1002 C   0  0  0  0  0  0  0  0  0  0  0  0
    2.5846    3.2762    4.6375 H   0  0  0  0  0  0  0  0  0  0  0  0
  1  3  1  0  0  0  0
  2  1  1  0  0  0  0
  3  6  1  0  0  0  0
  3  4  2  0  0  0  0
  4  5  1  0  0  0  0
  4  8  1  0  0  0  0
  6  7  1  0  0  0  0
  7  8  1  0  0  0  0
  8 13  1  0  0  0  0
  9 10  1  0  0  0  0
  9  6  1  0  0  0  0
 11  9  1  0  0  0  0
 12  9  1  0  0  0  0
 13 14  2  0  0  0  0
 13 22  1  0  0  0  0
 14 16  1  0  0  0  0
 15 14  1  0  0  0  0
 16 17  1  0  0  0  0
 16 18  2  0  0  0  0
 18 19  1  0  0  0  0
 20 21  1  0  0  0  0
 20 18  1  0  0  0  0
 22 20  2  0  0  0  0
 23 22  1  0  0  0  0
M  END
$$$$
