CSD_code = XANTIQ | q = 0 | S = 0 | Stoichiometry = C25H30Cl2N3O2Rh | MND = 6
 OpenBabel04212202113D

 63 68  0  0  1  0  0  0  0  0999 V2000
    7.0359   14.7862   14.1921 Rh  0  0  0  0  0  0  0  0  0  0  0  0
    8.2105   13.5237   15.7672 Cl  0  0  0  0  0  0  0  0  0  0  0  0
    5.8165   16.1188   12.7804 Cl  0  0  0  0  0  0  0  0  0  0  0  0
   10.2819   17.2074   14.4990 O   0  0  0  0  0  0  0  0  0  0  0  0
    4.0562   14.9772   16.9915 O   0  0  0  0  0  0  0  0  0  0  0  0
    8.7678   15.7433   13.7431 N   0  0  1  0  0  0  0  0  0  0  0  0
    7.1041   16.1635   15.6545 N   0  0  0  0  0  0  0  0  0  0  0  0
    5.3078   14.3595   15.2426 N   0  0  0  0  0  0  0  0  0  0  0  0
    7.0426   13.3297   12.7487 C   0  0  0  0  0  0  0  0  0  0  0  0
    5.9163   12.8538   12.2256 C   0  0  0  0  0  0  0  0  0  0  0  0
    5.9355   12.1022   11.4457 H   0  0  0  0  0  0  0  0  0  0  0  0
    4.9349   13.1870   12.5190 H   0  0  0  0  0  0  0  0  0  0  0  0
    8.3141   12.8680   12.1546 C   0  0  0  0  0  0  0  0  0  0  0  0
    9.3361   12.2704   12.8923 C   0  0  0  0  0  0  0  0  0  0  0  0
    9.2175   12.1358   13.9555 H   0  0  0  0  0  0  0  0  0  0  0  0
   10.4956   11.8408   12.2709 C   0  0  0  0  0  0  0  0  0  0  0  0
   11.2752   11.3766   12.8584 H   0  0  0  0  0  0  0  0  0  0  0  0
   10.6607   11.9946   10.9044 C   0  0  0  0  0  0  0  0  0  0  0  0
   11.5686   11.6597   10.4233 H   0  0  0  0  0  0  0  0  0  0  0  0
    9.6476   12.5733   10.1571 C   0  0  0  0  0  0  0  0  0  0  0  0
    9.7606   12.6852    9.0876 H   0  0  0  0  0  0  0  0  0  0  0  0
    8.4877   13.0026   10.7739 C   0  0  0  0  0  0  0  0  0  0  0  0
    7.6982   13.4506   10.1879 H   0  0  0  0  0  0  0  0  0  0  0  0
    3.4309   11.0598   15.0730 C   0  0  0  0  0  0  0  0  0  0  0  0
    3.0022   11.2438   14.0907 H   0  0  0  0  0  0  0  0  0  0  0  0
    2.6525   11.1999   15.8206 H   0  0  0  0  0  0  0  0  0  0  0  0
    3.7582   10.0245   15.1129 H   0  0  0  0  0  0  0  0  0  0  0  0
    5.2724   11.6944   16.6758 C   0  0  0  0  0  0  0  0  0  0  0  0
    5.5986   10.6579   16.6983 H   0  0  0  0  0  0  0  0  0  0  0  0
    4.5900   11.8488   17.5096 H   0  0  0  0  0  0  0  0  0  0  0  0
    6.1511   12.3198   16.8128 H   0  0  0  0  0  0  0  0  0  0  0  0
    4.6168   11.9857   15.3292 C   0  0  0  0  0  0  0  0  0  0  0  0
    5.3699   11.8237   14.5505 H   0  0  0  0  0  0  0  0  0  0  0  0
    4.1708   13.4566   15.1884 C   0  0  1  0  0  0  0  0  0  0  0  0
    3.6789   13.5751   14.2170 H   0  0  0  0  0  0  0  0  0  0  0  0
    3.2694   13.9840   16.3280 C   0  0  0  0  0  0  0  0  0  0  0  0
    2.3599   14.4641   15.9555 H   0  0  0  0  0  0  0  0  0  0  0  0
    2.9997   13.2181   17.0564 H   0  0  0  0  0  0  0  0  0  0  0  0
    5.1649   15.1291   16.2720 C   0  0  0  0  0  0  0  0  0  0  0  0
    6.1932   16.0982   16.6230 C   0  0  0  0  0  0  0  0  0  0  0  0
    6.3484   16.8346   17.7929 C   0  0  0  0  0  0  0  0  0  0  0  0
    5.6048   16.7859   18.5713 H   0  0  0  0  0  0  0  0  0  0  0  0
    7.4943   17.6125   17.9221 C   0  0  0  0  0  0  0  0  0  0  0  0
    7.6418   18.1987   18.8161 H   0  0  0  0  0  0  0  0  0  0  0  0
    8.4681   17.6160   16.9306 C   0  0  0  0  0  0  0  0  0  0  0  0
    9.3829   18.1762   17.0346 H   0  0  0  0  0  0  0  0  0  0  0  0
    8.2355   16.8555   15.7881 C   0  0  0  0  0  0  0  0  0  0  0  0
    9.1047   16.6048   14.6506 C   0  0  1  0  0  3  0  0  0  0  0  0
   10.8919   16.6235   13.3434 C   0  0  0  0  0  0  0  0  0  0  0  0
   11.7501   16.0310   13.6744 H   0  0  0  0  0  0  0  0  0  0  0  0
   11.2380   17.4291   12.6952 H   0  0  0  0  0  0  0  0  0  0  0  0
    9.7874   15.7515   12.7078 C   0  0  2  0  0  0  0  0  0  0  0  0
   10.1314   14.7264   12.5392 H   0  0  0  0  0  0  0  0  0  0  0  0
    9.2110   16.2944   11.3828 C   0  0  0  0  0  0  0  0  0  0  0  0
    8.3481   15.6637   11.1492 H   0  0  0  0  0  0  0  0  0  0  0  0
   10.2451   16.1490   10.2711 C   0  0  0  0  0  0  0  0  0  0  0  0
   10.5644   15.1135   10.1817 H   0  0  0  0  0  0  0  0  0  0  0  0
   11.1203   16.7670   10.4619 H   0  0  0  0  0  0  0  0  0  0  0  0
    9.8115   16.4577    9.3238 H   0  0  0  0  0  0  0  0  0  0  0  0
    8.7139   17.7323   11.5033 C   0  0  0  0  0  0  0  0  0  0  0  0
    7.9084   17.7932   12.2312 H   0  0  0  0  0  0  0  0  0  0  0  0
    8.3147   18.0550   10.5455 H   0  0  0  0  0  0  0  0  0  0  0  0
    9.5074   18.4208   11.7877 H   0  0  0  0  0  0  0  0  0  0  0  0
  1  8  1  0  0  0  0
  1  7  1  0  0  0  0
  1  2  1  0  0  0  0
  3  1  1  0  0  0  0
  4 48  1  0  0  0  0
  6  1  1  0  0  0  0
  6 48  1  0  0  0  0
  7 47  1  0  0  0  0
  7 40  1  0  0  0  0
  8 39  1  0  0  0  0
  9  1  1  0  0  0  0
 10 12  1  0  0  0  0
 10  9  2  0  0  0  0
 11 10  1  0  0  0  0
 13  9  1  0  0  0  0
 13 14  1  0  0  0  0
 14 15  1  0  0  0  0
 16 17  1  0  0  0  0
 16 14  2  0  0  0  0
 18 16  1  0  0  0  0
 19 18  1  0  0  0  0
 20 22  1  0  0  0  0
 20 18  2  0  0  0  0
 21 20  1  0  0  0  0
 22 13  2  0  0  0  0
 23 22  1  0  0  0  0
 24 27  1  0  0  0  0
 24 32  1  0  0  0  0
 24 26  1  0  0  0  0
 25 24  1  0  0  0  0
 28 29  1  0  0  0  0
 28 31  1  0  0  0  0
 28 30  1  0  0  0  0
 32 28  1  0  0  0  0
 33 32  1  0  0  0  0
 34  8  1  0  0  0  0
 34 32  1  0  0  0  0
 34 36  1  0  0  0  0
 35 34  1  0  0  0  0
 36  5  1  0  0  0  0
 36 38  1  0  0  0  0
 37 36  1  0  0  0  0
 39 40  2  0  0  0  0
 39  5  1  0  0  0  0
 40 41  1  0  0  0  0
 41 43  2  0  0  0  0
 41 42  1  0  0  0  0
 43 44  1  0  0  0  0
 45 46  1  0  0  0  0
 45 43  1  0  0  0  0
 47 45  2  0  0  0  0
 48 47  1  0  0  0  0
 49 50  1  0  0  0  0
 49  4  1  0  0  0  0
 51 49  1  0  0  0  0
 52 49  1  0  0  0  0
 52  6  1  0  0  0  0
 53 52  1  0  0  0  0
 54 60  1  0  0  0  0
 54 52  1  0  0  0  0
 55 54  1  0  0  0  0
 56 58  1  0  0  0  0
 56 54  1  0  0  0  0
 57 56  1  0  0  0  0
 59 56  1  0  0  0  0
 60 63  1  0  0  0  0
 60 61  1  0  0  0  0
 62 60  1  0  0  0  0
M  END
$$$$
