CSD_code = XANYUG | q = 0 | S = 0 | Stoichiometry = C23H23I3LaN5 | MND = 8
 OpenBabel04212202113D

 55 61  0  0  1  0  0  0  0  0999 V2000
    8.1600   11.6284   -1.1413 La  0  0  0  0  0  0  0  0  0  0  0  0
    9.4478    9.2272   -2.5957 I   0  0  0  0  0  0  0  0  0  0  0  0
    5.5055   12.5095    0.1685 I   0  0  0  0  0  0  0  0  0  0  0  0
   10.0809   12.4769    1.0481 I   0  0  0  0  0  0  0  0  0  0  0  0
   10.2923   12.6136   -2.8171 N   0  0  0  0  0  0  0  0  0  0  0  0
    7.7554   14.3681   -1.6754 N   0  0  0  0  0  0  0  0  0  0  0  0
    6.1594   10.4975   -2.7287 N   0  0  0  0  0  0  0  0  0  0  0  0
    7.5719   12.6839   -3.7974 N   0  0  2  0  0  4  0  0  0  0  0  0
    7.5803    9.5819    0.7230 N   0  0  0  0  0  0  0  0  0  0  0  0
    8.6775   13.4177   -4.4248 C   0  0  0  0  0  0  0  0  0  0  0  0
    8.6840   14.4376   -4.0279 H   0  0  0  0  0  0  0  0  0  0  0  0
    8.5408   13.4825   -5.5152 H   0  0  0  0  0  0  0  0  0  0  0  0
   10.0235   12.8184   -4.1076 C   0  0  1  0  0  3  0  0  0  0  0  0
   10.9428   12.5499   -5.1124 C   0  0  0  0  0  0  0  0  0  0  0  0
   10.6773   12.7090   -6.1468 H   0  0  0  0  0  0  0  0  0  0  0  0
   12.1964   12.0717   -4.7676 C   0  0  0  0  0  0  0  0  0  0  0  0
   12.9241   11.8419   -5.5310 H   0  0  0  0  0  0  0  0  0  0  0  0
   12.4903   11.8969   -3.4268 C   0  0  0  0  0  0  0  0  0  0  0  0
   13.4534   11.5356   -3.1058 H   0  0  0  0  0  0  0  0  0  0  0  0
   11.5041   12.1732   -2.4940 C   0  0  0  0  0  0  0  0  0  0  0  0
   11.7012   12.0310   -1.4393 H   0  0  0  0  0  0  0  0  0  0  0  0
    6.4438   13.5861   -3.5680 C   0  0  0  0  0  0  0  0  0  0  0  0
    5.5946   13.0031   -3.1924 H   0  0  0  0  0  0  0  0  0  0  0  0
    6.1214   14.0739   -4.5039 H   0  0  0  0  0  0  0  0  0  0  0  0
    6.7783   14.6411   -2.5421 C   0  0  1  0  0  3  0  0  0  0  0  0
    6.0638   15.8316   -2.5054 C   0  0  0  0  0  0  0  0  0  0  0  0
    5.2714   16.0069   -3.2169 H   0  0  0  0  0  0  0  0  0  0  0  0
    6.3710   16.7692   -1.5348 C   0  0  0  0  0  0  0  0  0  0  0  0
    5.8172   17.6936   -1.4729 H   0  0  0  0  0  0  0  0  0  0  0  0
    7.4015   16.4959   -0.6503 C   0  0  0  0  0  0  0  0  0  0  0  0
    7.6807   17.1965    0.1194 H   0  0  0  0  0  0  0  0  0  0  0  0
    8.0622   15.2850   -0.7629 C   0  0  0  0  0  0  0  0  0  0  0  0
    8.8690   15.0348   -0.0864 H   0  0  0  0  0  0  0  0  0  0  0  0
    7.1920   11.5669   -4.6601 C   0  0  0  0  0  0  0  0  0  0  0  0
    8.0976   10.9808   -4.8645 H   0  0  0  0  0  0  0  0  0  0  0  0
    6.8055   11.9300   -5.6284 H   0  0  0  0  0  0  0  0  0  0  0  0
    6.1788   10.6321   -4.0536 C   0  0  1  0  0  3  0  0  0  0  0  0
    5.3302    9.9064   -4.8832 C   0  0  0  0  0  0  0  0  0  0  0  0
    5.3770   10.0414   -5.9529 H   0  0  0  0  0  0  0  0  0  0  0  0
    4.4406    9.0101   -4.3193 C   0  0  0  0  0  0  0  0  0  0  0  0
    3.7768    8.4307   -4.9429 H   0  0  0  0  0  0  0  0  0  0  0  0
    4.4179    8.8769   -2.9399 C   0  0  0  0  0  0  0  0  0  0  0  0
    3.7388    8.1962   -2.4529 H   0  0  0  0  0  0  0  0  0  0  0  0
    5.2916    9.6444   -2.1916 C   0  0  0  0  0  0  0  0  0  0  0  0
    5.2919    9.5775   -1.1106 H   0  0  0  0  0  0  0  0  0  0  0  0
    7.4547    9.9408    2.0009 C   0  0  0  0  0  3  0  0  0  0  0  0
    7.5742   10.9922    2.2296 H   0  0  0  0  0  0  0  0  0  0  0  0
    7.1792    9.0459    3.0208 C   0  0  0  0  0  0  0  0  0  0  0  0
    7.0925    9.3990    4.0357 H   0  0  0  0  0  0  0  0  0  0  0  0
    7.0203    7.7064    2.7080 C   0  0  0  0  0  0  0  0  0  0  0  0
    6.8055    6.9789    3.4767 H   0  0  0  0  0  0  0  0  0  0  0  0
    7.1428    7.3233    1.3825 C   0  0  0  0  0  0  0  0  0  0  0  0
    7.0283    6.2934    1.0830 H   0  0  0  0  0  0  0  0  0  0  0  0
    7.4224    8.2912    0.4335 C   0  0  0  0  0  0  0  0  0  0  0  0
    7.5279    8.0113   -0.6068 H   0  0  0  0  0  0  0  0  0  0  0  0
  1  3  1  0  0  0  0
  1  9  1  0  0  0  0
  1  4  1  0  0  0  0
  2  1  1  0  0  0  0
  5 20  1  0  0  0  0
  5  1  1  0  0  0  0
  6  1  1  0  0  0  0
  6 32  1  0  0  0  0
  7 44  1  0  0  0  0
  7  1  1  0  0  0  0
  8 34  1  6  0  0  0
  8 22  1  0  0  0  0
  8  1  1  0  0  0  0
  9 46  1  0  0  0  0
 10 13  1  0  0  0  0
 10 11  1  0  0  0  0
 10  8  1  0  0  0  0
 12 10  1  0  0  0  0
 13 14  1  1  0  0  0
 13  5  1  0  0  0  0
 14 16  2  0  0  0  0
 15 14  1  0  0  0  0
 16 18  1  0  0  0  0
 17 16  1  0  0  0  0
 18 19  1  0  0  0  0
 18 20  2  0  0  0  0
 20 21  1  0  0  0  0
 22 23  1  0  0  0  0
 22 25  1  0  0  0  0
 24 22  1  0  0  0  0
 25 26  1  1  0  0  0
 25  6  1  0  0  0  0
 26 28  2  0  0  0  0
 27 26  1  0  0  0  0
 28 29  1  0  0  0  0
 28 30  1  0  0  0  0
 30 31  1  0  0  0  0
 32 30  2  0  0  0  0
 32 33  1  0  0  0  0
 34 37  1  0  0  0  0
 35 34  1  0  0  0  0
 36 34  1  0  0  0  0
 37 38  1  6  0  0  0
 37  7  1  0  0  0  0
 38 40  2  0  0  0  0
 39 38  1  0  0  0  0
 40 42  1  0  0  0  0
 41 40  1  0  0  0  0
 42 43  1  0  0  0  0
 42 44  2  0  0  0  0
 44 45  1  0  0  0  0
 46 47  1  0  0  0  0
 46 48  1  0  0  0  0
 48 49  1  0  0  0  0
 50 48  2  0  0  0  0
 50 51  1  0  0  0  0
 52 50  1  0  0  0  0
 53 52  1  0  0  0  0
 54  9  1  0  0  0  0
 54 52  2  0  0  0  0
 55 54  1  0  0  0  0
M  END
$$$$
