CSD_code = XAPXIY | q = 0 | S = 0 | Stoichiometry = C17H13AuCl3N | MND = 4
 OpenBabel04212202113D

 35 37  0  0  1  0  0  0  0  0999 V2000
    4.7075    2.1767    3.0316 Au  0  0  0  0  0  0  0  0  0  0  0  0
    2.8477    2.1252    4.3558 Cl  0  0  0  0  0  0  0  0  0  0  0  0
    4.7073    4.3990    3.0312 Cl  0  0  0  0  0  0  0  0  0  0  0  0
    4.7071    0.1214    3.0315 N   0  0  0  0  0  0  0  0  0  0  0  0
    3.7624   -0.5328    2.3492 C   0  0  2  0  0  3  0  0  0  0  0  0
    2.7765    0.2696    1.6124 C   0  0  0  0  0  0  0  0  0  0  0  0
    2.2676    1.9652   -0.0140 C   0  0  0  0  0  0  0  0  0  0  0  0
    2.5979    2.6599   -0.7711 H   0  0  0  0  0  0  0  0  0  0  0  0
    3.7266   -1.9224    2.3510 C   0  0  0  0  0  0  0  0  0  0  0  0
    2.9476   -2.4277    1.8029 H   0  0  0  0  0  0  0  0  0  0  0  0
    1.4232    0.1591    1.9165 C   0  0  0  0  0  0  0  0  0  0  0  0
    1.1038   -0.5302    2.6836 H   0  0  0  0  0  0  0  0  0  0  0  0
    4.7074   -2.6231    3.0311 C   0  0  0  0  0  0  0  0  0  0  0  0
    4.7076   -3.7026    3.0309 H   0  0  0  0  0  0  0  0  0  0  0  0
    3.1967    1.1693    0.6328 C   0  0  0  0  0  0  0  0  0  0  0  0
    4.2381    1.2100    0.3473 H   0  0  0  0  0  0  0  0  0  0  0  0
    0.5051    0.9692    1.2750 C   0  0  0  0  0  0  0  0  0  0  0  0
   -0.5409    0.8981    1.5316 H   0  0  0  0  0  0  0  0  0  0  0  0
    0.9257    1.8767    0.3162 C   0  0  0  0  0  0  0  0  0  0  0  0
    0.2065    2.5140   -0.1756 H   0  0  0  0  0  0  0  0  0  0  0  0
    5.6521   -0.5328    3.7137 C   0  0  0  0  0  0  0  0  0  0  0  0
    6.6378    0.2696    4.4507 C   0  0  0  0  0  0  0  0  0  0  0  0
    7.1464    1.9656    6.0768 C   0  0  0  0  0  0  0  0  0  0  0  0
    6.8159    2.6605    6.8336 H   0  0  0  0  0  0  0  0  0  0  0  0
    5.6881   -1.9224    3.7115 C   0  0  0  0  0  0  0  0  0  0  0  0
    6.4672   -2.4277    4.2594 H   0  0  0  0  0  0  0  0  0  0  0  0
    7.9912    0.1587    4.1472 C   0  0  0  0  0  0  0  0  0  0  0  0
    8.3108   -0.5308    3.3804 H   0  0  0  0  0  0  0  0  0  0  0  0
    6.2174    1.1696    5.4299 C   0  0  0  0  0  0  0  0  0  0  0  0
    5.1759    1.2106    5.7149 H   0  0  0  0  0  0  0  0  0  0  0  0
    8.9092    0.9688    4.7889 C   0  0  0  0  0  0  0  0  0  0  0  0
    9.9553    0.8974    4.5328 H   0  0  0  0  0  0  0  0  0  0  0  0
    8.4884    1.8767    5.7472 C   0  0  0  0  0  0  0  0  0  0  0  0
    9.2075    2.5140    6.2391 H   0  0  0  0  0  0  0  0  0  0  0  0
    6.5666    2.1245    1.7066 Cl  0  0  0  0  0  0  0  0  0  0  0  0
  1  2  1  0  0  0  0
  3  1  1  0  0  0  0
  4  1  1  0  0  0  0
  4 21  1  0  0  0  0
  5  6  1  1  0  0  0
  5  9  1  0  0  0  0
  5  4  1  0  0  0  0
  6 11  1  0  0  0  0
  7 19  2  0  0  0  0
  7 15  1  0  0  0  0
  8  7  1  0  0  0  0
  9 13  2  0  0  0  0
 10  9  1  0  0  0  0
 11 12  1  0  0  0  0
 13 25  1  0  0  0  0
 14 13  1  0  0  0  0
 15  6  2  0  0  0  0
 16 15  1  0  0  0  0
 17 18  1  0  0  0  0
 17 11  2  0  0  0  0
 19 17  1  0  0  0  0
 20 19  1  0  0  0  0
 21 22  1  0  0  0  0
 22 29  1  0  0  0  0
 23 24  1  0  0  0  0
 25 21  2  0  0  0  0
 25 26  1  0  0  0  0
 27 22  2  0  0  0  0
 27 31  1  0  0  0  0
 28 27  1  0  0  0  0
 29 30  1  0  0  0  0
 29 23  2  0  0  0  0
 31 33  2  0  0  0  0
 32 31  1  0  0  0  0
 33 23  1  0  0  0  0
 33 34  1  0  0  0  0
 35  1  1  0  0  0  0
M  END
$$$$
