CSD_code = XAPYES | q = 0 | S = 0 | Stoichiometry = C19H16Cl2N3Rh | MND = 6
 OpenBabel04212202113D

 41 45  0  0  1  0  0  0  0  0999 V2000
    2.2925   -1.1658    1.8390 Rh  0  0  0  0  0  0  0  0  0  0  0  0
    3.7694    0.4492    2.6554 Cl  0  0  0  0  0  0  0  0  0  0  0  0
    0.7396   -2.7088    1.0509 Cl  0  0  0  0  0  0  0  0  0  0  0  0
    0.7699    0.2308    2.6150 N   0  0  0  0  0  0  0  0  0  0  0  0
    2.1014   -1.8093    3.6716 N   0  0  0  0  0  0  0  0  0  0  0  0
    2.3840   -0.4750    0.1107 N   0  0  0  0  0  2  0  0  0  0  0  0
    0.1874    1.2477    2.0009 C   0  0  0  0  0  3  0  0  0  0  0  0
   -0.2086    2.3976    2.6638 C   0  0  0  0  0  0  0  0  0  0  0  0
    0.0305    2.4878    4.0262 C   0  0  0  0  0  0  0  0  0  0  0  0
    0.6235    1.4200    4.6753 C   0  0  0  0  0  0  0  0  0  0  0  0
    0.9802    0.2912    3.9406 C   0  0  0  0  0  0  0  0  0  0  0  0
    1.5672   -0.9185    4.5337 C   0  0  1  0  0  3  0  0  0  0  0  0
    1.5081   -1.1796    5.8984 C   0  0  0  0  0  0  0  0  0  0  0  0
    2.0005   -2.3786    6.3801 C   0  0  0  0  0  0  0  0  0  0  0  0
    2.4841   -3.3059    5.4759 C   0  0  0  0  0  0  0  0  0  0  0  0
    2.5091   -3.0008    4.1188 C   0  0  0  0  0  0  0  0  0  0  0  0
    2.9366   -4.0266    3.1186 C   0  0  0  0  0  0  0  0  0  0  0  0
    4.0332   -3.5479    2.1978 C   0  0  0  0  0  0  0  0  0  0  0  0
    3.8987   -2.3558    1.4869 C   0  0  0  0  0  0  0  0  0  0  0  0
    4.9317   -1.9714    0.6402 C   0  0  0  0  0  0  0  0  0  0  0  0
    6.0624   -2.7579    0.4855 C   0  0  0  0  0  0  0  0  0  0  0  0
    6.1841   -3.9426    1.1860 C   0  0  0  0  0  0  0  0  0  0  0  0
    5.1700   -4.3297    2.0414 C   0  0  0  0  0  0  0  0  0  0  0  0
    2.3395   -0.0847   -0.9699 C   0  0  0  0  0  2  0  0  0  0  0  0
    2.3111    0.3935   -2.3190 C   0  0  0  0  0  0  0  0  0  0  0  0
    3.2114    0.9739   -2.5208 H   0  0  0  0  0  0  0  0  0  0  0  0
    1.4348    1.0229   -2.4735 H   0  0  0  0  0  0  0  0  0  0  0  0
    2.2678   -0.4557   -3.0010 H   0  0  0  0  0  0  0  0  0  0  0  0
    0.0253    1.1327    0.9364 H   0  0  0  0  0  0  0  0  0  0  0  0
   -0.6791    3.2039    2.1240 H   0  0  0  0  0  0  0  0  0  0  0  0
   -0.2393    3.3774    4.5753 H   0  0  0  0  0  0  0  0  0  0  0  0
    0.8347    1.4780    5.7304 H   0  0  0  0  0  0  0  0  0  0  0  0
    1.0731   -0.4603    6.5721 H   0  0  0  0  0  0  0  0  0  0  0  0
    1.9838   -2.5939    7.4375 H   0  0  0  0  0  0  0  0  0  0  0  0
    2.8405   -4.2672    5.8104 H   0  0  0  0  0  0  0  0  0  0  0  0
    2.0604   -4.2478    2.4949 H   0  0  0  0  0  0  0  0  0  0  0  0
    3.2433   -4.9389    3.6309 H   0  0  0  0  0  0  0  0  0  0  0  0
    4.8782   -1.0375    0.0967 H   0  0  0  0  0  0  0  0  0  0  0  0
    6.8504   -2.4350   -0.1798 H   0  0  0  0  0  0  0  0  0  0  0  0
    7.0640   -4.5590    1.0733 H   0  0  0  0  0  0  0  0  0  0  0  0
    5.2581   -5.2539    2.5964 H   0  0  0  0  0  0  0  0  0  0  0  0
  1  4  1  0  0  0  0
  1  2  1  0  0  0  0
  1  5  1  0  0  0  0
  3  1  1  0  0  0  0
  4 11  1  0  0  0  0
  5 16  1  0  0  0  0
  5 12  1  0  0  0  0
  6  1  1  0  0  0  0
  7  4  1  0  0  0  0
  7  8  1  0  0  0  0
  8  9  2  0  0  0  0
  9 31  1  0  0  0  0
  9 10  1  0  0  0  0
 10 32  1  0  0  0  0
 11 10  2  0  0  0  0
 12 11  1  6  0  0  0
 12 13  1  0  0  0  0
 13 14  2  0  0  0  0
 13 33  1  0  0  0  0
 14 34  1  0  0  0  0
 15 35  1  0  0  0  0
 15 14  1  0  0  0  0
 16 15  2  0  0  0  0
 17 37  1  0  0  0  0
 17 16  1  0  0  0  0
 18 17  1  0  0  0  0
 19  1  1  0  0  0  0
 19 18  2  0  0  0  0
 20 19  1  0  0  0  0
 21 20  2  0  0  0  0
 21 22  1  0  0  0  0
 22 23  2  0  0  0  0
 23 18  1  0  0  0  0
 23 41  1  0  0  0  0
 24  6  1  0  0  0  0
 25 24  1  0  0  0  0
 26 25  1  0  0  0  0
 27 25  1  0  0  0  0
 28 25  1  0  0  0  0
 29  7  1  0  0  0  0
 30  8  1  0  0  0  0
 36 17  1  0  0  0  0
 38 20  1  0  0  0  0
 39 21  1  0  0  0  0
 40 22  1  0  0  0  0
M  END
$$$$
