CSD_code = XAQDAU | q = 0 | S = 0 | Stoichiometry = C9H14Cl3OPW | MND = 10
 OpenBabel04212202113D

 29 25  0  0  1  0  0  0  0  0999 V2000
    3.4541    3.5239    9.3737 W   0  0  0  0  0  0  0  0  0  0  0  0
    1.2287    3.1070    9.1291 C   0  0  0  0  0  0  0  0  0  0  0  0
    1.7489    3.5574    7.8692 C   0  0  2  0  0  0  0  0  0  0  0  0
    2.6135    2.5435    7.3720 C   0  0  0  0  0  0  0  0  0  0  0  0
    2.6309    1.4824    8.2890 C   0  0  0  0  0  0  0  0  0  0  0  0
    1.8020    1.8175    9.3847 C   0  0  0  0  0  0  0  0  0  0  0  0
    4.8323    4.5826    7.7372 Cl  0  0  0  0  0 15  0  0  0  0  0  0
    5.2778    1.9368    9.4279 Cl  0  0  0  0  0 15  0  0  0  0  0  0
    5.0686    4.6277   10.9391 Cl  0  0  0  0  0 15  0  0  0  0  0  0
    3.0580    3.1387   11.2828 C   0  0  0  0  0  2  0  0  0  0  0  0
    2.8258    2.9474   12.3972 O   0  0  0  0  0  1  0  0  0  0  0  0
    2.8080    5.9279    9.7607 P   0  0  0  0  0  0  0  0  0  0  0  0
    2.3398    6.3266   11.4871 C   0  0  0  0  0  0  0  0  0  0  0  0
    4.0230    7.2351    9.3760 C   0  0  0  0  0  0  0  0  0  0  0  0
    1.3536    6.6265    8.8718 C   0  0  0  0  0  0  0  0  0  0  0  0
    0.3620    3.5088    9.6395 H   0  0  0  0  0  0  0  0  0  0  0  0
    1.3603    4.3723    7.2746 H   0  0  0  0  0  0  0  0  0  0  0  0
    3.0947    2.5476    6.4034 H   0  0  0  0  0  0  0  0  0  0  0  0
    3.1491    0.5425    8.1598 H   0  0  0  0  0  0  0  0  0  0  0  0
    1.5029    1.1383   10.1721 H   0  0  0  0  0  0  0  0  0  0  0  0
    1.4680    5.7396   11.7722 H   0  0  0  0  0  0  0  0  0  0  0  0
    2.1041    7.3869   11.5682 H   0  0  0  0  0  0  0  0  0  0  0  0
    3.1654    6.0834   12.1527 H   0  0  0  0  0  0  0  0  0  0  0  0
    4.2530    7.1963    8.3122 H   0  0  0  0  0  0  0  0  0  0  0  0
    4.9391    7.0655    9.9387 H   0  0  0  0  0  0  0  0  0  0  0  0
    3.5960    8.2047    9.6336 H   0  0  0  0  0  0  0  0  0  0  0  0
    0.4635    6.0249    9.0412 H   0  0  0  0  0  0  0  0  0  0  0  0
    1.5682    6.6682    7.8056 H   0  0  0  0  0  0  0  0  0  0  0  0
    1.1699    7.6387    9.2298 H   0  0  0  0  0  0  0  0  0  0  0  0
  1 10  1  0  0  0  0
  2  6  2  0  0  0  0
  2 16  1  0  0  0  0
  3 17  1  6  0  0  0
  3  2  1  0  0  0  0
  3  1  1  0  0  0  0
  4  3  1  0  0  0  0
  4  5  2  0  0  0  0
  5  6  1  0  0  0  0
  6 20  1  0  0  0  0
 10 11  1  0  0  0  0
 12 13  1  0  0  0  0
 13 22  1  0  0  0  0
 13 21  1  0  0  0  0
 13 23  1  0  0  0  0
 14 26  1  0  0  0  0
 14 12  1  0  0  0  0
 14 25  1  0  0  0  0
 15 27  1  0  0  0  0
 15 29  1  0  0  0  0
 15 12  1  0  0  0  0
 18  4  1  0  0  0  0
 19  5  1  0  0  0  0
 24 14  1  0  0  0  0
 28 15  1  0  0  0  0
M  END
$$$$
