CSD_code = XAQDEY | q = 0 | S = 0 | Stoichiometry = C9H14Cl3OPW | MND = 10
 OpenBabel04212202113D

 29 25  0  0  1  0  0  0  0  0999 V2000
    6.7048    7.8013   11.7611 W   0  0  0  0  0  0  0  0  0  0  0  0
    8.9477    8.0470   11.4508 C   0  0  0  0  0  0  0  0  0  0  0  0
    8.4105    7.3179   10.3371 C   0  0  2  0  0  0  0  0  0  0  0  0
    7.5943    8.2114    9.5898 C   0  0  0  0  0  0  0  0  0  0  0  0
    7.6235    9.4684   10.2112 C   0  0  0  0  0  0  0  0  0  0  0  0
    8.4337    9.3832   11.3671 C   0  0  0  0  0  0  0  0  0  0  0  0
    5.0378    7.1982   13.5297 Cl  0  0  0  0  0 15  0  0  0  0  0  0
    5.2852    6.4263   10.4221 Cl  0  0  0  0  0 15  0  0  0  0  0  0
    4.9561    9.4288   11.3879 Cl  0  0  0  0  0 15  0  0  0  0  0  0
    7.2411    5.5479   12.7491 P   0  0  0  0  0  0  0  0  0  0  0  0
    8.6641    4.5851   12.0845 C   0  0  0  0  0  0  0  0  0  0  0  0
    5.9693    4.2396   12.6908 C   0  0  0  0  0  0  0  0  0  0  0  0
    7.6885    5.5789   14.5260 C   0  0  0  0  0  0  0  0  0  0  0  0
    7.1136    8.6379   13.5169 C   0  0  0  0  0  2  0  0  0  0  0  0
    7.3519    9.0915   14.5511 O   0  0  0  0  0  1  0  0  0  0  0  0
    9.7936    7.7487   12.0581 H   0  0  0  0  0  0  0  0  0  0  0  0
    8.7623    6.3633    9.9715 H   0  0  0  0  0  0  0  0  0  0  0  0
    7.1158    7.9853    8.6465 H   0  0  0  0  0  0  0  0  0  0  0  0
    7.1495   10.3676    9.8432 H   0  0  0  0  0  0  0  0  0  0  0  0
    8.7621   10.2245   11.9631 H   0  0  0  0  0  0  0  0  0  0  0  0
    9.5798    5.1716   12.1062 H   0  0  0  0  0  0  0  0  0  0  0  0
    8.4490    4.2826   11.0614 H   0  0  0  0  0  0  0  0  0  0  0  0
    8.8025    3.6906   12.6904 H   0  0  0  0  0  0  0  0  0  0  0  0
    5.7366    4.0245   11.6491 H   0  0  0  0  0  0  0  0  0  0  0  0
    5.0640    4.5814   13.1881 H   0  0  0  0  0  0  0  0  0  0  0  0
    6.3551    3.3463   13.1819 H   0  0  0  0  0  0  0  0  0  0  0  0
    8.5907    6.1729   14.6630 H   0  0  0  0  0  0  0  0  0  0  0  0
    7.8672    4.5637   14.8776 H   0  0  0  0  0  0  0  0  0  0  0  0
    6.8780    6.0263   15.0972 H   0  0  0  0  0  0  0  0  0  0  0  0
  1 14  1  0  0  0  0
  2 16  1  0  0  0  0
  3 17  1  6  0  0  0
  3  2  1  0  0  0  0
  3  1  1  0  0  0  0
  4  5  2  0  0  0  0
  4  3  1  0  0  0  0
  5  6  1  0  0  0  0
  6  2  2  0  0  0  0
  6 20  1  0  0  0  0
 10 13  1  0  0  0  0
 11 21  1  0  0  0  0
 11 23  1  0  0  0  0
 11 10  1  0  0  0  0
 12 10  1  0  0  0  0
 12 26  1  0  0  0  0
 12 25  1  0  0  0  0
 13 27  1  0  0  0  0
 13 28  1  0  0  0  0
 13 29  1  0  0  0  0
 14 15  1  0  0  0  0
 18  4  1  0  0  0  0
 19  5  1  0  0  0  0
 22 11  1  0  0  0  0
 24 12  1  0  0  0  0
M  END
$$$$
