CSD_code = XAQSAJ | q = 0 | S = 0 | Stoichiometry = C16H40ClN6Ta | MND = 6
 OpenBabel04212202113D

 64 64  0  0  0  0  0  0  0  0999 V2000
    7.9609    9.9069    1.3516 Ta  0  0  0  0  0  0  0  0  0  0  0  0
    7.5529   11.0053    3.4075 Cl  0  0  0  0  0  0  0  0  0  0  0  0
    5.7384    9.3524    1.5321 N   0  0  0  0  0  0  0  0  0  0  0  0
    7.2879    8.1460    2.5493 N   0  0  0  0  0  0  0  0  0  0  0  0
    5.0060    7.6033    2.9840 N   0  0  0  0  0  0  0  0  0  0  0  0
    8.0502    8.8714   -0.3329 N   0  0  0  0  0  0  0  0  0  0  0  0
    7.9352   11.7283    0.5038 N   0  0  0  0  0  0  0  0  0  0  0  0
    9.9593    9.8732    1.5899 N   0  0  0  0  0  0  0  0  0  0  0  0
    4.5891    9.6214   -0.5836 C   0  0  0  0  0  0  0  0  0  0  0  0
    3.6924   10.7632    1.4637 C   0  0  0  0  0  0  0  0  0  0  0  0
    4.4258    9.5156    0.9356 C   0  0  0  0  0  0  0  0  0  0  0  0
    9.0935    7.8519    4.1471 C   0  0  0  0  0  0  0  0  0  0  0  0
    7.9620    5.8445    3.1534 C   0  0  0  0  0  0  0  0  0  0  0  0
    7.7696    7.2959    3.6241 C   0  0  0  0  0  0  0  0  0  0  0  0
    4.6372    8.9151    5.0558 C   0  0  0  0  0  0  0  0  0  0  0  0
    3.0366    7.1148    4.3006 C   0  0  0  0  0  0  0  0  0  0  0  0
    4.0006    8.2100    3.8545 C   0  0  0  0  0  0  0  0  0  0  0  0
    5.9922    8.3797    2.3812 C   0  0  0  0  0  3  0  0  0  0  0  0
    7.9138    7.4397   -0.4209 C   0  0  0  0  0  0  0  0  0  0  0  0
    8.0909    9.4171   -1.6669 C   0  0  0  0  0  0  0  0  0  0  0  0
    6.8554   12.6643    0.7033 C   0  0  0  0  0  0  0  0  0  0  0  0
    9.0707   12.4193   -0.0651 C   0  0  0  0  0  0  0  0  0  0  0  0
   10.8910    9.0679    0.8348 C   0  0  0  0  0  0  0  0  0  0  0  0
   10.6970   10.6239    2.5855 C   0  0  0  0  0  0  0  0  0  0  0  0
    5.4134    6.7992    3.4462 H   0  0  0  0  0  0  0  0  0  0  0  0
    4.9794    8.6889   -0.9835 H   0  0  0  0  0  0  0  0  0  0  0  0
    5.2884   10.4207   -0.8201 H   0  0  0  0  0  0  0  0  0  0  0  0
    3.6285    9.8294   -1.0504 H   0  0  0  0  0  0  0  0  0  0  0  0
    3.9599   10.9596    2.4996 H   0  0  0  0  0  0  0  0  0  0  0  0
    2.6149   10.6263    1.3968 H   0  0  0  0  0  0  0  0  0  0  0  0
    3.9589   11.6378    0.8757 H   0  0  0  0  0  0  0  0  0  0  0  0
    3.8241    8.6208    1.1517 H   0  0  0  0  0  0  0  0  0  0  0  0
    8.9559    8.8815    4.4695 H   0  0  0  0  0  0  0  0  0  0  0  0
    9.8383    7.8251    3.3556 H   0  0  0  0  0  0  0  0  0  0  0  0
    9.4433    7.2576    4.9888 H   0  0  0  0  0  0  0  0  0  0  0  0
    7.0560    5.4557    2.6912 H   0  0  0  0  0  0  0  0  0  0  0  0
    8.2250    5.2094    3.9970 H   0  0  0  0  0  0  0  0  0  0  0  0
    8.7649    5.7969    2.4208 H   0  0  0  0  0  0  0  0  0  0  0  0
    7.0578    7.3013    4.4667 H   0  0  0  0  0  0  0  0  0  0  0  0
    5.3852    9.6322    4.7196 H   0  0  0  0  0  0  0  0  0  0  0  0
    5.1200    8.1944    5.7147 H   0  0  0  0  0  0  0  0  0  0  0  0
    3.8785    9.4459    5.6260 H   0  0  0  0  0  0  0  0  0  0  0  0
    2.6103    6.6115    3.4362 H   0  0  0  0  0  0  0  0  0  0  0  0
    2.2303    7.5452    4.8884 H   0  0  0  0  0  0  0  0  0  0  0  0
    3.5527    6.3763    4.9119 H   0  0  0  0  0  0  0  0  0  0  0  0
    3.4484    8.9487    3.2723 H   0  0  0  0  0  0  0  0  0  0  0  0
    7.9947    7.0079    0.5717 H   0  0  0  0  0  0  0  0  0  0  0  0
    8.6833    6.9982   -1.0699 H   0  0  0  0  0  0  0  0  0  0  0  0
    6.9354    7.1633   -0.8405 H   0  0  0  0  0  0  0  0  0  0  0  0
    8.1036   10.5003   -1.6126 H   0  0  0  0  0  0  0  0  0  0  0  0
    7.2166    9.1013   -2.2516 H   0  0  0  0  0  0  0  0  0  0  0  0
    8.9865    9.0788   -2.2078 H   0  0  0  0  0  0  0  0  0  0  0  0
    6.0240   12.1557    1.1831 H   0  0  0  0  0  0  0  0  0  0  0  0
    6.5150   13.1010   -0.2462 H   0  0  0  0  0  0  0  0  0  0  0  0
    7.1784   13.4879    1.3569 H   0  0  0  0  0  0  0  0  0  0  0  0
    9.8589   11.7055   -0.2947 H   0  0  0  0  0  0  0  0  0  0  0  0
    9.4608   13.1647    0.6432 H   0  0  0  0  0  0  0  0  0  0  0  0
    8.7944   12.9517   -0.9858 H   0  0  0  0  0  0  0  0  0  0  0  0
   10.3555    8.5173    0.0673 H   0  0  0  0  0  0  0  0  0  0  0  0
   11.4218    8.3534    1.4810 H   0  0  0  0  0  0  0  0  0  0  0  0
   11.6535    9.6962    0.3536 H   0  0  0  0  0  0  0  0  0  0  0  0
   10.0117   11.2126    3.1896 H   0  0  0  0  0  0  0  0  0  0  0  0
   11.4110   11.3036    2.1014 H   0  0  0  0  0  0  0  0  0  0  0  0
   11.2693    9.9588    3.2460 H   0  0  0  0  0  0  0  0  0  0  0  0
  1  3  1  0  0  0  0
  1  8  1  0  0  0  0
  1  4  1  0  0  0  0
  1  2  1  0  0  0  0
  3 18  1  0  0  0  0
  4 14  1  0  0  0  0
  5 25  1  0  0  0  0
  5 17  1  0  0  0  0
  6  1  1  0  0  0  0
  7 21  1  0  0  0  0
  7  1  1  0  0  0  0
  8 24  1  0  0  0  0
  9 11  1  0  0  0  0
 10 29  1  0  0  0  0
 11 32  1  0  0  0  0
 11 10  1  0  0  0  0
 11  3  1  0  0  0  0
 12 33  1  0  0  0  0
 12 35  1  0  0  0  0
 13 14  1  0  0  0  0
 13 37  1  0  0  0  0
 14 12  1  0  0  0  0
 14 39  1  0  0  0  0
 15 42  1  0  0  0  0
 15 41  1  0  0  0  0
 16 44  1  0  0  0  0
 16 45  1  0  0  0  0
 17 16  1  0  0  0  0
 17 15  1  0  0  0  0
 18  4  1  0  0  0  0
 18  5  1  0  0  0  0
 19  6  1  0  0  0  0
 19 47  1  0  0  0  0
 20 50  1  0  0  0  0
 20  6  1  0  0  0  0
 21 53  1  0  0  0  0
 21 55  1  0  0  0  0
 22  7  1  0  0  0  0
 22 57  1  0  0  0  0
 23 60  1  0  0  0  0
 23  8  1  0  0  0  0
 24 62  1  0  0  0  0
 24 64  1  0  0  0  0
 26  9  1  0  0  0  0
 27  9  1  0  0  0  0
 28  9  1  0  0  0  0
 30 10  1  0  0  0  0
 31 10  1  0  0  0  0
 34 12  1  0  0  0  0
 36 13  1  0  0  0  0
 38 13  1  0  0  0  0
 40 15  1  0  0  0  0
 43 16  1  0  0  0  0
 46 17  1  0  0  0  0
 48 19  1  0  0  0  0
 49 19  1  0  0  0  0
 51 20  1  0  0  0  0
 52 20  1  0  0  0  0
 54 21  1  0  0  0  0
 56 22  1  0  0  0  0
 58 22  1  0  0  0  0
 59 23  1  0  0  0  0
 61 23  1  0  0  0  0
 63 24  1  0  0  0  0
M  END
$$$$
