CSD_code = XAQVOB | q = 0 | S = 0 | Stoichiometry = C15H10ClN3OPdS | MND = 4
 OpenBabel04212202113D

 32 36  0  0  0  0  0  0  0  0999 V2000
    3.5392    0.8045   28.5489 Pd  0  0  2  0  0  0  0  0  0  0  0  0
    5.3440   -0.3453   28.1382 Cl  0  0  0  0  0  0  0  0  0  0  0  0
    2.9201   -0.3348   30.4404 S   0  0  0  0  0  0  0  0  0  0  0  0
    3.6929    2.0911   26.9105 O   0  0  0  0  0  0  0  0  0  0  0  0
    1.9705    1.8717   28.8414 N   0  0  0  0  0  0  0  0  0  0  0  0
    1.1705    1.6422   29.8709 N   0  0  0  0  0  0  0  0  0  0  0  0
    0.7308    0.3791   31.7210 N   0  0  0  0  0  0  0  0  0  0  0  0
   -0.0967    0.9233   31.8899 H   0  0  0  0  0  0  0  0  0  0  0  0
    0.9804   -0.3747   32.3361 H   0  0  0  0  0  0  0  0  0  0  0  0
    2.7325    2.9142   26.9254 C   0  0  0  0  0  0  0  0  0  0  0  0
    2.6290    3.9194   25.8900 C   0  0  0  0  0  0  0  0  0  0  0  0
    3.6031    3.9447   24.8840 C   0  0  0  0  0  0  0  0  0  0  0  0
    4.3909    3.2080   24.9247 H   0  0  0  0  0  0  0  0  0  0  0  0
    3.5471    4.8823   23.8809 C   0  0  0  0  0  0  0  0  0  0  0  0
    4.2971    4.9018   23.1054 H   0  0  0  0  0  0  0  0  0  0  0  0
    2.5094    5.8085   23.8776 C   0  0  0  0  0  0  0  0  0  0  0  0
    2.4553    6.5507   23.0947 H   0  0  0  0  0  0  0  0  0  0  0  0
    1.5454    5.7916   24.8634 C   0  0  0  0  0  0  0  0  0  0  0  0
    0.7610    6.5293   24.8167 H   0  0  0  0  0  0  0  0  0  0  0  0
    1.5719    4.8500   25.8990 C   0  0  0  0  0  0  0  0  0  0  0  0
    0.5723    4.7995   26.9549 C   0  0  0  0  0  0  0  0  0  0  0  0
   -0.4841    5.7150   26.9928 C   0  0  0  0  0  0  0  0  0  0  0  0
   -0.5638    6.4752   26.2333 H   0  0  0  0  0  0  0  0  0  0  0  0
   -1.4434    5.6831   27.9811 C   0  0  0  0  0  0  0  0  0  0  0  0
   -2.2447    6.4067   27.9787 H   0  0  0  0  0  0  0  0  0  0  0  0
   -1.3721    4.7182   28.9746 C   0  0  0  0  0  0  0  0  0  0  0  0
   -2.1190    4.6826   29.7534 H   0  0  0  0  0  0  0  0  0  0  0  0
   -0.3435    3.8027   28.9680 C   0  0  0  0  0  0  0  0  0  0  0  0
   -0.2886    3.0554   29.7403 H   0  0  0  0  0  0  0  0  0  0  0  0
    0.6448    3.8169   27.9747 C   0  0  0  0  0  0  0  0  0  0  0  0
    1.7349    2.8620   27.9655 C   0  0  0  0  0  0  0  0  0  0  0  0
    1.5146    0.6475   30.6665 C   0  0  0  0  0  0  0  0  0  0  0  0
  1  2  1  1  0  0  0
  1  5  1  0  0  0  0
  1  3  1  0  0  0  0
  3 32  1  0  0  0  0
  4 10  1  0  0  0  0
  4  1  1  0  0  0  0
  5  6  1  0  0  0  0
  6 32  2  0  0  0  0
  7  8  1  0  0  0  0
  7  9  1  0  0  0  0
 10 31  1  0  0  0  0
 11 20  1  0  0  0  0
 11 10  2  0  0  0  0
 12 13  1  0  0  0  0
 12 11  1  0  0  0  0
 14 12  2  0  0  0  0
 15 14  1  0  0  0  0
 16 14  1  0  0  0  0
 16 18  2  0  0  0  0
 17 16  1  0  0  0  0
 18 20  1  0  0  0  0
 19 18  1  0  0  0  0
 20 21  2  0  0  0  0
 21 22  1  0  0  0  0
 21 30  1  0  0  0  0
 22 24  2  0  0  0  0
 23 22  1  0  0  0  0
 24 26  1  0  0  0  0
 25 24  1  0  0  0  0
 26 27  1  0  0  0  0
 28 26  2  0  0  0  0
 28 29  1  0  0  0  0
 30 28  1  0  0  0  0
 31 30  2  0  0  0  0
 31  5  1  0  0  0  0
 32  7  1  0  0  0  0
M  END
$$$$
