CSD_code = XARDEA | q = 0 | S = 0 | Stoichiometry = C27H20Cl3NO2PRe | MND = 6
 OpenBabel04212202113D

 55 60  0  0  1  0  0  0  0  0999 V2000
    3.3514   12.2082   11.8605 Re  0  0  0  0  0  0  0  0  0  0  0  0
    3.8250   13.4735   13.7118 Cl  0  0  0  0  0  0  0  0  0  0  0  0
    5.1309   13.1675   10.8247 Cl  0  0  0  0  0  0  0  0  0  0  0  0
    2.3366    9.6763   14.0730 Cl  0  0  0  0  0  0  0  0  0  0  0  0
    2.4366   11.5327    9.6785 P   0  0  0  0  0  4  0  0  0  0  0  0
    4.0175   10.7214   12.1604 O   0  0  0  0  0  1  0  0  0  0  0  0
    2.0868   13.7131   11.2929 O   0  0  0  0  0  0  0  0  0  0  0  0
    1.4130   11.8080   12.9338 N   0  0  0  0  0  0  0  0  0  0  0  0
    1.1261   10.8399   13.7736 C   0  0  0  0  0  0  0  0  0  0  0  0
   -0.1270   10.7381   14.4045 C   0  0  0  0  0  0  0  0  0  0  0  0
   -0.2950    9.9210   15.0853 H   0  0  0  0  0  0  0  0  0  0  0  0
   -1.0882   11.6730   14.1378 C   0  0  0  0  0  0  0  0  0  0  0  0
   -2.0591   11.6156   14.6065 H   0  0  0  0  0  0  0  0  0  0  0  0
   -0.8103   12.7346   13.2484 C   0  0  0  0  0  0  0  0  0  0  0  0
    0.4851   12.7543   12.6820 C   0  0  2  0  0  3  0  0  0  0  0  0
    0.8859   13.7873   11.7781 C   0  0  0  0  0  0  0  0  0  0  0  0
   -0.0388   14.7784   11.4693 C   0  0  0  0  0  0  0  0  0  0  0  0
    0.2490   15.5691   10.7942 H   0  0  0  0  0  0  0  0  0  0  0  0
   -1.3119   14.7492   12.0321 C   0  0  0  0  0  0  0  0  0  0  0  0
   -2.0065   15.5354   11.7748 H   0  0  0  0  0  0  0  0  0  0  0  0
   -1.7065   13.7571   12.8995 C   0  0  0  0  0  0  0  0  0  0  0  0
   -2.6969   13.7564   13.3265 H   0  0  0  0  0  0  0  0  0  0  0  0
    2.4443   12.6928    8.2818 C   0  0  0  0  0  0  0  0  0  0  0  0
    2.9681   13.9751    8.3813 C   0  0  0  0  0  0  0  0  0  0  0  0
    3.3993   14.3110    9.3115 H   0  0  0  0  0  0  0  0  0  0  0  0
    2.9432   14.8124    7.2783 C   0  0  0  0  0  0  0  0  0  0  0  0
    3.3535   15.8080    7.3557 H   0  0  0  0  0  0  0  0  0  0  0  0
    2.4008   14.3765    6.0817 C   0  0  0  0  0  0  0  0  0  0  0  0
    2.3844   15.0320    5.2236 H   0  0  0  0  0  0  0  0  0  0  0  0
    1.8801   13.0949    5.9813 C   0  0  0  0  0  0  0  0  0  0  0  0
    1.4598   12.7522    5.0472 H   0  0  0  0  0  0  0  0  0  0  0  0
    1.9023   12.2517    7.0753 C   0  0  0  0  0  0  0  0  0  0  0  0
    1.5022   11.2502    6.9984 H   0  0  0  0  0  0  0  0  0  0  0  0
    3.1948   10.0359    8.9834 C   0  0  0  0  0  0  0  0  0  0  0  0
    2.4632    9.0368    8.3504 C   0  0  0  0  0  0  0  0  0  0  0  0
    1.3854    9.1058    8.2873 H   0  0  0  0  0  0  0  0  0  0  0  0
    3.1194    7.9434    7.8136 C   0  0  0  0  0  0  0  0  0  0  0  0
    2.5513    7.1653    7.3248 H   0  0  0  0  0  0  0  0  0  0  0  0
    4.4981    7.8434    7.9054 C   0  0  0  0  0  0  0  0  0  0  0  0
    5.0035    6.9859    7.4865 H   0  0  0  0  0  0  0  0  0  0  0  0
    5.2273    8.8372    8.5393 C   0  0  0  0  0  0  0  0  0  0  0  0
    6.3007    8.7542    8.6185 H   0  0  0  0  0  0  0  0  0  0  0  0
    4.5799    9.9322    9.0803 C   0  0  0  0  0  0  0  0  0  0  0  0
    5.1334   10.7082    9.5936 H   0  0  0  0  0  0  0  0  0  0  0  0
    0.6936   11.1159    9.9411 C   0  0  0  0  0  0  0  0  0  0  0  0
    0.4161    9.9896   10.7161 C   0  0  0  0  0  0  0  0  0  0  0  0
    1.2349    9.3578   11.0364 H   0  0  0  0  0  0  0  0  0  0  0  0
   -0.8854    9.7008   11.0766 C   0  0  0  0  0  0  0  0  0  0  0  0
   -1.0974    8.8282   11.6762 H   0  0  0  0  0  0  0  0  0  0  0  0
   -1.9158   10.5400   10.6790 C   0  0  0  0  0  0  0  0  0  0  0  0
   -2.9319   10.3203   10.9704 H   0  0  0  0  0  0  0  0  0  0  0  0
   -1.6437   11.6614    9.9136 C   0  0  0  0  0  0  0  0  0  0  0  0
   -2.4461   12.3165    9.6095 H   0  0  0  0  0  0  0  0  0  0  0  0
   -0.3420   11.9542    9.5445 C   0  0  0  0  0  0  0  0  0  0  0  0
   -0.1268   12.8338    8.9546 H   0  0  0  0  0  0  0  0  0  0  0  0
  1  6  1  0  0  0  0
  1  8  1  0  0  0  0
  1  2  1  0  0  0  0
  3  1  1  0  0  0  0
  5 45  1  0  0  0  0
  5  1  1  0  0  0  0
  7 16  1  0  0  0  0
  7  1  1  0  0  0  0
  8  9  1  0  0  0  0
  9  4  1  0  0  0  0
  9 10  2  0  0  0  0
 10 11  1  0  0  0  0
 12 10  1  0  0  0  0
 12 13  1  0  0  0  0
 14 12  2  0  0  0  0
 15 16  1  6  0  0  0
 15  8  1  0  0  0  0
 15 14  1  0  0  0  0
 17 16  2  0  0  0  0
 17 19  1  0  0  0  0
 18 17  1  0  0  0  0
 19 21  2  0  0  0  0
 20 19  1  0  0  0  0
 21 14  1  0  0  0  0
 21 22  1  0  0  0  0
 23 24  1  0  0  0  0
 23  5  1  0  0  0  0
 24 25  1  0  0  0  0
 26 27  1  0  0  0  0
 26 24  2  0  0  0  0
 28 26  1  0  0  0  0
 29 28  1  0  0  0  0
 30 28  2  0  0  0  0
 30 32  1  0  0  0  0
 31 30  1  0  0  0  0
 32 23  2  0  0  0  0
 33 32  1  0  0  0  0
 34 43  1  0  0  0  0
 34  5  1  0  0  0  0
 35 34  2  0  0  0  0
 36 35  1  0  0  0  0
 37 39  2  0  0  0  0
 37 35  1  0  0  0  0
 38 37  1  0  0  0  0
 39 41  1  0  0  0  0
 40 39  1  0  0  0  0
 41 42  1  0  0  0  0
 41 43  2  0  0  0  0
 43 44  1  0  0  0  0
 45 46  1  0  0  0  0
 46 47  1  0  0  0  0
 46 48  2  0  0  0  0
 48 49  1  0  0  0  0
 50 51  1  0  0  0  0
 50 48  1  0  0  0  0
 52 50  2  0  0  0  0
 53 52  1  0  0  0  0
 54 52  1  0  0  0  0
 54 45  2  0  0  0  0
 55 54  1  0  0  0  0
M  END
$$$$
