CSD_code = XARFEC | q = 0 | S = 0 | Stoichiometry = C13H14Cl2N2OPt | MND = 6
 OpenBabel04212202113D

 33 35  0  0  0  0  0  0  0  0999 V2000
    1.2833    3.3732    2.7014 Pt  0  0  0  0  0  0  0  0  0  0  0  0
    0.3746    3.3733    4.8357 Cl  0  0  0  0  0  0  0  0  0  0  0  0
    1.9880    3.3732    0.4445 Cl  0  0  0  0  0  0  0  0  0  0  0  0
    2.6662    1.9460    3.2461 C   0  0  0  0  0  0  0  0  0  0  0  0
    2.8169    1.9271    4.3248 H   0  0  0  0  0  0  0  0  0  0  0  0
    3.6230    2.1192    2.7556 H   0  0  0  0  0  0  0  0  0  0  0  0
    2.2811    0.9767    2.9202 H   0  0  0  0  0  0  0  0  0  0  0  0
   -0.2470    1.9456    1.9814 N   0  0  0  0  0  0  0  0  0  0  0  0
   -0.5694    0.8367    2.6335 C   0  0  0  0  0  3  0  0  0  0  0  0
   -0.2575    0.7892    3.6692 H   0  0  0  0  0  0  0  0  0  0  0  0
   -1.2695   -0.2010    2.0418 C   0  0  0  0  0  0  0  0  0  0  0  0
   -1.5109   -1.0846    2.6105 H   0  0  0  0  0  0  0  0  0  0  0  0
   -1.6324   -0.0795    0.7088 C   0  0  0  0  0  0  0  0  0  0  0  0
   -2.1576   -0.8758    0.2032 H   0  0  0  0  0  0  0  0  0  0  0  0
   -1.3144    1.0877    0.0390 C   0  0  0  0  0  0  0  0  0  0  0  0
   -1.5757    1.2480   -0.9954 H   0  0  0  0  0  0  0  0  0  0  0  0
   -0.6229    2.0922    0.7124 C   0  0  0  0  0  0  0  0  0  0  0  0
   -0.3894    3.3732   -0.0503 C   0  0  0  0  0  0  0  0  0  0  0  0
   -0.4583    3.3732   -1.2672 O   0  0  0  0  0  0  0  0  0  0  0  0
    2.6664    4.8003    3.2458 C   0  0  0  0  0  0  0  0  0  0  0  0
    2.8170    4.8193    4.3244 H   0  0  0  0  0  0  0  0  0  0  0  0
    3.6232    4.6270    2.7553 H   0  0  0  0  0  0  0  0  0  0  0  0
    2.2814    5.7696    2.9198 H   0  0  0  0  0  0  0  0  0  0  0  0
   -0.2469    4.8008    1.9814 N   0  0  0  0  0  0  0  0  0  0  0  0
   -0.5693    5.9097    2.6335 C   0  0  0  0  0  3  0  0  0  0  0  0
   -0.2573    5.9573    3.6692 H   0  0  0  0  0  0  0  0  0  0  0  0
   -1.2696    6.9473    2.0419 C   0  0  0  0  0  0  0  0  0  0  0  0
   -1.5110    7.8309    2.6107 H   0  0  0  0  0  0  0  0  0  0  0  0
   -1.6326    6.8258    0.7090 C   0  0  0  0  0  0  0  0  0  0  0  0
   -2.1579    7.6221    0.2034 H   0  0  0  0  0  0  0  0  0  0  0  0
   -1.3146    5.6587    0.0391 C   0  0  0  0  0  0  0  0  0  0  0  0
   -1.5759    5.4984   -0.9952 H   0  0  0  0  0  0  0  0  0  0  0  0
   -0.6229    4.6542    0.7124 C   0  0  0  0  0  0  0  0  0  0  0  0
  1 20  1  0  0  0  0
  1  4  1  0  0  0  0
  1  2  1  0  0  0  0
  3  1  1  0  0  0  0
  4  5  1  0  0  0  0
  6  4  1  0  0  0  0
  7  4  1  0  0  0  0
  8  9  1  0  0  0  0
  8  1  1  0  0  0  0
  9 10  1  0  0  0  0
 11 12  1  0  0  0  0
 11  9  1  0  0  0  0
 13 11  2  0  0  0  0
 14 13  1  0  0  0  0
 15 13  1  0  0  0  0
 15 17  2  0  0  0  0
 16 15  1  0  0  0  0
 17  8  1  0  0  0  0
 18 17  1  0  0  0  0
 18 33  1  0  0  0  0
 19 18  2  0  0  0  0
 20 21  1  0  0  0  0
 22 20  1  0  0  0  0
 23 20  1  0  0  0  0
 24 25  1  0  0  0  0
 24  1  1  0  0  0  0
 25 26  1  0  0  0  0
 27 28  1  0  0  0  0
 27 25  1  0  0  0  0
 29 27  2  0  0  0  0
 30 29  1  0  0  0  0
 31 29  1  0  0  0  0
 31 33  2  0  0  0  0
 32 31  1  0  0  0  0
 33 24  1  0  0  0  0
M  END
$$$$
