CSD_code = XARFAY | q = 0 | S = 0 | Stoichiometry = C14H17IN2OPt | MND = 6
 OpenBabel04212202113D

 36 38  0  0  1  0  0  0  0  0999 V2000
    1.2387    5.8693    3.4152 Pt  0  0  0  0  0  0  0  0  0  0  0  0
    3.5235    5.7243    1.9173 I   0  0  0  0  0  0  0  0  0  0  0  0
    1.6845    8.0522    3.6695 N   0  0  0  0  0  0  0  0  0  0  0  0
    2.8400    8.4284    4.2017 C   0  0  0  0  0  3  0  0  0  0  0  0
    3.5957    7.6615    4.3077 H   0  0  0  0  0  0  0  0  0  0  0  0
    3.1065    9.7309    4.5924 C   0  0  0  0  0  0  0  0  0  0  0  0
    4.0671    9.9788    5.0143 H   0  0  0  0  0  0  0  0  0  0  0  0
    2.1186   10.6892    4.4334 C   0  0  0  0  0  0  0  0  0  0  0  0
    2.2790   11.7118    4.7392 H   0  0  0  0  0  0  0  0  0  0  0  0
    0.9194   10.3046    3.8619 C   0  0  0  0  0  0  0  0  0  0  0  0
    0.1153   11.0053    3.6989 H   0  0  0  0  0  0  0  0  0  0  0  0
    0.7405    8.9754    3.4788 C   0  0  0  0  0  0  0  0  0  0  0  0
   -0.5438    8.6698    2.7790 C   0  0  0  0  0  0  0  0  0  0  0  0
   -1.5502    9.2933    3.0416 O   0  0  0  0  0  0  0  0  0  0  0  0
   -0.5133    7.7524    1.5982 C   0  0  1  0  0  3  0  0  0  0  0  0
   -1.2680    8.1544    0.4964 C   0  0  0  0  0  0  0  0  0  0  0  0
   -1.8473    9.0619    0.5649 H   0  0  0  0  0  0  0  0  0  0  0  0
   -1.2518    7.3837   -0.6516 C   0  0  0  0  0  0  0  0  0  0  0  0
   -1.8257    7.6760   -1.5177 H   0  0  0  0  0  0  0  0  0  0  0  0
   -0.4814    6.2318   -0.6586 C   0  0  0  0  0  0  0  0  0  0  0  0
   -0.4272    5.5979   -1.5288 H   0  0  0  0  0  0  0  0  0  0  0  0
    0.2258    5.8965    0.4841 C   0  0  0  0  0  0  0  0  0  0  0  0
    0.8364    5.0040    0.5071 H   0  0  0  0  0  0  0  0  0  0  0  0
    0.2118    6.6333    1.5880 N   0  0  0  0  0  0  0  0  0  0  0  0
    0.6873    3.9076    3.1034 C   0  0  0  0  0  0  0  0  0  0  0  0
    1.4430    3.4091    2.4927 H   0  0  0  0  0  0  0  0  0  0  0  0
   -0.2671    3.9025    2.5668 H   0  0  0  0  0  0  0  0  0  0  0  0
    0.5635    3.3281    4.0176 H   0  0  0  0  0  0  0  0  0  0  0  0
    2.1695    5.2380    5.1430 C   0  0  0  0  0  0  0  0  0  0  0  0
    1.5216    4.6714    5.8117 H   0  0  0  0  0  0  0  0  0  0  0  0
    2.5193    6.1217    5.6868 H   0  0  0  0  0  0  0  0  0  0  0  0
    3.0301    4.6137    4.8942 H   0  0  0  0  0  0  0  0  0  0  0  0
   -0.4753    6.0986    4.5473 C   0  0  0  0  0  0  0  0  0  0  0  0
   -0.8452    5.1849    5.0078 H   0  0  0  0  0  0  0  0  0  0  0  0
   -1.2701    6.4917    3.9082 H   0  0  0  0  0  0  0  0  0  0  0  0
   -0.2884    6.8228    5.3436 H   0  0  0  0  0  0  0  0  0  0  0  0
  1  3  1  0  0  0  0
  1 33  1  0  0  0  0
  1 29  1  0  0  0  0
  2  1  1  0  0  0  0
  3  4  1  0  0  0  0
  4  5  1  0  0  0  0
  4  6  1  0  0  0  0
  6  7  1  0  0  0  0
  8  6  2  0  0  0  0
  8  9  1  0  0  0  0
 10  8  1  0  0  0  0
 11 10  1  0  0  0  0
 12  3  1  0  0  0  0
 12 10  2  0  0  0  0
 13 14  2  0  0  0  0
 13 12  1  0  0  0  0
 15 16  1  6  0  0  0
 15 13  1  0  0  0  0
 16 17  1  0  0  0  0
 18 16  2  0  0  0  0
 19 18  1  0  0  0  0
 20 18  1  0  0  0  0
 20 22  2  0  0  0  0
 21 20  1  0  0  0  0
 22 23  1  0  0  0  0
 22 24  1  0  0  0  0
 24 15  1  0  0  0  0
 24  1  1  0  0  0  0
 25  1  1  0  0  0  0
 25 28  1  0  0  0  0
 26 25  1  0  0  0  0
 27 25  1  0  0  0  0
 29 31  1  0  0  0  0
 29 30  1  0  0  0  0
 32 29  1  0  0  0  0
 33 34  1  0  0  0  0
 33 36  1  0  0  0  0
 35 33  1  0  0  0  0
M  END
$$$$
