CSD_code = XARGED | q = 0 | S = 0 | Stoichiometry = C12H21ClN2Ni | MND = 4
 OpenBabel04212202113D

 37 38  0  0  0  0  0  0  0  0999 V2000
    0.2073    1.6855    2.2805 Ni  0  0  0  0  0  0  0  0  0  0  0  0
    0.1298    2.9074    0.6363 Cl  0  0  0  0  0  0  0  0  0  0  0  0
    0.2755    0.4593    4.0205 N   0  0  0  0  0  4  0  0  0  0  0  0
   -1.1152    0.0284    4.2227 C   0  0  0  0  0  0  0  0  0  0  0  0
   -1.6553    0.8497    4.7005 H   0  0  0  0  0  0  0  0  0  0  0  0
   -1.1552   -0.8394    4.9017 H   0  0  0  0  0  0  0  0  0  0  0  0
   -1.6774    0.7671    1.9363 N   0  0  0  0  0  4  0  0  0  0  0  0
   -1.8023   -0.3269    2.9045 C   0  0  0  0  0  0  0  0  0  0  0  0
   -1.3356   -1.2208    2.4827 H   0  0  0  0  0  0  0  0  0  0  0  0
   -2.8603   -0.5656    3.0988 H   0  0  0  0  0  0  0  0  0  0  0  0
    1.1215   -0.6915    3.6983 C   0  0  0  0  0  0  0  0  0  0  0  0
    1.0361   -1.4705    4.4696 H   0  0  0  0  0  0  0  0  0  0  0  0
    2.1598   -0.3690    3.6393 H   0  0  0  0  0  0  0  0  0  0  0  0
    0.8439   -1.1173    2.7356 H   0  0  0  0  0  0  0  0  0  0  0  0
    0.7622    1.0500    5.2672 C   0  0  0  0  0  0  0  0  0  0  0  0
    0.6890    0.3318    6.0957 H   0  0  0  0  0  0  0  0  0  0  0  0
    0.1773    1.9344    5.5153 H   0  0  0  0  0  0  0  0  0  0  0  0
    1.8014    1.3515    5.1517 H   0  0  0  0  0  0  0  0  0  0  0  0
   -2.6743    1.8059    2.2050 C   0  0  0  0  0  0  0  0  0  0  0  0
   -3.6946    1.4027    2.1263 H   0  0  0  0  0  0  0  0  0  0  0  0
   -2.5520    2.6112    1.4813 H   0  0  0  0  0  0  0  0  0  0  0  0
   -2.5383    2.2220    3.2033 H   0  0  0  0  0  0  0  0  0  0  0  0
   -1.8951    0.2618    0.5813 C   0  0  0  0  0  0  0  0  0  0  0  0
   -2.9012   -0.1668    0.4739 H   0  0  0  0  0  0  0  0  0  0  0  0
   -1.1567   -0.5040    0.3429 H   0  0  0  0  0  0  0  0  0  0  0  0
   -1.7743    1.0808   -0.1263 H   0  0  0  0  0  0  0  0  0  0  0  0
    1.8484    2.4616    2.5910 C   0  0  0  0  0  0  0  0  0  0  0  0
    2.9995    1.8206    2.1353 C   0  0  0  0  0  0  0  0  0  0  0  0
    2.9299    0.9875    1.4433 H   0  0  0  0  0  0  0  0  0  0  0  0
    4.2499    2.2580    2.5440 C   0  0  0  0  0  0  0  0  0  0  0  0
    5.1358    1.7504    2.1882 H   0  0  0  0  0  0  0  0  0  0  0  0
    4.3666    3.3462    3.3909 C   0  0  0  0  0  0  0  0  0  0  0  0
    5.3429    3.6878    3.7031 H   0  0  0  0  0  0  0  0  0  0  0  0
    3.2292    4.0092    3.8173 C   0  0  0  0  0  0  0  0  0  0  0  0
    3.3155    4.8739    4.4604 H   0  0  0  0  0  0  0  0  0  0  0  0
    1.9748    3.5786    3.4145 C   0  0  0  0  0  0  0  0  0  0  0  0
    1.0971    4.1273    3.7370 H   0  0  0  0  0  0  0  0  0  0  0  0
  1 27  1  0  0  0  0
  1  3  1  0  0  0  0
  2  1  1  0  0  0  0
  3  4  1  0  0  0  0
  3 15  1  0  0  0  0
  4  5  1  0  0  0  0
  4  6  1  0  0  0  0
  7 19  1  0  0  0  0
  7  1  1  0  0  0  0
  7  8  1  0  0  0  0
  8 10  1  0  0  0  0
  8  4  1  0  0  0  0
  9  8  1  0  0  0  0
 11  3  1  0  0  0  0
 11 12  1  0  0  0  0
 13 11  1  0  0  0  0
 14 11  1  0  0  0  0
 15 17  1  0  0  0  0
 15 16  1  0  0  0  0
 18 15  1  0  0  0  0
 19 22  1  0  0  0  0
 20 19  1  0  0  0  0
 21 19  1  0  0  0  0
 23  7  1  0  0  0  0
 24 23  1  0  0  0  0
 25 23  1  0  0  0  0
 26 23  1  0  0  0  0
 27 36  1  0  0  0  0
 28 30  1  0  0  0  0
 28 27  2  0  0  0  0
 29 28  1  0  0  0  0
 30 32  2  0  0  0  0
 31 30  1  0  0  0  0
 32 33  1  0  0  0  0
 32 34  1  0  0  0  0
 34 35  1  0  0  0  0
 36 37  1  0  0  0  0
 36 34  2  0  0  0  0
M  END
$$$$
