CSD_code = XARPEL | q = 0 | S = 0 | Stoichiometry = C15H12Cl2N2NiS5 | MND = 6
 OpenBabel04212202113D

 37 42  0  0  1  0  0  0  0  0999 V2000
   -0.0872    2.4414    9.8909 Ni  0  0  0  0  0  0  0  0  0  0  0  0
    0.0011    3.5195    8.1125 Cl  0  0  0  0  0  0  0  0  0  0  0  0
    1.7975    1.6235    9.5600 Cl  0  0  0  0  0  0  0  0  0  0  0  0
   -5.0646    1.6730   15.0868 S   0  0  0  0  0  0  0  0  0  0  0  0
   -2.3129    1.2189   14.0487 S   0  0  0  0  0  0  0  0  0  0  0  0
   -4.2393    2.7101   12.4226 S   0  0  0  0  0  0  0  0  0  0  0  0
   -0.1795    1.2612   11.8929 S   0  0  2  0  0  3  0  0  0  0  0  0
   -2.2122    3.3211   10.2499 S   0  0  2  0  0  3  0  0  0  0  0  0
    0.6373    4.0857   11.3763 N   0  0  0  0  0  0  0  0  0  0  0  0
   -3.9433    1.8553   13.9261 C   0  0  0  0  0  0  0  0  0  0  0  0
   -1.7565    1.7875   12.4849 C   0  0  1  0  0  3  0  0  0  0  0  0
    0.9364    2.2609   12.9306 C   0  0  0  0  0  0  0  0  0  0  0  0
    0.6296    5.3742   11.0607 C   0  0  0  0  0  3  0  0  0  0  0  0
    0.8243    6.3734   12.0003 C   0  0  0  0  0  0  0  0  0  0  0  0
    1.0259    6.0092   13.3219 C   0  0  0  0  0  0  0  0  0  0  0  0
    1.0439    4.6637   13.6504 C   0  0  0  0  0  0  0  0  0  0  0  0
    0.8571    3.7297   12.6391 C   0  0  0  0  0  0  0  0  0  0  0  0
   -1.4140    0.7257    9.0349 N   0  0  0  0  0  0  0  0  0  0  0  0
   -2.6369    2.4850   11.7443 C   0  0  1  0  0  3  0  0  0  0  0  0
   -3.1828    2.3735    9.0339 C   0  0  0  0  0  0  0  0  0  0  0  0
   -0.9476   -0.5006    8.8373 C   0  0  0  0  0  3  0  0  0  0  0  0
   -1.7653   -1.5617    8.4850 C   0  0  0  0  0  0  0  0  0  0  0  0
   -3.1243   -1.3311    8.3410 C   0  0  0  0  0  0  0  0  0  0  0  0
   -3.6103   -0.0494    8.5384 C   0  0  0  0  0  0  0  0  0  0  0  0
   -2.7138    0.9576    8.8751 C   0  0  0  0  0  0  0  0  0  0  0  0
    1.9235    1.8845   12.6482 H   0  0  0  0  0  0  0  0  0  0  0  0
    0.7357    2.0327   13.9772 H   0  0  0  0  0  0  0  0  0  0  0  0
    0.4599    5.5965   10.0148 H   0  0  0  0  0  0  0  0  0  0  0  0
    0.8123    7.4094   11.7032 H   0  0  0  0  0  0  0  0  0  0  0  0
    1.1695    6.7577   14.0870 H   0  0  0  0  0  0  0  0  0  0  0  0
    1.2081    4.3410   14.6672 H   0  0  0  0  0  0  0  0  0  0  0  0
   -3.0050    2.9239    8.1057 H   0  0  0  0  0  0  0  0  0  0  0  0
   -4.2364    2.4340    9.3068 H   0  0  0  0  0  0  0  0  0  0  0  0
    0.1203   -0.6198    8.9705 H   0  0  0  0  0  0  0  0  0  0  0  0
   -1.3474   -2.5436    8.3327 H   0  0  0  0  0  0  0  0  0  0  0  0
   -3.7973   -2.1332    8.0768 H   0  0  0  0  0  0  0  0  0  0  0  0
   -4.6609    0.1713    8.4260 H   0  0  0  0  0  0  0  0  0  0  0  0
  1  8  1  0  0  0  0
  1  9  1  0  0  0  0
  1  7  1  0  0  0  0
  2  1  1  0  0  0  0
  3  1  1  0  0  0  0
  6 10  1  0  0  0  0
  7 11  1  0  0  0  0
  7 12  1  1  0  0  0
  8 20  1  6  0  0  0
  8 19  1  0  0  0  0
  9 17  1  0  0  0  0
 10  5  1  0  0  0  0
 10  4  2  0  0  0  0
 11  5  1  6  0  0  0
 12 27  1  0  0  0  0
 13  9  1  0  0  0  0
 13 14  1  0  0  0  0
 14 15  2  0  0  0  0
 15 16  1  0  0  0  0
 15 30  1  0  0  0  0
 16 31  1  0  0  0  0
 17 12  1  0  0  0  0
 17 16  2  0  0  0  0
 18  1  1  0  0  0  0
 19  6  1  1  0  0  0
 19 11  1  0  0  0  0
 20 33  1  0  0  0  0
 21 34  1  0  0  0  0
 21 18  1  0  0  0  0
 22 21  1  0  0  0  0
 23 22  2  0  0  0  0
 23 24  1  0  0  0  0
 24 25  2  0  0  0  0
 25 20  1  0  0  0  0
 25 18  1  0  0  0  0
 26 12  1  0  0  0  0
 28 13  1  0  0  0  0
 29 14  1  0  0  0  0
 32 20  1  0  0  0  0
 35 22  1  0  0  0  0
 36 23  1  0  0  0  0
 37 24  1  0  0  0  0
M  END
$$$$
