CSD_code = XARQIR | q = 0 | S = 0 | Stoichiometry = C20H20Cl2N4O2PdS2 | MND = 4
 OpenBabel04212202113D

 51 54  0  0  1  0  0  0  0  0999 V2000
    7.6930    5.2235    2.2220 Pd  0  0  0  0  0  0  0  0  0  0  0  0
    9.3040    4.6930    3.7988 Cl  0  0  0  0  0  0  0  0  0  0  0  0
    6.0840    5.7447    0.6425 Cl  0  0  0  0  0  0  0  0  0  0  0  0
    7.9489    0.9290    3.0373 S   0  0  0  0  0  0  0  0  0  0  0  0
    7.4866    2.3844    5.5539 O   0  0  0  0  0  0  0  0  0  0  0  0
    6.4197    5.2125    3.7892 N   0  0  0  0  0  0  0  0  0  0  0  0
    6.4622    4.2477    4.7388 N   0  0  0  0  0  0  0  0  0  0  0  0
    5.7698    6.2423    4.3045 C   0  0  1  0  0  3  0  0  0  0  0  0
    5.5065    7.5001    3.5643 C   0  0  0  0  0  0  0  0  0  0  0  0
    6.0684    8.3203    4.0095 H   0  0  0  0  0  0  0  0  0  0  0  0
    4.4472    7.7447    3.6193 H   0  0  0  0  0  0  0  0  0  0  0  0
    5.7888    7.3839    2.5176 H   0  0  0  0  0  0  0  0  0  0  0  0
    5.3715    5.9342    5.6183 C   0  0  0  0  0  0  0  0  0  0  0  0
    4.8218    6.5690    6.2823 H   0  0  0  0  0  0  0  0  0  0  0  0
    5.8408    4.6724    5.8793 C   0  0  0  0  0  0  0  0  0  0  0  0
    5.7141    3.8580    7.1080 C   0  0  0  0  0  0  0  0  0  0  0  0
    5.3235    2.8672    6.8821 H   0  0  0  0  0  0  0  0  0  0  0  0
    5.0511    4.3600    7.8077 H   0  0  0  0  0  0  0  0  0  0  0  0
    6.6912    3.7207    7.5686 H   0  0  0  0  0  0  0  0  0  0  0  0
    7.0826    2.9803    4.5846 C   0  0  0  0  0  0  0  0  0  0  0  0
    7.0442    2.3948    3.2524 C   0  0  0  0  0  0  0  0  0  0  0  0
    6.2637    2.6764    2.1459 C   0  0  0  0  0  0  0  0  0  0  0  0
    5.5234    3.4645    2.0949 H   0  0  0  0  0  0  0  0  0  0  0  0
    6.4279    1.7237    1.1245 C   0  0  0  0  0  0  0  0  0  0  0  0
    5.9103    1.7728    0.1832 H   0  0  0  0  0  0  0  0  0  0  0  0
    7.3046    0.7343    1.4652 C   0  0  0  0  0  0  0  0  0  0  0  0
    7.6028   -0.1083    0.8720 H   0  0  0  0  0  0  0  0  0  0  0  0
    7.4431    9.5186    1.4383 S   0  0  0  0  0  0  0  0  0  0  0  0
    7.9318    8.0907   -1.0910 O   0  0  0  0  0  0  0  0  0  0  0  0
    8.9666    5.2401    0.6559 N   0  0  0  0  0  0  0  0  0  0  0  0
    8.9392    6.2150   -0.2842 N   0  0  0  0  0  0  0  0  0  0  0  0
    9.6081    4.2089    0.1337 C   0  0  2  0  0  3  0  0  0  0  0  0
    9.8475    2.9390    0.8611 C   0  0  0  0  0  0  0  0  0  0  0  0
    9.5992    3.0603    1.9159 H   0  0  0  0  0  0  0  0  0  0  0  0
   10.8944    2.6550    0.7733 H   0  0  0  0  0  0  0  0  0  0  0  0
    9.2414    2.1428    0.4301 H   0  0  0  0  0  0  0  0  0  0  0  0
   10.0179    4.5261   -1.1745 C   0  0  0  0  0  0  0  0  0  0  0  0
   10.5650    3.8924   -1.8416 H   0  0  0  0  0  0  0  0  0  0  0  0
    9.5633    5.7951   -1.4254 C   0  0  0  0  0  0  0  0  0  0  0  0
    9.7065    6.6210   -2.6446 C   0  0  0  0  0  0  0  0  0  0  0  0
    8.7344    6.7698   -3.1122 H   0  0  0  0  0  0  0  0  0  0  0  0
   10.3719    6.1212   -3.3436 H   0  0  0  0  0  0  0  0  0  0  0  0
   10.1021    7.6066   -2.4053 H   0  0  0  0  0  0  0  0  0  0  0  0
    8.3259    7.4848   -0.1239 C   0  0  0  0  0  0  0  0  0  0  0  0
    8.3517    8.0565    1.2142 C   0  0  0  0  0  0  0  0  0  0  0  0
    9.1225    7.7629    2.3246 C   0  0  0  0  0  0  0  0  0  0  0  0
    9.8652    6.9767    2.3714 H   0  0  0  0  0  0  0  0  0  0  0  0
    8.9465    8.7023    3.3561 C   0  0  0  0  0  0  0  0  0  0  0  0
    9.4551    8.6426    4.3017 H   0  0  0  0  0  0  0  0  0  0  0  0
    8.0715    9.6945    3.0189 C   0  0  0  0  0  0  0  0  0  0  0  0
    7.7665   10.5293    3.6197 H   0  0  0  0  0  0  0  0  0  0  0  0
  1  6  1  0  0  0  0
  1  2  1  0  0  0  0
  3  1  1  0  0  0  0
  4 21  1  0  0  0  0
  6  8  1  0  0  0  0
  6  7  1  0  0  0  0
  7 15  1  0  0  0  0
  8  9  1  6  0  0  0
  8 13  1  0  0  0  0
  9 11  1  0  0  0  0
  9 10  1  0  0  0  0
 12  9  1  0  0  0  0
 13 15  2  0  0  0  0
 13 14  1  0  0  0  0
 15 16  1  0  0  0  0
 16 19  1  0  0  0  0
 16 18  1  0  0  0  0
 17 16  1  0  0  0  0
 20  7  1  0  0  0  0
 20  5  2  0  0  0  0
 21 20  1  0  0  0  0
 22 21  2  0  0  0  0
 23 22  1  0  0  0  0
 24 26  2  0  0  0  0
 24 22  1  0  0  0  0
 25 24  1  0  0  0  0
 26  4  1  0  0  0  0
 27 26  1  0  0  0  0
 28 50  1  0  0  0  0
 29 44  2  0  0  0  0
 30  1  1  0  0  0  0
 31 44  1  0  0  0  0
 31 30  1  0  0  0  0
 32 30  1  0  0  0  0
 32 33  1  1  0  0  0
 33 34  1  0  0  0  0
 35 33  1  0  0  0  0
 36 33  1  0  0  0  0
 37 32  1  0  0  0  0
 38 37  1  0  0  0  0
 39 37  2  0  0  0  0
 39 31  1  0  0  0  0
 40 43  1  0  0  0  0
 40 39  1  0  0  0  0
 41 40  1  0  0  0  0
 42 40  1  0  0  0  0
 44 45  1  0  0  0  0
 45 28  1  0  0  0  0
 45 46  2  0  0  0  0
 46 47  1  0  0  0  0
 46 48  1  0  0  0  0
 48 49  1  0  0  0  0
 50 48  2  0  0  0  0
 50 51  1  0  0  0  0
M  END
$$$$
