CSD_code = XASJOT | q = 0 | S = 0 | Stoichiometry = C22H25ClN8O3Zn | MND = 4
 OpenBabel04212202113D

 60 62  0  0  1  0  0  0  0  0999 V2000
   17.2535   11.0893    5.6621 Zn  0  0  0  0  0  0  0  0  0  0  0  0
   17.6226   11.0310    7.8176 Cl  0  0  0  0  0  0  0  0  0  0  0  0
   20.6636   15.0150    7.2050 O   0  0  0  0  0  0  0  0  0  0  0  0
   19.2649   11.3749    4.8997 O   0  0  0  0  0  0  0  0  0  0  0  0
   19.7285   11.8965    5.5950 H   0  0  0  0  0  0  0  0  0  0  0  0
   19.3472   11.8671    4.0788 H   0  0  0  0  0  0  0  0  0  0  0  0
   21.8537    5.4601    7.5719 O   0  0  0  0  0  0  0  0  0  0  0  0
   15.8572   12.0272    4.7501 N   0  0  0  0  0  0  0  0  0  0  0  0
   17.7133   13.6960    5.8799 N   0  0  0  0  0  0  0  0  0  0  0  0
   18.6268   14.5273    6.4047 N   0  0  0  0  0  0  0  0  0  0  0  0
   18.4704   15.5347    6.3489 H   0  0  0  0  0  0  0  0  0  0  0  0
   20.0186   12.8155    7.1438 N   0  0  0  0  0  0  0  0  0  0  0  0
   20.8616   12.6088    7.6630 H   0  0  0  0  0  0  0  0  0  0  0  0
   19.1999   12.2814    7.4756 H   0  0  0  0  0  0  0  0  0  0  0  0
   16.7261    9.3197    4.9563 N   0  0  0  0  0  0  0  0  0  0  0  0
   19.0617    6.8431    6.0373 N   0  0  0  0  0  0  0  0  0  0  0  0
   20.1975    6.7462    6.7217 N   0  0  0  0  0  0  0  0  0  0  0  0
   20.6396    7.5716    7.1281 H   0  0  0  0  0  0  0  0  0  0  0  0
   20.1748    4.4831    6.3797 N   0  0  0  0  0  0  0  0  0  0  0  0
   20.5176    3.5518    6.5242 H   0  0  0  0  0  0  0  0  0  0  0  0
   19.2968    4.6524    5.9203 H   0  0  0  0  0  0  0  0  0  0  0  0
   13.4660    9.6637    3.0939 C   0  0  0  0  0  0  0  0  0  0  0  0
   12.3098    9.3127    3.7921 C   0  0  0  0  0  0  0  0  0  0  0  0
   11.1903    8.9152    3.0783 C   0  0  0  0  0  0  0  0  0  0  0  0
   10.2927    8.6417    3.6147 H   0  0  0  0  0  0  0  0  0  0  0  0
   11.1970    8.8601    1.6912 C   0  0  0  0  0  0  0  0  0  0  0  0
   12.3570    9.2142    1.0178 C   0  0  0  0  0  0  0  0  0  0  0  0
   12.3768    9.1758   -0.0622 H   0  0  0  0  0  0  0  0  0  0  0  0
   13.4949    9.6167    1.7002 C   0  0  0  0  0  0  0  0  0  0  0  0
   12.2939    9.3655    5.2895 C   0  0  0  0  0  0  0  0  0  0  0  0
   13.0302    8.6762    5.7021 H   0  0  0  0  0  0  0  0  0  0  0  0
   11.3131    9.0996    5.6751 H   0  0  0  0  0  0  0  0  0  0  0  0
   12.5491   10.3655    5.6387 H   0  0  0  0  0  0  0  0  0  0  0  0
    9.9673    8.4484    0.9405 C   0  0  0  0  0  0  0  0  0  0  0  0
    9.4254    7.6750    1.4801 H   0  0  0  0  0  0  0  0  0  0  0  0
   10.2214    8.0775   -0.0494 H   0  0  0  0  0  0  0  0  0  0  0  0
    9.3007    9.3032    0.8213 H   0  0  0  0  0  0  0  0  0  0  0  0
   14.7443    9.9956    0.9639 C   0  0  0  0  0  0  0  0  0  0  0  0
   15.0119   11.0299    1.1785 H   0  0  0  0  0  0  0  0  0  0  0  0
   14.6084    9.8854   -0.1089 H   0  0  0  0  0  0  0  0  0  0  0  0
   15.5768    9.3673    1.2790 H   0  0  0  0  0  0  0  0  0  0  0  0
   14.6706   10.0965    3.8426 C   0  0  0  0  0  0  0  0  0  0  0  0
   14.8061   11.4721    4.0848 C   0  0  0  0  0  0  0  0  0  0  0  0
   13.9228   12.5105    3.6779 C   0  0  0  0  0  0  0  0  0  0  0  0
   13.0078   12.3697    3.1355 H   0  0  0  0  0  0  0  0  0  0  0  0
   14.4697   13.6922    4.1113 C   0  0  0  0  0  0  0  0  0  0  0  0
   14.0789   14.6829    3.9831 H   0  0  0  0  0  0  0  0  0  0  0  0
   15.6740   13.3553    4.7730 C   0  0  2  0  0  3  0  0  0  0  0  0
   16.6441   14.2015    5.3812 C   0  0  0  0  0  0  0  0  0  0  0  0
   16.4581   15.2784    5.3921 H   0  0  0  0  0  0  0  0  0  0  0  0
   19.8381   14.1626    6.9687 C   0  0  0  0  0  0  0  0  0  0  0  0
   15.5700    9.1128    4.2412 C   0  0  0  0  0  0  0  0  0  0  0  0
   15.4409    7.7129    3.9742 C   0  0  0  0  0  0  0  0  0  0  0  0
   14.6310    7.2640    3.4316 H   0  0  0  0  0  0  0  0  0  0  0  0
   16.5214    7.0991    4.5345 C   0  0  0  0  0  0  0  0  0  0  0  0
   16.7686    6.0567    4.5405 H   0  0  0  0  0  0  0  0  0  0  0  0
   17.3007    8.1263    5.1394 C   0  0  0  0  0  0  0  0  0  0  0  0
   18.5230    7.9911    5.8595 C   0  0  0  0  0  0  0  0  0  0  0  0
   18.9678    8.9092    6.2545 H   0  0  0  0  0  0  0  0  0  0  0  0
   20.8236    5.5230    6.9432 C   0  0  0  0  0  0  0  0  0  0  0  0
  1  2  1  0  0  0  0
  4  5  1  0  0  0  0
  6  4  1  0  0  0  0
  8 48  1  0  0  0  0
  8  1  1  0  0  0  0
  9 10  1  0  0  0  0
 10 51  1  0  0  0  0
 11 10  1  0  0  0  0
 12 14  1  0  0  0  0
 12 13  1  0  0  0  0
 15 57  1  0  0  0  0
 15  1  1  0  0  0  0
 16 17  1  0  0  0  0
 17 60  1  0  0  0  0
 17 18  1  0  0  0  0
 19 20  1  0  0  0  0
 19 60  1  0  0  0  0
 21 19  1  0  0  0  0
 22 23  1  0  0  0  0
 22 42  1  0  0  0  0
 23 30  1  0  0  0  0
 24 25  1  0  0  0  0
 24 23  2  0  0  0  0
 26 24  1  0  0  0  0
 27 26  2  0  0  0  0
 27 29  1  0  0  0  0
 28 27  1  0  0  0  0
 29 22  2  0  0  0  0
 30 33  1  0  0  0  0
 30 32  1  0  0  0  0
 30 31  1  0  0  0  0
 34 35  1  0  0  0  0
 34 26  1  0  0  0  0
 36 34  1  0  0  0  0
 37 34  1  0  0  0  0
 38 39  1  0  0  0  0
 38 41  1  0  0  0  0
 38 29  1  0  0  0  0
 40 38  1  0  0  0  0
 42 43  2  0  0  0  0
 42 52  1  0  0  0  0
 43  8  1  0  0  0  0
 44 43  1  0  0  0  0
 44 46  2  0  0  0  0
 45 44  1  0  0  0  0
 46 48  1  0  0  0  0
 47 46  1  0  0  0  0
 48 49  1  6  0  0  0
 49 50  1  0  0  0  0
 49  9  2  0  0  0  0
 51 12  1  0  0  0  0
 51  3  2  0  0  0  0
 52 15  1  0  0  0  0
 53 52  2  0  0  0  0
 53 55  1  0  0  0  0
 54 53  1  0  0  0  0
 55 56  1  0  0  0  0
 55 57  2  0  0  0  0
 57 58  1  0  0  0  0
 58 16  2  0  0  0  0
 58 59  1  0  0  0  0
 60  7  2  0  0  0  0
M  END
$$$$
