CSD_code = XATPUF | q = 0 | S = 0 | Stoichiometry = C18H36Cl2N2O2P2Pd | MND = 4
 OpenBabel04212202113D

 63 62  0  0  0  0  0  0  0  0999 V2000
    1.1599    7.8381    5.6860 Pd  0  0  0  0  0  0  0  0  0  0  0  0
    3.0529    7.1859    4.5750 Cl  0  0  0  0  0  0  0  0  0  0  0  0
   -0.7346    8.4863    6.7981 Cl  0  0  0  0  0  0  0  0  0  0  0  0
    0.1648    7.9980    3.6512 P   0  0  0  0  0  4  0  0  0  0  0  0
    2.1547    7.6811    7.7208 P   0  0  0  0  0  4  0  0  0  0  0  0
   -0.0416    6.5515    2.8117 N   0  0  0  0  0  0  0  0  0  0  0  0
   -0.0151    6.5498    1.7709 H   0  0  0  0  0  0  0  0  0  0  0  0
    2.3498    9.1275    8.5630 N   0  0  0  0  0  0  0  0  0  0  0  0
    2.3246    9.1281    9.6037 H   0  0  0  0  0  0  0  0  0  0  0  0
   -0.1514    5.4920    0.4370 O   0  0  0  0  0  0  0  0  0  0  0  0
    2.4657   10.1849   10.9381 O   0  0  0  0  0  0  0  0  0  0  0  0
   -0.2526    3.1180    0.1932 C   0  0  0  0  0  0  0  0  0  0  0  0
   -0.2606    3.3489   -0.8686 H   0  0  0  0  0  0  0  0  0  0  0  0
   -1.1486    2.5573    0.4515 H   0  0  0  0  0  0  0  0  0  0  0  0
    0.6132    2.5007    0.4238 H   0  0  0  0  0  0  0  0  0  0  0  0
   -0.1953    4.3930    0.9984 C   0  0  0  0  0  0  0  0  0  0  0  0
   -0.1962    4.2322    2.4238 C   0  0  0  0  0  0  0  0  0  0  0  0
   -0.2525    3.2306    2.8165 H   0  0  0  0  0  0  0  0  0  0  0  0
   -0.1128    5.2848    3.2899 C   0  0  0  0  0  0  0  0  0  0  0  0
   -0.0888    5.0969    4.7711 C   0  0  0  0  0  0  0  0  0  0  0  0
    0.9260    5.3302    5.1422 H   0  0  0  0  0  0  0  0  0  0  0  0
   -0.3268    4.0705    5.0381 H   0  0  0  0  0  0  0  0  0  0  0  0
   -0.8125    5.7739    5.2440 H   0  0  0  0  0  0  0  0  0  0  0  0
    1.1230    8.9319    2.3967 C   0  0  0  0  0  0  0  0  0  0  0  0
    2.0024    8.3271    2.1608 H   0  0  0  0  0  0  0  0  0  0  0  0
    0.5238    9.0426    1.4899 H   0  0  0  0  0  0  0  0  0  0  0  0
    1.5553   10.2783    2.9626 C   0  0  0  0  0  0  0  0  0  0  0  0
    0.6932   10.8715    3.2676 H   0  0  0  0  0  0  0  0  0  0  0  0
    2.1200   10.8446    2.2251 H   0  0  0  0  0  0  0  0  0  0  0  0
    2.1950   10.1118    3.8322 H   0  0  0  0  0  0  0  0  0  0  0  0
   -1.5280    8.7403    3.6025 C   0  0  0  0  0  0  0  0  0  0  0  0
   -2.1355    8.1476    4.2931 H   0  0  0  0  0  0  0  0  0  0  0  0
   -1.4585    9.7425    4.0330 H   0  0  0  0  0  0  0  0  0  0  0  0
   -2.1753    8.7743    2.2259 C   0  0  0  0  0  0  0  0  0  0  0  0
   -1.6705    9.4745    1.5649 H   0  0  0  0  0  0  0  0  0  0  0  0
   -3.2121    9.0917    2.3178 H   0  0  0  0  0  0  0  0  0  0  0  0
   -2.1614    7.7890    1.7645 H   0  0  0  0  0  0  0  0  0  0  0  0
    2.5691   12.5586   11.1838 C   0  0  0  0  0  0  0  0  0  0  0  0
    2.5845   12.3265   12.2451 H   0  0  0  0  0  0  0  0  0  0  0  0
    1.7012   13.1753   10.9597 H   0  0  0  0  0  0  0  0  0  0  0  0
    3.4628   13.1204   10.9200 H   0  0  0  0  0  0  0  0  0  0  0  0
    2.5069   11.2845   10.3776 C   0  0  0  0  0  0  0  0  0  0  0  0
    2.5032   11.4466    8.9523 C   0  0  0  0  0  0  0  0  0  0  0  0
    2.5572   12.4486    8.5605 H   0  0  0  0  0  0  0  0  0  0  0  0
    2.4203   10.3945    8.0855 C   0  0  0  0  0  0  0  0  0  0  0  0
    2.3965   10.5831    6.6044 C   0  0  0  0  0  0  0  0  0  0  0  0
    2.6390   11.6085    6.3377 H   0  0  0  0  0  0  0  0  0  0  0  0
    1.3811   10.3542    6.2327 H   0  0  0  0  0  0  0  0  0  0  0  0
    3.1177    9.9033    6.1316 H   0  0  0  0  0  0  0  0  0  0  0  0
    1.2057    6.7366    8.9742 C   0  0  0  0  0  0  0  0  0  0  0  0
    1.8069    6.6287    9.8801 H   0  0  0  0  0  0  0  0  0  0  0  0
    0.3218    7.3339    9.2124 H   0  0  0  0  0  0  0  0  0  0  0  0
    0.7837    5.3881    8.4057 C   0  0  0  0  0  0  0  0  0  0  0  0
    0.1413    5.5514    7.5376 H   0  0  0  0  0  0  0  0  0  0  0  0
    0.2248    4.8153    9.1427 H   0  0  0  0  0  0  0  0  0  0  0  0
    1.6501    4.8029    8.0979 H   0  0  0  0  0  0  0  0  0  0  0  0
    3.8540    6.9535    7.7660 C   0  0  0  0  0  0  0  0  0  0  0  0
    3.7921    5.9497    7.3382 H   0  0  0  0  0  0  0  0  0  0  0  0
    4.4544    7.5497    7.0722 H   0  0  0  0  0  0  0  0  0  0  0  0
    4.5058    6.9289    9.1406 C   0  0  0  0  0  0  0  0  0  0  0  0
    4.4861    7.9156    9.5991 H   0  0  0  0  0  0  0  0  0  0  0  0
    5.5448    6.6190    9.0465 H   0  0  0  0  0  0  0  0  0  0  0  0
    4.0085    6.2272    9.8057 H   0  0  0  0  0  0  0  0  0  0  0  0
  1  3  1  0  0  0  0
  1  5  1  0  0  0  0
  2  1  1  0  0  0  0
  4  1  1  0  0  0  0
  5 57  1  0  0  0  0
  5  8  1  0  0  0  0
  5 50  1  0  0  0  0
  6 19  1  0  0  0  0
  6  4  1  0  0  0  0
  7  6  1  0  0  0  0
  8  9  1  0  0  0  0
 10 16  2  0  0  0  0
 12 15  1  0  0  0  0
 12 14  1  0  0  0  0
 12 16  1  0  0  0  0
 13 12  1  0  0  0  0
 16 17  1  0  0  0  0
 17 18  1  0  0  0  0
 17 19  2  0  0  0  0
 19 20  1  0  0  0  0
 20 22  1  0  0  0  0
 20 21  1  0  0  0  0
 20 23  1  0  0  0  0
 24 27  1  0  0  0  0
 24  4  1  0  0  0  0
 25 24  1  0  0  0  0
 26 24  1  0  0  0  0
 27 28  1  0  0  0  0
 27 30  1  0  0  0  0
 29 27  1  0  0  0  0
 31  4  1  0  0  0  0
 31 33  1  0  0  0  0
 31 32  1  0  0  0  0
 34 36  1  0  0  0  0
 34 31  1  0  0  0  0
 35 34  1  0  0  0  0
 37 34  1  0  0  0  0
 38 39  1  0  0  0  0
 40 38  1  0  0  0  0
 41 38  1  0  0  0  0
 42 11  2  0  0  0  0
 42 38  1  0  0  0  0
 43 42  1  0  0  0  0
 44 43  1  0  0  0  0
 45  8  1  0  0  0  0
 45 43  2  0  0  0  0
 46 45  1  0  0  0  0
 47 46  1  0  0  0  0
 48 46  1  0  0  0  0
 49 46  1  0  0  0  0
 50 52  1  0  0  0  0
 50 51  1  0  0  0  0
 53 50  1  0  0  0  0
 53 55  1  0  0  0  0
 54 53  1  0  0  0  0
 56 53  1  0  0  0  0
 57 60  1  0  0  0  0
 58 57  1  0  0  0  0
 59 57  1  0  0  0  0
 60 61  1  0  0  0  0
 60 63  1  0  0  0  0
 62 60  1  0  0  0  0
M  END
$$$$
