CSD_code = XAVJUZ | q = 0 | S = 0 | Stoichiometry = C11H20INO2Pt | MND = 6
 OpenBabel04212202113D

 36 36  0  0  1  0  0  0  0  0999 V2000
    5.5825    2.8037    9.9861 Pt  0  0  0  0  0  0  0  0  0  0  0  0
    5.2828    0.6087   11.5443 I   0  0  0  0  0  0  0  0  0  0  0  0
    7.1826    1.4551    8.6932 O   0  0  0  0  0  0  0  0  0  0  0  0
    9.4079    0.8151    8.7351 O   0  0  0  0  0  0  0  0  0  0  0  0
    7.6340    3.0182   10.8897 N   0  0  0  0  0  0  0  0  0  0  0  0
    4.5296    4.0375   11.2403 C   0  0  0  0  0  0  0  0  0  0  0  0
    4.9129    3.8332   12.2447 H   0  0  0  0  0  0  0  0  0  0  0  0
    3.4645    3.8056   11.2237 H   0  0  0  0  0  0  0  0  0  0  0  0
    4.6677    5.0912   10.9956 H   0  0  0  0  0  0  0  0  0  0  0  0
    3.8413    2.4630    8.9579 C   0  0  0  0  0  0  0  0  0  0  0  0
    4.1238    1.8305    8.1090 H   0  0  0  0  0  0  0  0  0  0  0  0
    3.3536    3.3601    8.5773 H   0  0  0  0  0  0  0  0  0  0  0  0
    3.1252    1.9148    9.5716 H   0  0  0  0  0  0  0  0  0  0  0  0
    5.9868    4.3730    8.7220 C   0  0  0  0  0  0  0  0  0  0  0  0
    6.7501    5.0166    9.1641 H   0  0  0  0  0  0  0  0  0  0  0  0
    5.1373    4.9957    8.4494 H   0  0  0  0  0  0  0  0  0  0  0  0
    6.3959    3.9355    7.8082 H   0  0  0  0  0  0  0  0  0  0  0  0
    8.2609    1.0697    9.5035 C   0  0  0  0  0  0  0  0  0  0  0  0
    8.0453    0.1008    9.9914 H   0  0  0  0  0  0  0  0  0  0  0  0
    8.5376    2.0906   10.5956 C   0  0  2  0  0  3  0  0  0  0  0  0
    9.7446    1.9895   11.2790 C   0  0  0  0  0  0  0  0  0  0  0  0
   10.4368    1.2079   11.0078 H   0  0  0  0  0  0  0  0  0  0  0  0
   10.0212    2.8898   12.2910 C   0  0  0  0  0  0  0  0  0  0  0  0
   10.9465    2.8270   12.8429 H   0  0  0  0  0  0  0  0  0  0  0  0
    9.0831    3.8695   12.5795 C   0  0  0  0  0  0  0  0  0  0  0  0
    9.2533    4.5967   13.3570 H   0  0  0  0  0  0  0  0  0  0  0  0
    7.9076    3.8927   11.8528 C   0  0  0  0  0  0  0  0  0  0  0  0
    7.1492    4.6395   12.0465 H   0  0  0  0  0  0  0  0  0  0  0  0
    6.7219    0.3945    7.8678 C   0  0  0  0  0  0  0  0  0  0  0  0
    6.2028   -0.3630    8.4645 H   0  0  0  0  0  0  0  0  0  0  0  0
    7.5622   -0.0694    7.3453 H   0  0  0  0  0  0  0  0  0  0  0  0
    6.0374    0.8329    7.1437 H   0  0  0  0  0  0  0  0  0  0  0  0
    9.8793    1.9251    7.9920 C   0  0  0  0  0  0  0  0  0  0  0  0
   10.2624    2.7121    8.6503 H   0  0  0  0  0  0  0  0  0  0  0  0
    9.0907    2.3414    7.3591 H   0  0  0  0  0  0  0  0  0  0  0  0
   10.6852    1.5440    7.3696 H   0  0  0  0  0  0  0  0  0  0  0  0
  1  5  1  0  0  0  0
  1  6  1  0  0  0  0
  1  2  1  0  0  0  0
  3 18  1  0  0  0  0
  4 18  1  0  0  0  0
  5 27  1  0  0  0  0
  6  7  1  0  0  0  0
  8  6  1  0  0  0  0
  9  6  1  0  0  0  0
 10 13  1  0  0  0  0
 10  1  1  0  0  0  0
 11 10  1  0  0  0  0
 12 10  1  0  0  0  0
 14 15  1  0  0  0  0
 14  1  1  0  0  0  0
 16 14  1  0  0  0  0
 17 14  1  0  0  0  0
 18 19  1  0  0  0  0
 20 18  1  1  0  0  0
 20  5  1  0  0  0  0
 20 21  1  0  0  0  0
 21 23  2  0  0  0  0
 22 21  1  0  0  0  0
 23 25  1  0  0  0  0
 23 24  1  0  0  0  0
 25 26  1  0  0  0  0
 27 28  1  0  0  0  0
 27 25  2  0  0  0  0
 29 30  1  0  0  0  0
 29  3  1  0  0  0  0
 31 29  1  0  0  0  0
 32 29  1  0  0  0  0
 33 34  1  0  0  0  0
 33  4  1  0  0  0  0
 35 33  1  0  0  0  0
 36 33  1  0  0  0  0
M  END
$$$$
