CSD_code = XAVJOT | q = 0 | S = 0 | Stoichiometry = C11H11ClNO5Re | MND = 6
 OpenBabel04212202113D

 30 30  0  0  1  0  0  0  0  0999 V2000
    0.6126    0.1814    0.0875 Re  0  0  0  0  0  0  0  0  0  0  0  0
    2.3853    1.4520   -0.7178 Cl  0  0  0  0  0  0  0  0  0  0  0  0
    0.3256   -0.9836   -2.7552 O   0  0  0  0  0  1  0  0  0  0  0  0
   -2.0482   -0.9053    1.2177 O   0  0  0  0  0  1  0  0  0  0  0  0
    2.3234   -2.1819    1.0880 O   0  0  0  0  0  1  0  0  0  0  0  0
   -0.5562    2.2150   -0.4021 O   0  0  0  0  0  0  0  0  0  0  0  0
   -0.9344    4.2932    0.5442 O   0  0  0  0  0  0  0  0  0  0  0  0
    0.8825    1.4930    1.7814 N   0  0  0  0  0  0  0  0  0  0  0  0
    0.4116   -0.6302   -1.6722 C   0  0  0  0  0  2  0  0  0  0  0  0
   -1.0450   -0.5398    0.7959 C   0  0  0  0  0  2  0  0  0  0  0  0
    1.6468   -1.3387    0.7012 C   0  0  0  0  0  2  0  0  0  0  0  0
    0.0101    3.2835    0.3153 C   0  0  0  0  0  0  0  0  0  0  0  0
    0.7965    3.7739   -0.2872 H   0  0  0  0  0  0  0  0  0  0  0  0
    0.6506    2.7935    1.6054 C   0  0  2  0  0  3  0  0  0  0  0  0
    1.0007    3.7499    2.5506 C   0  0  0  0  0  0  0  0  0  0  0  0
    0.7918    4.7881    2.3434 H   0  0  0  0  0  0  0  0  0  0  0  0
    1.6121    3.3489    3.7235 C   0  0  0  0  0  0  0  0  0  0  0  0
    1.9025    4.0736    4.4682 H   0  0  0  0  0  0  0  0  0  0  0  0
    1.8453    1.9947    3.9104 C   0  0  0  0  0  0  0  0  0  0  0  0
    2.3211    1.6266    4.8049 H   0  0  0  0  0  0  0  0  0  0  0  0
    1.4652    1.1103    2.9195 C   0  0  0  0  0  0  0  0  0  0  0  0
    1.6333    0.0472    3.0339 H   0  0  0  0  0  0  0  0  0  0  0  0
   -0.8402    2.5513   -1.7538 C   0  0  0  0  0  0  0  0  0  0  0  0
   -1.4275    1.7301   -2.1633 H   0  0  0  0  0  0  0  0  0  0  0  0
    0.0876    2.6660   -2.3243 H   0  0  0  0  0  0  0  0  0  0  0  0
   -1.4137    3.4809   -1.7948 H   0  0  0  0  0  0  0  0  0  0  0  0
   -2.0625    3.8887    1.3030 C   0  0  0  0  0  0  0  0  0  0  0  0
   -2.5562    3.0245    0.8504 H   0  0  0  0  0  0  0  0  0  0  0  0
   -2.7386    4.7400    1.3006 H   0  0  0  0  0  0  0  0  0  0  0  0
   -1.7825    3.6433    2.3327 H   0  0  0  0  0  0  0  0  0  0  0  0
  1 11  1  0  0  0  0
  1 10  1  0  0  0  0
  1  8  1  0  0  0  0
  2  1  1  0  0  0  0
  3  9  1  0  0  0  0
  6 12  1  0  0  0  0
  7 27  1  0  0  0  0
  8 21  1  0  0  0  0
  9  1  1  0  0  0  0
 10  4  1  0  0  0  0
 11  5  1  0  0  0  0
 12  7  1  0  0  0  0
 13 12  1  0  0  0  0
 14 12  1  6  0  0  0
 14  8  1  0  0  0  0
 14 15  1  0  0  0  0
 15 17  2  0  0  0  0
 16 15  1  0  0  0  0
 17 19  1  0  0  0  0
 17 18  1  0  0  0  0
 19 20  1  0  0  0  0
 21 22  1  0  0  0  0
 21 19  2  0  0  0  0
 23  6  1  0  0  0  0
 24 23  1  0  0  0  0
 25 23  1  0  0  0  0
 26 23  1  0  0  0  0
 27 30  1  0  0  0  0
 28 27  1  0  0  0  0
 29 27  1  0  0  0  0
M  END
$$$$
