CSD_code = XAVMIR | q = 0 | S = 0 | Stoichiometry = C9H11Cl3N6Pt | MND = 6
 OpenBabel04212202113D

 30 32  0  0  0  0  0  0  0  0999 V2000
    1.5424    3.3752    7.7592 Pt  0  0  0  0  0  0  0  0  0  0  0  0
    2.8028    1.7180    6.7909 Cl  0  0  0  0  0  0  0  0  0  0  0  0
    2.9218    3.3749    9.6367 Cl  0  0  0  0  0  0  0  0  0  0  0  0
    0.3794    1.8524    8.6515 N   0  0  0  0  0  0  0  0  0  0  0  0
   -0.8567    1.5754    8.2369 N   0  0  0  0  0  0  0  0  0  0  0  0
   -1.2462    2.1583    7.4682 H   0  0  0  0  0  0  0  0  0  0  0  0
    0.3388    3.3750    6.0989 N   0  0  0  0  0  0  0  0  0  0  0  0
   -0.9957    3.3751    6.2566 N   0  0  0  0  0  0  0  0  0  0  0  0
   -1.3325    0.4980    8.8733 C   0  0  0  0  0  3  0  0  0  0  0  0
   -2.3119    0.1113    8.6765 H   0  0  0  0  0  0  0  0  0  0  0  0
   -0.3536    0.0698    9.7460 C   0  0  0  0  0  0  0  0  0  0  0  0
   -0.3938   -0.7629   10.4160 H   0  0  0  0  0  0  0  0  0  0  0  0
    0.7104    0.9541    9.5652 C   0  0  0  0  0  0  0  0  0  0  0  0
    1.6671    0.9818   10.0487 H   0  0  0  0  0  0  0  0  0  0  0  0
   -1.5326    3.3751    5.0309 C   0  0  0  0  0  0  0  0  0  0  0  0
   -2.5987    3.3751    4.9089 H   0  0  0  0  0  0  0  0  0  0  0  0
   -0.5292    3.3752    4.0743 C   0  0  0  0  0  0  0  0  0  0  0  0
   -0.6352    3.3752    3.0097 H   0  0  0  0  0  0  0  0  0  0  0  0
    0.6511    3.3751    4.8059 C   0  0  0  0  0  0  0  0  0  0  0  0
    1.6699    3.3751    4.4740 H   0  0  0  0  0  0  0  0  0  0  0  0
    2.8029    5.0321    6.7903 Cl  0  0  0  0  0  0  0  0  0  0  0  0
    0.3793    4.8979    8.6515 N   0  0  0  0  0  0  0  0  0  0  0  0
   -0.8568    5.1749    8.2369 N   0  0  0  0  0  0  0  0  0  0  0  0
   -1.2464    4.5921    7.4682 H   0  0  0  0  0  0  0  0  0  0  0  0
   -1.3326    6.2523    8.8733 C   0  0  0  0  0  3  0  0  0  0  0  0
   -2.3119    6.6390    8.6765 H   0  0  0  0  0  0  0  0  0  0  0  0
   -0.3536    6.6804    9.7460 C   0  0  0  0  0  0  0  0  0  0  0  0
   -0.3937    7.5132   10.4160 H   0  0  0  0  0  0  0  0  0  0  0  0
    0.7103    5.7962    9.5652 C   0  0  0  0  0  0  0  0  0  0  0  0
    1.6672    5.7685   10.0486 H   0  0  0  0  0  0  0  0  0  0  0  0
  1 22  1  0  0  0  0
  1  4  1  0  0  0  0
  1  3  1  0  0  0  0
  2  1  1  0  0  0  0
  4 13  1  0  0  0  0
  5  4  1  0  0  0  0
  5  9  1  0  0  0  0
  6  5  1  0  0  0  0
  7  8  1  0  0  0  0
  7  1  1  0  0  0  0
  9 11  1  0  0  0  0
 10  9  1  0  0  0  0
 11 12  1  0  0  0  0
 13 11  2  0  0  0  0
 13 14  1  0  0  0  0
 15  8  2  0  0  0  0
 16 15  1  0  0  0  0
 17 19  2  0  0  0  0
 17 15  1  0  0  0  0
 18 17  1  0  0  0  0
 19  7  1  0  0  0  0
 20 19  1  0  0  0  0
 21  1  1  0  0  0  0
 22 29  1  0  0  0  0
 23 22  1  0  0  0  0
 23 25  1  0  0  0  0
 24 23  1  0  0  0  0
 25 27  1  0  0  0  0
 26 25  1  0  0  0  0
 27 28  1  0  0  0  0
 29 27  2  0  0  0  0
 29 30  1  0  0  0  0
M  END
$$$$
