CSD_code = XAVNOZ | q = 0 | S = 0 | Stoichiometry = C28H34Cl2N4NiO | MND = 6
 OpenBabel04212202113D

 70 74  0  0  1  0  0  0  0  0999 V2000
    0.1673    4.0692    8.3045 Ni  0  0  0  0  0  0  0  0  0  0  0  0
    1.8985    3.0214    9.0818 Cl  0  0  0  0  0  0  0  0  0  0  0  0
   -1.0759    3.4485    9.8070 Cl  0  0  0  0  0  0  0  0  0  0  0  0
    1.2549    4.5952    6.8964 N   0  0  0  0  0  0  0  0  0  0  0  0
   -1.5879    5.3328    7.6058 O   0  0  0  0  0  0  0  0  0  0  0  0
   -2.0990    4.8479    8.2825 H   0  0  0  0  0  0  0  0  0  0  0  0
    2.7908    7.2552    8.8477 N   0  0  0  0  0  0  0  0  0  0  0  0
    3.6642    7.5597    8.4537 H   0  0  0  0  0  0  0  0  0  0  0  0
   -1.3820    1.5615    6.7402 C   0  0  0  0  0  0  0  0  0  0  0  0
   -0.4815    2.6301    6.6360 N   0  0  0  0  0  0  0  0  0  0  0  0
    0.9351    6.0626    9.1311 N   0  0  0  0  0  0  0  0  0  0  0  0
    1.2824    3.8885    5.7583 C   0  0  0  0  0  0  0  0  0  0  0  0
    2.0522    5.6637    7.0405 C   0  0  0  0  0  0  0  0  0  0  0  0
   -2.7181    1.7919    6.3834 C   0  0  0  0  0  0  0  0  0  0  0  0
   -0.9815    0.3161    7.2469 C   0  0  0  0  0  0  0  0  0  0  0  0
    0.3910    2.7222    5.7069 C   0  0  0  0  0  0  0  0  0  0  0  0
   -3.1414    3.1391    5.8466 C   0  0  0  0  0  0  0  0  0  0  0  0
   -2.3226    3.8440    6.0163 H   0  0  0  0  0  0  0  0  0  0  0  0
    2.3150    7.5694   10.0963 C   0  0  0  0  0  0  0  0  0  0  0  0
    0.8529    7.7333   12.4061 C   0  0  0  0  0  0  0  0  0  0  0  0
    0.3124    7.8221   13.3363 H   0  0  0  0  0  0  0  0  0  0  0  0
    1.1351    6.8060   10.2553 C   0  0  0  0  0  0  0  0  0  0  0  0
    2.9563    5.3498    4.8517 C   0  0  0  0  0  0  0  0  0  0  0  0
    3.6198    5.6413    4.0518 H   0  0  0  0  0  0  0  0  0  0  0  0
    0.3887    6.8834   11.4292 C   0  0  0  0  0  0  0  0  0  0  0  0
   -0.4933    6.2766   11.5530 H   0  0  0  0  0  0  0  0  0  0  0  0
   -1.9356   -0.6852    7.3605 C   0  0  0  0  0  0  0  0  0  0  0  0
   -1.6447   -1.6463    7.7557 H   0  0  0  0  0  0  0  0  0  0  0  0
    1.9352    6.3306    8.3199 C   0  0  2  0  0  3  0  0  0  0  0  0
   -3.6314    0.7565    6.4946 C   0  0  0  0  0  0  0  0  0  0  0  0
   -4.6576    0.9176    6.2021 H   0  0  0  0  0  0  0  0  0  0  0  0
    2.9188    6.0735    6.0309 C   0  0  0  0  0  0  0  0  0  0  0  0
    3.5444    6.9420    6.1657 H   0  0  0  0  0  0  0  0  0  0  0  0
    0.5487    1.7370    4.5875 C   0  0  0  0  0  0  0  0  0  0  0  0
   -0.1715    0.9302    4.7016 H   0  0  0  0  0  0  0  0  0  0  0  0
    1.5546    1.3201    4.5897 H   0  0  0  0  0  0  0  0  0  0  0  0
    0.3788    2.2265    3.6293 H   0  0  0  0  0  0  0  0  0  0  0  0
   -4.3745    3.6662    6.5828 C   0  0  0  0  0  0  0  0  0  0  0  0
   -4.2247    3.6006    7.6580 H   0  0  0  0  0  0  0  0  0  0  0  0
   -5.2634    3.0956    6.3252 H   0  0  0  0  0  0  0  0  0  0  0  0
   -4.5527    4.7058    6.3150 H   0  0  0  0  0  0  0  0  0  0  0  0
    4.0447    9.2177   10.9002 C   0  0  0  0  0  0  0  0  0  0  0  0
    4.2396    9.8372   11.7711 H   0  0  0  0  0  0  0  0  0  0  0  0
    3.9687    9.8646   10.0257 H   0  0  0  0  0  0  0  0  0  0  0  0
    4.8942    8.5497   10.7561 H   0  0  0  0  0  0  0  0  0  0  0  0
    2.1347    4.2443    4.7139 C   0  0  0  0  0  0  0  0  0  0  0  0
    2.1545    3.6657    3.8055 H   0  0  0  0  0  0  0  0  0  0  0  0
    0.4256    0.0652    7.7334 C   0  0  0  0  0  0  0  0  0  0  0  0
    1.0439    0.9443    7.5342 H   0  0  0  0  0  0  0  0  0  0  0  0
   -3.2457   -0.4800    6.9762 C   0  0  0  0  0  0  0  0  0  0  0  0
   -3.9676   -1.2791    7.0605 H   0  0  0  0  0  0  0  0  0  0  0  0
    2.7844    8.4291   11.0864 C   0  0  0  0  0  0  0  0  0  0  0  0
    2.0190    8.4886   12.2363 C   0  0  0  0  0  0  0  0  0  0  0  0
    2.3381    9.1371   13.0393 H   0  0  0  0  0  0  0  0  0  0  0  0
    0.4106   -0.1361    9.2505 C   0  0  0  0  0  0  0  0  0  0  0  0
   -0.0407    0.7273    9.7316 H   0  0  0  0  0  0  0  0  0  0  0  0
    1.4280   -0.2358    9.6199 H   0  0  0  0  0  0  0  0  0  0  0  0
   -0.1560   -1.0229    9.5254 H   0  0  0  0  0  0  0  0  0  0  0  0
   -1.8159    6.7132    7.7740 C   0  0  0  0  0  0  0  0  0  0  0  0
   -2.8706    6.9475    7.5928 H   0  0  0  0  0  0  0  0  0  0  0  0
   -1.2061    7.2387    7.0384 H   0  0  0  0  0  0  0  0  0  0  0  0
   -1.5373    7.0547    8.7741 H   0  0  0  0  0  0  0  0  0  0  0  0
    1.0623   -1.1364    7.0320 C   0  0  0  0  0  0  0  0  0  0  0  0
    1.0282   -1.0227    5.9496 H   0  0  0  0  0  0  0  0  0  0  0  0
    0.5496   -2.0591    7.2929 H   0  0  0  0  0  0  0  0  0  0  0  0
    2.1023   -1.2292    7.3365 H   0  0  0  0  0  0  0  0  0  0  0  0
   -3.4020    3.0548    4.3405 C   0  0  0  0  0  0  0  0  0  0  0  0
   -2.5107    2.7165    3.8154 H   0  0  0  0  0  0  0  0  0  0  0  0
   -3.6828    4.0310    3.9501 H   0  0  0  0  0  0  0  0  0  0  0  0
   -4.2075    2.3545    4.1296 H   0  0  0  0  0  0  0  0  0  0  0  0
  1  2  1  0  0  0  0
  1 11  1  0  0  0  0
  1  3  1  0  0  0  0
  4 13  1  0  0  0  0
  4  1  1  0  0  0  0
  5 59  1  0  0  0  0
  5  6  1  0  0  0  0
  7 19  1  0  0  0  0
  8  7  1  0  0  0  0
  9 15  1  0  0  0  0
 10  9  1  0  0  0  0
 10  1  1  0  0  0  0
 11 22  1  0  0  0  0
 12  4  1  0  0  0  0
 14 30  1  0  0  0  0
 14  9  2  0  0  0  0
 15 27  2  0  0  0  0
 15 48  1  0  0  0  0
 16 12  2  0  0  0  0
 16 10  1  0  0  0  0
 17 18  1  0  0  0  0
 17 14  1  0  0  0  0
 17 38  1  0  0  0  0
 19 22  2  0  0  0  0
 19 52  1  0  0  0  0
 20 21  1  0  0  0  0
 22 25  1  0  0  0  0
 23 32  1  0  0  0  0
 24 23  1  0  0  0  0
 25 26  1  0  0  0  0
 25 20  2  0  0  0  0
 27 28  1  0  0  0  0
 29 13  1  1  0  0  0
 29  7  1  0  0  0  0
 29 11  1  0  0  0  0
 30 50  2  0  0  0  0
 31 30  1  0  0  0  0
 32 33  1  0  0  0  0
 32 13  2  0  0  0  0
 34 36  1  0  0  0  0
 34 35  1  0  0  0  0
 34 16  1  0  0  0  0
 37 34  1  0  0  0  0
 38 39  1  0  0  0  0
 40 38  1  0  0  0  0
 41 38  1  0  0  0  0
 42 52  1  0  0  0  0
 42 43  1  0  0  0  0
 44 42  1  0  0  0  0
 45 42  1  0  0  0  0
 46 23  2  0  0  0  0
 46 12  1  0  0  0  0
 47 46  1  0  0  0  0
 48 55  1  0  0  0  0
 49 48  1  0  0  0  0
 50 51  1  0  0  0  0
 50 27  1  0  0  0  0
 52 53  2  0  0  0  0
 53 20  1  0  0  0  0
 53 54  1  0  0  0  0
 55 58  1  0  0  0  0
 55 57  1  0  0  0  0
 55 56  1  0  0  0  0
 59 62  1  0  0  0  0
 60 59  1  0  0  0  0
 61 59  1  0  0  0  0
 63 65  1  0  0  0  0
 63 66  1  0  0  0  0
 63 48  1  0  0  0  0
 64 63  1  0  0  0  0
 67 17  1  0  0  0  0
 68 67  1  0  0  0  0
 69 67  1  0  0  0  0
 70 67  1  0  0  0  0
M  END
$$$$
