CSD_code = XAVVEY | q = 0 | S = 0 | Stoichiometry = C27H39AgBrN | MND = 2
 OpenBabel04212202113D

 69 73  0  0  1  0  0  0  0  0999 V2000
    6.4204   -1.4454    3.4306 Ag  0  0  0  0  0  0  0  0  0  0  0  0
    4.3860   -2.6875    3.6854 Br  0  0  0  0  0  0  0  0  0  0  0  0
    9.3327   -0.9628    3.6104 N   0  0  0  0  0  0  0  0  0  0  0  0
    6.3119    1.9745    2.8463 C   0  0  0  0  0  0  0  0  0  0  0  0
    5.9138    1.0321    3.2501 H   0  0  0  0  0  0  0  0  0  0  0  0
    5.7238    2.7884    3.2752 H   0  0  0  0  0  0  0  0  0  0  0  0
    9.3545   -3.3998    3.3171 C   0  0  0  0  0  0  0  0  0  0  0  0
    7.9741   -3.8114    1.2993 C   0  0  0  0  0  0  0  0  0  0  0  0
    7.1523   -3.2407    1.7492 H   0  0  0  0  0  0  0  0  0  0  0  0
    7.8338   -4.8584    1.5535 H   0  0  0  0  0  0  0  0  0  0  0  0
    7.9143   -3.7030    0.2188 H   0  0  0  0  0  0  0  0  0  0  0  0
    8.2666   -0.3419    3.2049 C   0  0  2  0  0  3  0  0  0  0  0  0
    9.2609   -2.2818    4.1594 C   0  0  0  0  0  0  0  0  0  0  0  0
   10.6212   -0.2400    3.4875 C   0  0  0  0  0  0  0  0  0  0  0  0
    7.0317    0.8551    0.7423 C   0  0  0  0  0  0  0  0  0  0  0  0
    6.9522    0.8557   -0.3472 H   0  0  0  0  0  0  0  0  0  0  0  0
    6.6577   -0.1127    1.1012 H   0  0  0  0  0  0  0  0  0  0  0  0
   10.1351    1.1693    3.1330 C   0  0  0  0  0  0  0  0  0  0  0  0
   10.7698    1.6135    2.3721 H   0  0  0  0  0  0  0  0  0  0  0  0
   10.1748    1.8040    4.0200 H   0  0  0  0  0  0  0  0  0  0  0  0
    8.6618    1.0202    2.6772 C   0  0  2  0  0  0  0  0  0  0  0  0
    6.1808    1.9799    1.3267 C   0  0  2  0  0  0  0  0  0  0  0  0
    5.1335    1.8222    1.0505 H   0  0  0  0  0  0  0  0  0  0  0  0
    9.3746   -4.6627    3.8958 C   0  0  0  0  0  0  0  0  0  0  0  0
    9.4524   -5.5333    3.2643 H   0  0  0  0  0  0  0  0  0  0  0  0
    9.3236   -3.2957    1.8087 C   0  0  0  0  0  0  0  0  0  0  0  0
    9.3986   -2.2456    1.5187 H   0  0  0  0  0  0  0  0  0  0  0  0
    9.0922   -3.7222    6.0709 C   0  0  0  0  0  0  0  0  0  0  0  0
    8.9497   -3.8611    7.1306 H   0  0  0  0  0  0  0  0  0  0  0  0
    7.7778    2.1519    3.2408 C   0  0  1  0  0  0  0  0  0  0  0  0
    7.8571    2.1502    4.3353 H   0  0  0  0  0  0  0  0  0  0  0  0
    8.4973    1.0500    1.1379 C   0  0  2  0  0  0  0  0  0  0  0  0
    9.0976    0.2451    0.6965 H   0  0  0  0  0  0  0  0  0  0  0  0
    9.0692   -2.4388    5.5411 C   0  0  0  0  0  0  0  0  0  0  0  0
    8.7382   -1.2817    6.4571 C   0  0  0  0  0  0  0  0  0  0  0  0
    8.8572   -0.3418    5.9109 H   0  0  0  0  0  0  0  0  0  0  0  0
    9.2770   -4.8254    5.2624 C   0  0  0  0  0  0  0  0  0  0  0  0
    9.3034   -5.8146    5.6935 H   0  0  0  0  0  0  0  0  0  0  0  0
   11.4228   -0.2769    4.7858 C   0  0  0  0  0  0  0  0  0  0  0  0
   12.3773    0.2211    4.6302 H   0  0  0  0  0  0  0  0  0  0  0  0
   11.6168   -1.3048    5.0859 H   0  0  0  0  0  0  0  0  0  0  0  0
   10.9047    0.2352    5.5909 H   0  0  0  0  0  0  0  0  0  0  0  0
   11.4877   -0.8422    2.3803 C   0  0  0  0  0  0  0  0  0  0  0  0
   12.4192   -0.2850    2.3103 H   0  0  0  0  0  0  0  0  0  0  0  0
   10.9946   -0.7959    1.4131 H   0  0  0  0  0  0  0  0  0  0  0  0
   11.7268   -1.8772    2.6098 H   0  0  0  0  0  0  0  0  0  0  0  0
    6.6604    3.3257    0.7847 C   0  0  0  0  0  0  0  0  0  0  0  0
    6.5564    3.3512   -0.3022 H   0  0  0  0  0  0  0  0  0  0  0  0
    6.0513    4.1324    1.1979 H   0  0  0  0  0  0  0  0  0  0  0  0
    7.2681   -1.3792    6.8761 C   0  0  0  0  0  0  0  0  0  0  0  0
    6.6168   -1.3595    5.9936 H   0  0  0  0  0  0  0  0  0  0  0  0
    7.0030   -0.5402    7.5154 H   0  0  0  0  0  0  0  0  0  0  0  0
    7.0762   -2.3030    7.4150 H   0  0  0  0  0  0  0  0  0  0  0  0
   10.4606   -4.0716    1.1392 C   0  0  0  0  0  0  0  0  0  0  0  0
   11.4265   -3.8126    1.5671 H   0  0  0  0  0  0  0  0  0  0  0  0
   10.4850   -3.8442    0.0758 H   0  0  0  0  0  0  0  0  0  0  0  0
   10.3184   -5.1432    1.2487 H   0  0  0  0  0  0  0  0  0  0  0  0
    8.9582    2.3938    0.5683 C   0  0  0  0  0  0  0  0  0  0  0  0
   10.0179    2.5689    0.7620 H   0  0  0  0  0  0  0  0  0  0  0  0
    8.8276    2.3801   -0.5164 H   0  0  0  0  0  0  0  0  0  0  0  0
    8.2592    3.4997    2.6959 C   0  0  0  0  0  0  0  0  0  0  0  0
    7.6533    4.2982    3.1299 H   0  0  0  0  0  0  0  0  0  0  0  0
    9.2975    3.6841    2.9782 H   0  0  0  0  0  0  0  0  0  0  0  0
    8.1240    3.5211    1.1736 C   0  0  2  0  0  0  0  0  0  0  0  0
    8.4816    4.4837    0.7909 H   0  0  0  0  0  0  0  0  0  0  0  0
    9.6313   -1.2446    7.7004 C   0  0  0  0  0  0  0  0  0  0  0  0
   10.6839   -1.3130    7.4356 H   0  0  0  0  0  0  0  0  0  0  0  0
    9.3963   -2.0657    8.3720 H   0  0  0  0  0  0  0  0  0  0  0  0
    9.4707   -0.3148    8.2423 H   0  0  0  0  0  0  0  0  0  0  0  0
  1  2  1  0  0  0  0
  3 13  1  0  0  0  0
  4 30  1  0  0  0  0
  4  5  1  0  0  0  0
  4  6  1  0  0  0  0
  7 24  2  0  0  0  0
  7 13  1  0  0  0  0
  8 10  1  0  0  0  0
  8  9  1  0  0  0  0
  8 26  1  0  0  0  0
 11  8  1  0  0  0  0
 12  1  1  1  0  0  0
 12  3  1  0  0  0  0
 13 34  2  0  0  0  0
 14  3  1  0  0  0  0
 14 39  1  0  0  0  0
 15 17  1  0  0  0  0
 15 32  1  0  0  0  0
 15 22  1  0  0  0  0
 16 15  1  0  0  0  0
 18 14  1  0  0  0  0
 18 20  1  0  0  0  0
 19 18  1  0  0  0  0
 21 18  1  1  0  0  0
 21 12  1  0  0  0  0
 21 30  1  0  0  0  0
 22 23  1  6  0  0  0
 22  4  1  0  0  0  0
 24 37  1  0  0  0  0
 25 24  1  0  0  0  0
 26  7  1  0  0  0  0
 27 26  1  0  0  0  0
 28 29  1  0  0  0  0
 30 31  1  1  0  0  0
 32 33  1  6  0  0  0
 32 21  1  0  0  0  0
 34 28  1  0  0  0  0
 34 35  1  0  0  0  0
 35 50  1  0  0  0  0
 35 66  1  0  0  0  0
 36 35  1  0  0  0  0
 37 38  1  0  0  0  0
 37 28  2  0  0  0  0
 39 41  1  0  0  0  0
 39 42  1  0  0  0  0
 40 39  1  0  0  0  0
 43 46  1  0  0  0  0
 43 14  1  0  0  0  0
 44 43  1  0  0  0  0
 45 43  1  0  0  0  0
 47 64  1  0  0  0  0
 47 49  1  0  0  0  0
 47 22  1  0  0  0  0
 48 47  1  0  0  0  0
 50 53  1  0  0  0  0
 50 52  1  0  0  0  0
 51 50  1  0  0  0  0
 54 57  1  0  0  0  0
 54 55  1  0  0  0  0
 54 26  1  0  0  0  0
 56 54  1  0  0  0  0
 58 59  1  0  0  0  0
 58 32  1  0  0  0  0
 58 64  1  0  0  0  0
 60 58  1  0  0  0  0
 61 63  1  0  0  0  0
 61 62  1  0  0  0  0
 61 30  1  0  0  0  0
 64 65  1  6  0  0  0
 64 61  1  0  0  0  0
 66 69  1  0  0  0  0
 66 68  1  0  0  0  0
 67 66  1  0  0  0  0
M  END
$$$$
