CSD_code = XAVVIC | q = 0 | S = 0 | Stoichiometry = C27H39AgClN | MND = 2
 OpenBabel04212202113D

 69 73  0  0  1  0  0  0  0  0999 V2000
   14.0747    2.4880    8.6243 Ag  0  0  0  0  0  0  0  0  0  0  0  0
   16.2962    2.0741    8.6904 Cl  0  0  0  0  0  0  0  0  0  0  0  0
   11.4782    3.5238    9.5748 N   0  0  0  0  0  0  0  0  0  0  0  0
   10.0291    3.8310    9.5324 C   0  0  0  0  0  0  0  0  0  0  0  0
   12.2809    3.8792   10.7043 C   0  0  0  0  0  0  0  0  0  0  0  0
   11.9784    2.8900    8.5559 C   0  0  1  0  0  3  0  0  0  0  0  0
   10.8735    2.6227    7.5540 C   0  0  2  0  0  0  0  0  0  0  0  0
    9.7908    5.3242    9.3009 C   0  0  0  0  0  0  0  0  0  0  0  0
    8.7207    5.5139    9.2562 H   0  0  0  0  0  0  0  0  0  0  0  0
   10.2323    5.6600    8.3666 H   0  0  0  0  0  0  0  0  0  0  0  0
   10.2051    5.9045   10.1205 H   0  0  0  0  0  0  0  0  0  0  0  0
   10.8460    1.1509    7.0894 C   0  0  1  0  0  0  0  0  0  0  0  0
   10.7152    0.5065    7.9676 H   0  0  0  0  0  0  0  0  0  0  0  0
   11.0842    3.4860    6.2862 C   0  0  2  0  0  0  0  0  0  0  0  0
   11.1303    4.5429    6.5750 H   0  0  0  0  0  0  0  0  0  0  0  0
    9.6771    0.9406    6.1219 C   0  0  0  0  0  0  0  0  0  0  0  0
    9.6402   -0.1109    5.8290 H   0  0  0  0  0  0  0  0  0  0  0  0
    8.7265    1.1818    6.6011 H   0  0  0  0  0  0  0  0  0  0  0  0
    9.9358    3.2820    5.2941 C   0  0  0  0  0  0  0  0  0  0  0  0
    8.9798    3.5946    5.7174 H   0  0  0  0  0  0  0  0  0  0  0  0
   10.1161    3.9036    4.4140 H   0  0  0  0  0  0  0  0  0  0  0  0
   12.3851    3.1037    5.5757 C   0  0  0  0  0  0  0  0  0  0  0  0
   12.5162    3.7462    4.7021 H   0  0  0  0  0  0  0  0  0  0  0  0
   13.2490    3.2583    6.2378 H   0  0  0  0  0  0  0  0  0  0  0  0
    9.5842    2.9910    8.3313 C   0  0  0  0  0  0  0  0  0  0  0  0
    8.8691    3.5391    7.7254 H   0  0  0  0  0  0  0  0  0  0  0  0
    9.1013    2.0778    8.6827 H   0  0  0  0  0  0  0  0  0  0  0  0
    9.8670    1.8131    4.8814 C   0  0  1  0  0  0  0  0  0  0  0  0
    9.0209    1.6655    4.2007 H   0  0  0  0  0  0  0  0  0  0  0  0
   12.4116    2.9622   11.7596 C   0  0  0  0  0  0  0  0  0  0  0  0
   12.9336    5.1197   10.7470 C   0  0  0  0  0  0  0  0  0  0  0  0
   12.1360    0.7581    6.3699 C   0  0  0  0  0  0  0  0  0  0  0  0
   13.0016    0.8604    7.0426 H   0  0  0  0  0  0  0  0  0  0  0  0
   12.0724   -0.2897    6.0695 H   0  0  0  0  0  0  0  0  0  0  0  0
   12.3320    1.6409    5.1414 C   0  0  1  0  0  0  0  0  0  0  0  0
   13.2724    1.3759    4.6486 H   0  0  0  0  0  0  0  0  0  0  0  0
   11.1659    1.4296    4.1765 C   0  0  0  0  0  0  0  0  0  0  0  0
   11.1272    0.3848    3.8612 H   0  0  0  0  0  0  0  0  0  0  0  0
   11.3009    2.0434    3.2833 H   0  0  0  0  0  0  0  0  0  0  0  0
   13.0271    6.0370    9.5488 C   0  0  0  0  0  0  0  0  0  0  0  0
   12.3676    5.6675    8.7609 H   0  0  0  0  0  0  0  0  0  0  0  0
   13.6109    5.4693   11.9088 C   0  0  0  0  0  0  0  0  0  0  0  0
   14.1133    6.4220   11.9628 H   0  0  0  0  0  0  0  0  0  0  0  0
   11.9232    1.5342   11.6607 C   0  0  0  0  0  0  0  0  0  0  0  0
   11.3005    1.4261   10.7686 H   0  0  0  0  0  0  0  0  0  0  0  0
    9.3211    3.4343   10.8253 C   0  0  0  0  0  0  0  0  0  0  0  0
    9.3528    2.3611   10.9853 H   0  0  0  0  0  0  0  0  0  0  0  0
    8.2776    3.7356   10.7676 H   0  0  0  0  0  0  0  0  0  0  0  0
    9.7759    3.9328   11.6788 H   0  0  0  0  0  0  0  0  0  0  0  0
   13.6690    4.6125   12.9887 C   0  0  0  0  0  0  0  0  0  0  0  0
   14.1913    4.9071   13.8863 H   0  0  0  0  0  0  0  0  0  0  0  0
   14.4577    5.9913    9.0021 C   0  0  0  0  0  0  0  0  0  0  0  0
   14.7341    4.9620    8.7397 H   0  0  0  0  0  0  0  0  0  0  0  0
   15.1684    6.3522    9.7407 H   0  0  0  0  0  0  0  0  0  0  0  0
   14.5378    6.6086    8.1103 H   0  0  0  0  0  0  0  0  0  0  0  0
   13.1022    3.3571   12.8976 C   0  0  0  0  0  0  0  0  0  0  0  0
   13.2088    2.6681   13.7201 H   0  0  0  0  0  0  0  0  0  0  0  0
   12.6420    7.4823    9.8756 C   0  0  0  0  0  0  0  0  0  0  0  0
   11.6834    7.5346   10.3871 H   0  0  0  0  0  0  0  0  0  0  0  0
   12.5722    8.0610    8.9573 H   0  0  0  0  0  0  0  0  0  0  0  0
   13.3894    7.9511   10.5097 H   0  0  0  0  0  0  0  0  0  0  0  0
   11.1093    1.1012   12.8833 C   0  0  0  0  0  0  0  0  0  0  0  0
   10.6455    0.1355   12.6934 H   0  0  0  0  0  0  0  0  0  0  0  0
   10.3277    1.8209   13.1152 H   0  0  0  0  0  0  0  0  0  0  0  0
   11.7456    0.9972   13.7578 H   0  0  0  0  0  0  0  0  0  0  0  0
   13.1317    0.6090   11.4852 C   0  0  0  0  0  0  0  0  0  0  0  0
   13.7060    0.8947   10.5940 H   0  0  0  0  0  0  0  0  0  0  0  0
   12.8019   -0.4207   11.3677 H   0  0  0  0  0  0  0  0  0  0  0  0
   13.7932    0.6678   12.3453 H   0  0  0  0  0  0  0  0  0  0  0  0
  1  2  1  0  0  0  0
  3  5  1  0  0  0  0
  4  3  1  0  0  0  0
  4 46  1  0  0  0  0
  5 31  2  0  0  0  0
  5 30  1  0  0  0  0
  6  1  1  6  0  0  0
  6  3  1  0  0  0  0
  7 25  1  1  0  0  0
  7  6  1  0  0  0  0
  8  4  1  0  0  0  0
  8 11  1  0  0  0  0
  9  8  1  0  0  0  0
 10  8  1  0  0  0  0
 12  7  1  0  0  0  0
 12 13  1  1  0  0  0
 14 15  1  1  0  0  0
 14  7  1  0  0  0  0
 16 18  1  0  0  0  0
 16 12  1  0  0  0  0
 17 16  1  0  0  0  0
 19 20  1  0  0  0  0
 19 14  1  0  0  0  0
 21 19  1  0  0  0  0
 22 24  1  0  0  0  0
 22 14  1  0  0  0  0
 23 22  1  0  0  0  0
 25 27  1  0  0  0  0
 25  4  1  0  0  0  0
 26 25  1  0  0  0  0
 28 29  1  6  0  0  0
 28 19  1  0  0  0  0
 28 16  1  0  0  0  0
 30 56  2  0  0  0  0
 31 42  1  0  0  0  0
 32 33  1  0  0  0  0
 32 12  1  0  0  0  0
 34 32  1  0  0  0  0
 35 36  1  6  0  0  0
 35 22  1  0  0  0  0
 35 32  1  0  0  0  0
 37 28  1  0  0  0  0
 37 35  1  0  0  0  0
 38 37  1  0  0  0  0
 39 37  1  0  0  0  0
 40 58  1  0  0  0  0
 40 31  1  0  0  0  0
 41 40  1  0  0  0  0
 42 43  1  0  0  0  0
 42 50  2  0  0  0  0
 44 30  1  0  0  0  0
 44 62  1  0  0  0  0
 45 44  1  0  0  0  0
 46 47  1  0  0  0  0
 46 49  1  0  0  0  0
 48 46  1  0  0  0  0
 50 51  1  0  0  0  0
 52 40  1  0  0  0  0
 52 54  1  0  0  0  0
 53 52  1  0  0  0  0
 55 52  1  0  0  0  0
 56 50  1  0  0  0  0
 56 57  1  0  0  0  0
 58 59  1  0  0  0  0
 58 61  1  0  0  0  0
 60 58  1  0  0  0  0
 62 64  1  0  0  0  0
 62 65  1  0  0  0  0
 63 62  1  0  0  0  0
 66 44  1  0  0  0  0
 66 69  1  0  0  0  0
 67 66  1  0  0  0  0
 68 66  1  0  0  0  0
M  END
$$$$
