CSD_code = XAWCED | q = 0 | S = 0 | Stoichiometry = C17H11I2N3Pt | MND = 6
 OpenBabel04212202113D

 34 38  0  0  1  0  0  0  0  0999 V2000
    0.7843    2.9468    2.0236 Pt  0  0  0  0  0  0  0  0  0  0  0  0
   -0.2213    5.4269    2.1412 I   0  0  0  0  0  0  0  0  0  0  0  0
    1.7990    0.4717    1.8761 I   0  0  0  0  0  0  0  0  0  0  0  0
    0.7811    2.8357    4.0599 N   0  0  0  0  0  0  0  0  0  0  0  0
   -1.2534    2.0905    2.5401 N   0  0  0  0  0  0  0  0  0  0  0  0
    0.6233    3.0467   -1.0808 N   0  0  0  0  0  0  0  0  0  0  0  0
    2.6416    3.6840    2.3625 C   0  0  0  0  0  0  0  0  0  0  0  0
    3.5614    4.1128    1.4313 C   0  0  0  0  0  0  0  0  0  0  0  0
    4.7941    4.5862    1.8607 C   0  0  0  0  0  0  0  0  0  0  0  0
    5.0961    4.6260    3.2125 C   0  0  0  0  0  0  0  0  0  0  0  0
    4.1753    4.1975    4.1475 C   0  0  0  0  0  0  0  0  0  0  0  0
    2.9289    3.7185    3.7398 C   0  0  0  0  0  0  0  0  0  0  0  0
    1.8986    3.2482    4.6644 C   0  0  1  0  0  3  0  0  0  0  0  0
    1.9797    3.1966    6.0572 C   0  0  0  0  0  0  0  0  0  0  0  0
    0.8954    2.7159    6.7681 C   0  0  0  0  0  0  0  0  0  0  0  0
   -0.2502    2.2957    6.1064 C   0  0  0  0  0  0  0  0  0  0  0  0
   -0.2807    2.3697    4.7167 C   0  0  0  0  0  0  0  0  0  0  0  0
   -1.4186    1.9660    3.8692 C   0  0  1  0  0  3  0  0  0  0  0  0
   -2.6157    1.4798    4.3889 C   0  0  0  0  0  0  0  0  0  0  0  0
   -3.6358    1.1224    3.5242 C   0  0  0  0  0  0  0  0  0  0  0  0
   -3.4425    1.2560    2.1587 C   0  0  0  0  0  0  0  0  0  0  0  0
   -2.2266    1.7484    1.7128 C   0  0  0  0  0  0  0  0  0  0  0  0
    0.7267    3.0284    0.0587 C   0  0  0  0  0  0  0  0  0  0  0  0
    3.3309    4.0829    0.3745 H   0  0  0  0  0  0  0  0  0  0  0  0
    5.5152    4.9228    1.1318 H   0  0  0  0  0  0  0  0  0  0  0  0
    6.0569    4.9941    3.5384 H   0  0  0  0  0  0  0  0  0  0  0  0
    4.4206    4.2329    5.1979 H   0  0  0  0  0  0  0  0  0  0  0  0
    2.8694    3.5239    6.5683 H   0  0  0  0  0  0  0  0  0  0  0  0
    0.9373    2.6657    7.8455 H   0  0  0  0  0  0  0  0  0  0  0  0
   -1.0908    1.9207    6.6652 H   0  0  0  0  0  0  0  0  0  0  0  0
   -2.7509    1.3832    5.4534 H   0  0  0  0  0  0  0  0  0  0  0  0
   -4.5689    0.7449    3.9140 H   0  0  0  0  0  0  0  0  0  0  0  0
   -4.2102    0.9885    1.4516 H   0  0  0  0  0  0  0  0  0  0  0  0
   -2.0215    1.8749    0.6564 H   0  0  0  0  0  0  0  0  0  0  0  0
  1  2  1  0  0  0  0
  1  7  1  0  0  0  0
  1  5  1  0  0  0  0
  1  4  1  0  0  0  0
  3  1  1  0  0  0  0
  4 13  1  0  0  0  0
  4 17  1  0  0  0  0
  5 18  1  0  0  0  0
  6 23  3  0  0  0  0
  7 12  1  0  0  0  0
  8  9  1  0  0  0  0
  8  7  2  0  0  0  0
  9 10  2  0  0  0  0
 10 26  1  0  0  0  0
 10 11  1  0  0  0  0
 11 27  1  0  0  0  0
 12 11  2  0  0  0  0
 13 12  1  1  0  0  0
 13 14  1  0  0  0  0
 14 28  1  0  0  0  0
 14 15  2  0  0  0  0
 15 29  1  0  0  0  0
 16 30  1  0  0  0  0
 16 15  1  0  0  0  0
 17 16  2  0  0  0  0
 18 19  1  1  0  0  0
 18 17  1  0  0  0  0
 19 31  1  0  0  0  0
 20 32  1  0  0  0  0
 20 19  2  0  0  0  0
 21 20  1  0  0  0  0
 22 21  2  0  0  0  0
 22  5  1  0  0  0  0
 23  1  1  0  0  0  0
 24  8  1  0  0  0  0
 25  9  1  0  0  0  0
 33 21  1  0  0  0  0
 34 22  1  0  0  0  0
M  END
$$$$
