CSD_code = XAWJEL | q = 0 | S = 0 | Stoichiometry = C11H20ClNTi | MND = 9
 OpenBabel04212202113D

 34 35  0  0  1  0  0  0  0  0999 V2000
    6.2467    4.9694   13.2415 Ti  0  0  0  0  0  0  0  0  0  0  0  0
    5.9154    4.9797   15.4067 Cl  0  0  0  0  0  0  0  0  0  0  0  0
    8.5964    3.9478   14.3477 N   0  0  0  0  0  0  0  0  0  0  0  0
    4.1731    5.1610   13.0373 C   0  0  0  0  0  0  0  0  0  0  0  0
    3.8151    5.1242   12.0043 H   0  0  0  0  0  0  0  0  0  0  0  0
    3.8830    6.1278   13.4668 H   0  0  0  0  0  0  0  0  0  0  0  0
    3.6512    4.3799   13.6030 H   0  0  0  0  0  0  0  0  0  0  0  0
    6.0519    3.0280   12.5248 C   0  0  0  0  0  0  0  0  0  0  0  0
    5.6935    2.3599   13.3211 H   0  0  0  0  0  0  0  0  0  0  0  0
    6.9918    2.6153   12.1382 H   0  0  0  0  0  0  0  0  0  0  0  0
    5.3257    2.9662   11.7041 H   0  0  0  0  0  0  0  0  0  0  0  0
    8.2592    5.8678   12.3181 C   0  0  2  0  0  3  0  0  0  0  0  0
    7.4031    5.5166   11.2491 C   0  0  2  0  0  0  0  0  0  0  0  0
    7.6520    4.8453   10.4361 H   0  0  0  0  0  0  0  0  0  0  0  0
    6.2731    6.3600   11.2988 C   0  0  0  0  0  0  0  0  0  0  0  0
    5.5002    6.4230   10.5443 H   0  0  0  0  0  0  0  0  0  0  0  0
    6.4122    7.2104   12.4133 C   0  0  0  0  0  0  0  0  0  0  0  0
    5.7573    8.0347   12.6700 H   0  0  0  0  0  0  0  0  0  0  0  0
    7.6314    6.9000   13.0482 C   0  0  1  0  0  0  0  0  0  0  0  0
    8.0692    7.4642   13.8638 H   0  0  0  0  0  0  0  0  0  0  0  0
    9.6324    5.3087   12.5598 C   0  0  0  0  0  0  0  0  0  0  0  0
   10.2120    6.0086   13.1662 H   0  0  0  0  0  0  0  0  0  0  0  0
   10.1555    5.1875   11.6067 H   0  0  0  0  0  0  0  0  0  0  0  0
    9.5644    3.9387   13.2518 C   0  0  0  0  0  0  0  0  0  0  0  0
    9.2399    3.1927   12.5193 H   0  0  0  0  0  0  0  0  0  0  0  0
   10.5697    3.6509   13.6095 H   0  0  0  0  0  0  0  0  0  0  0  0
    8.3879    2.5950   14.8546 C   0  0  0  0  0  0  0  0  0  0  0  0
    9.2978    2.1979   15.3312 H   0  0  0  0  0  0  0  0  0  0  0  0
    8.1049    1.9237   14.0460 H   0  0  0  0  0  0  0  0  0  0  0  0
    7.5842    2.6159   15.5914 H   0  0  0  0  0  0  0  0  0  0  0  0
    9.0985    4.7619   15.4522 C   0  0  0  0  0  0  0  0  0  0  0  0
   10.0722    4.3899   15.8089 H   0  0  0  0  0  0  0  0  0  0  0  0
    8.3870    4.7266   16.2751 H   0  0  0  0  0  0  0  0  0  0  0  0
    9.2119    5.7985   15.1449 H   0  0  0  0  0  0  0  0  0  0  0  0
  1  2  1  0  0  0  0
  3 27  1  0  0  0  0
  3 31  1  0  0  0  0
  4  1  1  0  0  0  0
  4  6  1  0  0  0  0
  4  7  1  0  0  0  0
  5  4  1  0  0  0  0
  8  1  1  0  0  0  0
  8  9  1  0  0  0  0
 10  8  1  0  0  0  0
 11  8  1  0  0  0  0
 12 21  1  6  0  0  0
 12 19  1  0  0  0  0
 13 14  1  6  0  0  0
 13 15  1  0  0  0  0
 13 12  1  0  0  0  0
 13  1  1  0  0  0  0
 15 17  2  0  0  0  0
 16 15  1  0  0  0  0
 17 18  1  0  0  0  0
 17 19  1  0  0  0  0
 19  1  1  0  0  0  0
 19 20  1  1  0  0  0
 21 22  1  0  0  0  0
 21 24  1  0  0  0  0
 23 21  1  0  0  0  0
 24 26  1  0  0  0  0
 24  3  1  0  0  0  0
 25 24  1  0  0  0  0
 27 28  1  0  0  0  0
 27 30  1  0  0  0  0
 29 27  1  0  0  0  0
 31 32  1  0  0  0  0
 31 33  1  0  0  0  0
 34 31  1  0  0  0  0
M  END
$$$$
