CSD_code = XAWLIQ | q = 0 | S = 0 | Stoichiometry = C18H22ClNOW | MND = 9
 OpenBabel04212202113D

 44 45  0  0  1  0  0  0  0  0999 V2000
    4.5287    3.7618    1.1153 W   0  0  1  0  0  0  0  0  0  0  0  0
    6.0492    5.4961    0.8677 Cl  0  0  0  0  0  0  0  0  0  0  0  0
    5.0852    2.5286   -1.5051 O   0  0  0  0  0  1  0  0  0  0  0  0
    4.8384    3.1050   -0.4940 N   0  0  0  0  0  2  0  0  0  0  0  0
    3.6516    2.0434    2.4576 C   0  0  0  0  0  0  0  0  0  0  0  0
    3.2416    3.2817    3.0464 C   0  0  0  0  0  0  0  0  0  0  0  0
    4.4137    4.0003    3.4392 C   0  0  0  0  0  0  0  0  0  0  0  0
    5.5468    3.2069    3.1318 C   0  0  0  0  0  0  0  0  0  0  0  0
    5.0921    2.0056    2.4870 C   0  0  2  0  0  0  0  0  0  0  0  0
    2.7737    0.8660    2.1453 C   0  0  0  0  0  0  0  0  0  0  0  0
    1.8402    3.6503    3.4320 C   0  0  0  0  0  0  0  0  0  0  0  0
    4.4433    5.3041    4.1800 C   0  0  0  0  0  0  0  0  0  0  0  0
    6.9663    3.5115    3.5054 C   0  0  0  0  0  0  0  0  0  0  0  0
    5.9262    0.7971    2.1724 C   0  0  0  0  0  0  0  0  0  0  0  0
    2.6304    4.4917    0.4276 C   0  0  0  0  0  0  0  0  0  0  0  0
    2.5452    5.8220    0.3518 C   0  0  0  0  0  0  0  0  0  0  0  0
    1.4835    3.6471    0.0705 C   0  0  0  0  0  0  0  0  0  0  0  0
    1.6658    2.4297   -0.5894 C   0  0  0  0  0  0  0  0  0  0  0  0
    0.5869    1.6224   -0.8975 C   0  0  0  0  0  0  0  0  0  0  0  0
   -0.6967    2.0011   -0.5384 C   0  0  0  0  0  0  0  0  0  0  0  0
   -0.8936    3.2028    0.1215 C   0  0  0  0  0  0  0  0  0  0  0  0
    0.1821    4.0183    0.4188 C   0  0  0  0  0  0  0  0  0  0  0  0
    2.7096    0.2106    3.0161 H   0  0  0  0  0  0  0  0  0  0  0  0
    3.1801    0.2915    1.3157 H   0  0  0  0  0  0  0  0  0  0  0  0
    1.7689    1.1828    1.8769 H   0  0  0  0  0  0  0  0  0  0  0  0
    1.1127    3.0837    2.8559 H   0  0  0  0  0  0  0  0  0  0  0  0
    1.6478    4.7107    3.2739 H   0  0  0  0  0  0  0  0  0  0  0  0
    1.6868    3.4318    4.4910 H   0  0  0  0  0  0  0  0  0  0  0  0
    3.4918    5.8247    4.0891 H   0  0  0  0  0  0  0  0  0  0  0  0
    4.6387    5.1336    5.2407 H   0  0  0  0  0  0  0  0  0  0  0  0
    5.2294    5.9536    3.7923 H   0  0  0  0  0  0  0  0  0  0  0  0
    7.1301    4.5848    3.5813 H   0  0  0  0  0  0  0  0  0  0  0  0
    7.1990    3.0594    4.4721 H   0  0  0  0  0  0  0  0  0  0  0  0
    7.6619    3.1123    2.7678 H   0  0  0  0  0  0  0  0  0  0  0  0
    5.5551    0.2953    1.2795 H   0  0  0  0  0  0  0  0  0  0  0  0
    5.8889    0.0885    3.0021 H   0  0  0  0  0  0  0  0  0  0  0  0
    6.9658    1.0709    2.0035 H   0  0  0  0  0  0  0  0  0  0  0  0
    3.3537    6.4787    0.6605 H   0  0  0  0  0  0  0  0  0  0  0  0
    1.6802    6.3270   -0.0640 H   0  0  0  0  0  0  0  0  0  0  0  0
    2.6625    2.1267   -0.8767 H   0  0  0  0  0  0  0  0  0  0  0  0
    0.7481    0.6894   -1.4174 H   0  0  0  0  0  0  0  0  0  0  0  0
   -1.5379    1.3650   -0.7710 H   0  0  0  0  0  0  0  0  0  0  0  0
   -1.8911    3.5063    0.4059 H   0  0  0  0  0  0  0  0  0  0  0  0
    0.0180    4.9525    0.9368 H   0  0  0  0  0  0  0  0  0  0  0  0
  1  2  1  1  0  0  0
  1  9  1  0  0  0  0
  3  4  1  0  0  0  0
  4  1  1  0  0  0  0
  5  9  1  0  0  0  0
  5  6  2  0  0  0  0
  6 11  1  0  0  0  0
  6  7  1  0  0  0  0
  7 12  1  0  0  0  0
  8  7  2  0  0  0  0
  8 13  1  0  0  0  0
  9 14  1  6  0  0  0
  9  8  1  0  0  0  0
 10  5  1  0  0  0  0
 10 23  1  0  0  0  0
 11 28  1  0  0  0  0
 12 30  1  0  0  0  0
 13 32  1  0  0  0  0
 13 33  1  0  0  0  0
 14 36  1  0  0  0  0
 15  1  1  0  0  0  0
 16 15  2  0  0  0  0
 16 38  1  0  0  0  0
 17 22  1  0  0  0  0
 17 15  1  0  0  0  0
 18 17  2  0  0  0  0
 19 18  1  0  0  0  0
 19 20  2  0  0  0  0
 20 21  1  0  0  0  0
 21 43  1  0  0  0  0
 21 22  2  0  0  0  0
 22 44  1  0  0  0  0
 24 10  1  0  0  0  0
 25 10  1  0  0  0  0
 26 11  1  0  0  0  0
 27 11  1  0  0  0  0
 29 12  1  0  0  0  0
 31 12  1  0  0  0  0
 34 13  1  0  0  0  0
 35 14  1  0  0  0  0
 37 14  1  0  0  0  0
 39 16  1  0  0  0  0
 40 18  1  0  0  0  0
 41 19  1  0  0  0  0
 42 20  1  0  0  0  0
M  END
$$$$
