CSD_code = XAWPOD | q = 0 | S = 0 | Stoichiometry = C15H12BrMnN2O5 | MND = 6
 OpenBabel04212202113D

 36 38  0  0  1  0  0  0  0  0999 V2000
    2.4155    6.1060    8.6177 Mn  0  0  0  0  0  0  0  0  0  0  0  0
    0.8360    7.6607    9.7129 Br  0  0  0  0  0  0  0  0  0  0  0  0
    2.4036    7.4615    7.0490 N   0  0  0  0  0  0  0  0  0  0  0  0
    3.8812    7.4631    9.1712 N   0  0  0  0  0  0  0  0  0  0  0  0
    1.2204    6.0930    5.7428 O   0  0  0  0  0  0  0  0  0  0  0  0
    4.6978    6.0953   10.7337 O   0  0  0  0  0  0  0  0  0  0  0  0
    1.6873    7.3345    5.9277 C   0  0  2  0  0  3  0  0  0  0  0  0
    1.4788    8.4021    5.0543 C   0  0  0  0  0  0  0  0  0  0  0  0
    0.8814    8.2807    4.1669 H   0  0  0  0  0  0  0  0  0  0  0  0
    2.0511    9.6238    5.3577 C   0  0  0  0  0  0  0  0  0  0  0  0
    1.8938   10.4707    4.7082 H   0  0  0  0  0  0  0  0  0  0  0  0
    2.8325    9.7462    6.4918 C   0  0  0  0  0  0  0  0  0  0  0  0
    3.2933   10.6880    6.7334 H   0  0  0  0  0  0  0  0  0  0  0  0
    2.9945    8.6397    7.3204 C   0  0  0  0  0  0  0  0  0  0  0  0
    0.3337    5.8230    4.6768 C   0  0  0  0  0  0  0  0  0  0  0  0
   -0.5543    6.4588    4.7275 H   0  0  0  0  0  0  0  0  0  0  0  0
    0.0401    4.7829    4.8050 H   0  0  0  0  0  0  0  0  0  0  0  0
    0.8276    5.9462    3.7084 H   0  0  0  0  0  0  0  0  0  0  0  0
    4.6869    7.3363   10.2302 C   0  0  1  0  0  3  0  0  0  0  0  0
    5.4365    8.4035   10.7253 C   0  0  0  0  0  0  0  0  0  0  0  0
    6.0629    8.2826   11.5926 H   0  0  0  0  0  0  0  0  0  0  0  0
    5.3520    9.6239   10.0808 C   0  0  0  0  0  0  0  0  0  0  0  0
    5.9095   10.4703   10.4504 H   0  0  0  0  0  0  0  0  0  0  0  0
    4.5573    9.7457    8.9559 C   0  0  0  0  0  0  0  0  0  0  0  0
    4.4925   10.6862    8.4373 H   0  0  0  0  0  0  0  0  0  0  0  0
    3.8325    8.6401    8.5208 C   0  0  0  0  0  0  0  0  0  0  0  0
    5.3962    5.8248   11.9314 C   0  0  0  0  0  0  0  0  0  0  0  0
    6.4748    5.9516   11.7997 H   0  0  0  0  0  0  0  0  0  0  0  0
    5.1785    4.7834   12.1609 H   0  0  0  0  0  0  0  0  0  0  0  0
    5.0422    6.4575   12.7497 H   0  0  0  0  0  0  0  0  0  0  0  0
    2.2920    4.4652   11.0417 O   0  0  0  0  0  1  0  0  0  0  0  0
    2.3954    5.1282   10.1085 C   0  0  0  0  0  2  0  0  0  0  0  0
    0.1087    4.4535    7.8892 O   0  0  0  0  0  1  0  0  0  0  0  0
    1.0155    5.1219    8.1175 C   0  0  0  0  0  2  0  0  0  0  0  0
    4.2366    4.1982    7.3603 O   0  0  0  0  0  1  0  0  0  0  0  0
    3.5378    4.9768    7.8415 C   0  0  0  0  0  2  0  0  0  0  0  0
  1  4  1  0  0  0  0
  1  2  1  0  0  0  0
  1 32  1  0  0  0  0
  3 14  1  0  0  0  0
  3  1  1  0  0  0  0
  4 19  1  0  0  0  0
  6 27  1  0  0  0  0
  7  5  1  6  0  0  0
  7  3  1  0  0  0  0
  8 10  2  0  0  0  0
  8  7  1  0  0  0  0
  9  8  1  0  0  0  0
 10 12  1  0  0  0  0
 11 10  1  0  0  0  0
 12 13  1  0  0  0  0
 12 14  2  0  0  0  0
 14 26  1  0  0  0  0
 15 16  1  0  0  0  0
 15 17  1  0  0  0  0
 15  5  1  0  0  0  0
 18 15  1  0  0  0  0
 19 20  1  0  0  0  0
 19  6  1  6  0  0  0
 20 21  1  0  0  0  0
 22 23  1  0  0  0  0
 22 20  2  0  0  0  0
 24 22  1  0  0  0  0
 25 24  1  0  0  0  0
 26 24  2  0  0  0  0
 26  4  1  0  0  0  0
 27 29  1  0  0  0  0
 27 30  1  0  0  0  0
 28 27  1  0  0  0  0
 32 31  1  0  0  0  0
 33 34  1  0  0  0  0
 34  1  1  0  0  0  0
 35 36  1  0  0  0  0
 36  1  1  0  0  0  0
M  END
$$$$
