CSD_code = XAWSOE | q = 0 | S = 0 | Stoichiometry = C22H31Cl2N3Zr | MND = 5
 OpenBabel04212202113D

 59 62  0  0  0  0  0  0  0  0999 V2000
    8.8111    2.7707    7.5543 Zr  0  0  0  0  0  0  0  0  0  0  0  0
    8.4919    4.5200    9.1220 Cl  0  0  0  0  0  0  0  0  0  0  0  0
    9.3276    4.1756    5.7530 Cl  0  0  0  0  0  0  0  0  0  0  0  0
   10.4661    1.7046    7.9714 N   0  0  0  0  0  0  0  0  0  0  0  0
    8.3139    1.5847    9.5163 N   0  0  0  0  0  4  0  0  0  0  0  0
    7.6270    2.0914   10.0790 H   0  0  0  0  0  0  0  0  0  0  0  0
    7.3944    1.4550    7.0062 N   0  0  0  0  0  0  0  0  0  0  0  0
   10.7141    1.1267    9.2779 C   0  0  0  0  0  0  0  0  0  0  0  0
   11.6786    1.4322    9.7040 H   0  0  0  0  0  0  0  0  0  0  0  0
   10.7536    0.0247    9.1794 H   0  0  0  0  0  0  0  0  0  0  0  0
    9.5763    1.5009   10.2547 C   0  0  0  0  0  0  0  0  0  0  0  0
    9.5231    0.7678   11.0755 H   0  0  0  0  0  0  0  0  0  0  0  0
    9.7667    2.4929   10.6797 H   0  0  0  0  0  0  0  0  0  0  0  0
    7.7493    0.3057    9.0832 C   0  0  0  0  0  0  0  0  0  0  0  0
    7.2837   -0.2497    9.9119 H   0  0  0  0  0  0  0  0  0  0  0  0
    8.5588   -0.2924    8.6543 H   0  0  0  0  0  0  0  0  0  0  0  0
    6.7331    0.6067    7.9757 C   0  0  0  0  0  0  0  0  0  0  0  0
    6.3763   -0.3359    7.5295 H   0  0  0  0  0  0  0  0  0  0  0  0
    5.8438    1.1060    8.4219 H   0  0  0  0  0  0  0  0  0  0  0  0
   11.5171    2.2839    7.2491 C   0  0  0  0  0  0  0  0  0  0  0  0
   11.6448    1.8863    5.8992 C   0  0  0  0  0  0  0  0  0  0  0  0
   12.6683    2.3919    5.1204 C   0  0  0  0  0  0  0  0  0  0  0  0
   12.7556    2.0759    4.0900 H   0  0  0  0  0  0  0  0  0  0  0  0
   13.5844    3.3019    5.6342 C   0  0  0  0  0  0  0  0  0  0  0  0
   13.4112    3.7433    6.9371 C   0  0  0  0  0  0  0  0  0  0  0  0
   14.0780    4.4997    7.3291 H   0  0  0  0  0  0  0  0  0  0  0  0
   12.3878    3.2729    7.7479 C   0  0  0  0  0  0  0  0  0  0  0  0
   10.6239    0.9350    5.3364 C   0  0  0  0  0  0  0  0  0  0  0  0
   10.4933    0.0849    6.0099 H   0  0  0  0  0  0  0  0  0  0  0  0
   10.9335    0.5766    4.3571 H   0  0  0  0  0  0  0  0  0  0  0  0
    9.6542    1.4472    5.2359 H   0  0  0  0  0  0  0  0  0  0  0  0
   14.6906    3.8453    4.7803 C   0  0  0  0  0  0  0  0  0  0  0  0
   14.3579    4.7508    4.2715 H   0  0  0  0  0  0  0  0  0  0  0  0
   14.9855    3.1227    4.0228 H   0  0  0  0  0  0  0  0  0  0  0  0
   15.5589    4.0985    5.3847 H   0  0  0  0  0  0  0  0  0  0  0  0
   12.1595    3.9093    9.0925 C   0  0  0  0  0  0  0  0  0  0  0  0
   12.5784    4.9141    9.0940 H   0  0  0  0  0  0  0  0  0  0  0  0
   12.6355    3.3547    9.9034 H   0  0  0  0  0  0  0  0  0  0  0  0
   11.0850    3.9823    9.2941 H   0  0  0  0  0  0  0  0  0  0  0  0
    6.6777    1.7550    5.8303 C   0  0  0  0  0  0  0  0  0  0  0  0
    6.0621    3.0131    5.6830 C   0  0  0  0  0  0  0  0  0  0  0  0
    5.4006    3.3174    4.5039 C   0  0  0  0  0  0  0  0  0  0  0  0
    4.9356    4.2878    4.3969 H   0  0  0  0  0  0  0  0  0  0  0  0
    5.3146    2.4055    3.4606 C   0  0  0  0  0  0  0  0  0  0  0  0
    5.9116    1.1645    3.6199 C   0  0  0  0  0  0  0  0  0  0  0  0
    5.8574    0.4414    2.8175 H   0  0  0  0  0  0  0  0  0  0  0  0
    6.5875    0.8248    4.7818 C   0  0  0  0  0  0  0  0  0  0  0  0
    6.1084    4.0288    6.7972 C   0  0  0  0  0  0  0  0  0  0  0  0
    6.2162    3.5449    7.7795 H   0  0  0  0  0  0  0  0  0  0  0  0
    5.1895    4.6161    6.7996 H   0  0  0  0  0  0  0  0  0  0  0  0
    6.9412    4.7275    6.6394 H   0  0  0  0  0  0  0  0  0  0  0  0
    4.6112    2.7675    2.1872 C   0  0  0  0  0  0  0  0  0  0  0  0
    3.7453    3.3946    2.3884 H   0  0  0  0  0  0  0  0  0  0  0  0
    4.2864    1.8765    1.6551 H   0  0  0  0  0  0  0  0  0  0  0  0
    5.2849    3.3254    1.5363 H   0  0  0  0  0  0  0  0  0  0  0  0
    7.2366   -0.5246    4.9045 C   0  0  0  0  0  0  0  0  0  0  0  0
    8.0121   -0.4980    5.6689 H   0  0  0  0  0  0  0  0  0  0  0  0
    7.6798   -0.8181    3.9551 H   0  0  0  0  0  0  0  0  0  0  0  0
    6.4996   -1.2815    5.1768 H   0  0  0  0  0  0  0  0  0  0  0  0
  1  4  1  0  0  0  0
  1  2  1  0  0  0  0
  1  5  1  0  0  0  0
  3  1  1  0  0  0  0
  4  8  1  0  0  0  0
  5  6  1  0  0  0  0
  5 11  1  0  0  0  0
  7  1  1  0  0  0  0
  7 17  1  0  0  0  0
  8  9  1  0  0  0  0
  8 11  1  0  0  0  0
 10  8  1  0  0  0  0
 11 13  1  0  0  0  0
 11 12  1  0  0  0  0
 14  5  1  0  0  0  0
 14 15  1  0  0  0  0
 16 14  1  0  0  0  0
 17 19  1  0  0  0  0
 17 14  1  0  0  0  0
 18 17  1  0  0  0  0
 20 27  1  0  0  0  0
 20  4  1  0  0  0  0
 21 20  2  0  0  0  0
 22 24  2  0  0  0  0
 22 21  1  0  0  0  0
 23 22  1  0  0  0  0
 24 25  1  0  0  0  0
 25 26  1  0  0  0  0
 25 27  2  0  0  0  0
 27 36  1  0  0  0  0
 28 21  1  0  0  0  0
 28 29  1  0  0  0  0
 30 28  1  0  0  0  0
 31 28  1  0  0  0  0
 32 35  1  0  0  0  0
 32 24  1  0  0  0  0
 33 32  1  0  0  0  0
 34 32  1  0  0  0  0
 36 37  1  0  0  0  0
 36 39  1  0  0  0  0
 36 38  1  0  0  0  0
 40  7  1  0  0  0  0
 41 40  1  0  0  0  0
 41 48  1  0  0  0  0
 42 41  2  0  0  0  0
 43 42  1  0  0  0  0
 44 45  2  0  0  0  0
 44 42  1  0  0  0  0
 45 47  1  0  0  0  0
 46 45  1  0  0  0  0
 47 56  1  0  0  0  0
 47 40  2  0  0  0  0
 48 50  1  0  0  0  0
 48 49  1  0  0  0  0
 51 48  1  0  0  0  0
 52 53  1  0  0  0  0
 52 44  1  0  0  0  0
 54 52  1  0  0  0  0
 55 52  1  0  0  0  0
 56 59  1  0  0  0  0
 56 57  1  0  0  0  0
 58 56  1  0  0  0  0
M  END
$$$$
