CSD_code = XAWWOJ | q = 0 | S = 0 | Stoichiometry = C13H18Cl2N4OPt | MND = 4
 OpenBabel04212202113D

 39 39  0  0  1  0  0  0  0  0999 V2000
    6.3617    1.3042    1.8094 Pt  0  0  0  0  0  0  0  0  0  0  0  0
    4.8934    1.1839    0.0257 Cl  0  0  0  0  0  0  0  0  0  0  0  0
    7.8711    1.3969    3.5828 Cl  0  0  0  0  0  0  0  0  0  0  0  0
    9.7847    1.2822   -0.6156 O   0  0  0  0  0  0  0  0  0  0  0  0
    7.8378    0.9395    0.5534 N   0  0  0  0  0  0  0  0  0  0  0  0
    7.8175    0.0546    0.0336 H   0  0  0  0  0  0  0  0  0  0  0  0
    4.9683    1.5782    2.9987 N   0  0  0  0  0  2  0  0  0  0  0  0
    9.5685   -0.0267   -1.1409 N   0  0  0  0  0  2  0  0  0  0  0  0
   11.4828    0.3267   -2.4370 N   0  0  0  0  0  4  0  0  0  0  0  0
   11.6528    1.2158   -1.9982 H   0  0  0  0  0  0  0  0  0  0  0  0
   12.2340   -0.1047   -2.9437 H   0  0  0  0  0  0  0  0  0  0  0  0
    8.8432    1.6599    0.2523 C   0  0  2  0  0  3  0  0  0  0  0  0
    9.0962    3.0183    0.8288 C   0  0  0  0  0  0  0  0  0  0  0  0
   10.0098    3.4190    0.3870 H   0  0  0  0  0  0  0  0  0  0  0  0
    9.2385    2.8938    1.9059 H   0  0  0  0  0  0  0  0  0  0  0  0
    7.9157    3.9594    0.5904 C   0  0  0  0  0  0  0  0  0  0  0  0
    7.7369    4.0997   -0.4729 H   0  0  0  0  0  0  0  0  0  0  0  0
    8.1159    4.9244    1.0472 H   0  0  0  0  0  0  0  0  0  0  0  0
    7.0081    3.5414    1.0461 H   0  0  0  0  0  0  0  0  0  0  0  0
   10.4455   -0.4170   -1.9892 C   0  0  0  0  0  0  0  0  0  0  0  0
   10.2597   -1.7726   -2.5333 C   0  0  0  0  0  0  0  0  0  0  0  0
   10.6805   -2.0867   -3.8228 C   0  0  0  0  0  0  0  0  0  0  0  0
   11.1210   -1.3273   -4.4526 H   0  0  0  0  0  0  0  0  0  0  0  0
   10.5013   -3.3651   -4.3194 C   0  0  0  0  0  0  0  0  0  0  0  0
   10.8253   -3.5998   -5.3225 H   0  0  0  0  0  0  0  0  0  0  0  0
    9.9047   -4.3395   -3.5370 C   0  0  0  0  0  0  0  0  0  0  0  0
    9.7690   -5.3369   -3.9275 H   0  0  0  0  0  0  0  0  0  0  0  0
    9.4769   -4.0302   -2.2558 C   0  0  0  0  0  0  0  0  0  0  0  0
    9.0066   -4.7864   -1.6458 H   0  0  0  0  0  0  0  0  0  0  0  0
    9.6509   -2.7542   -1.7548 C   0  0  0  0  0  0  0  0  0  0  0  0
    9.3256   -2.5018   -0.7586 H   0  0  0  0  0  0  0  0  0  0  0  0
    4.1399    1.7095    3.7877 C   0  0  0  0  0  2  0  0  0  0  0  0
    3.1527    1.8841    4.8150 C   0  0  0  0  0  0  0  0  0  0  0  0
    2.4244    1.0713    4.7401 H   0  0  0  0  0  0  0  0  0  0  0  0
    2.6316    2.8299    4.6387 H   0  0  0  0  0  0  0  0  0  0  0  0
    3.8143    1.8862    6.1971 C   0  0  0  0  0  0  0  0  0  0  0  0
    4.3260    0.9439    6.3746 H   0  0  0  0  0  0  0  0  0  0  0  0
    3.0591    2.0268    6.9659 H   0  0  0  0  0  0  0  0  0  0  0  0
    4.5434    2.6891    6.2680 H   0  0  0  0  0  0  0  0  0  0  0  0
  1  7  1  0  0  0  0
  1  3  1  0  0  0  0
  2  1  1  0  0  0  0
  5  1  1  0  0  0  0
  6  5  1  0  0  0  0
  7 32  1  0  0  0  0
  8  4  1  0  0  0  0
  9 10  1  0  0  0  0
  9 20  2  0  0  0  0
 11  9  1  0  0  0  0
 12  4  1  6  0  0  0
 12  5  1  0  0  0  0
 12 13  1  0  0  0  0
 13 15  1  0  0  0  0
 14 13  1  0  0  0  0
 16 13  1  0  0  0  0
 16 19  1  0  0  0  0
 16 18  1  0  0  0  0
 17 16  1  0  0  0  0
 20  8  1  0  0  0  0
 21 20  1  0  0  0  0
 21 30  1  0  0  0  0
 22 21  2  0  0  0  0
 23 22  1  0  0  0  0
 24 22  1  0  0  0  0
 24 26  2  0  0  0  0
 25 24  1  0  0  0  0
 26 28  1  0  0  0  0
 27 26  1  0  0  0  0
 28 30  2  0  0  0  0
 28 29  1  0  0  0  0
 30 31  1  0  0  0  0
 32 33  1  0  0  0  0
 33 36  1  0  0  0  0
 34 33  1  0  0  0  0
 35 33  1  0  0  0  0
 36 39  1  0  0  0  0
 36 37  1  0  0  0  0
 36 38  1  0  0  0  0
M  END
$$$$
