CSD_code = XAWYUP | q = 0 | S = 0 | Stoichiometry = C32H26Cl2P2Pt | MND = 4
 OpenBabel04212202113D

 63 70  0  0  0  0  0  0  0  0999 V2000
   -0.7026    3.3858    3.6264 Pt  0  0  0  0  0  0  0  0  0  0  0  0
   -1.2594    1.6674    2.2522 Cl  0  0  0  0  0  0  0  0  0  0  0  0
   -1.9419    4.8291    2.3889 Cl  0  0  0  0  0  0  0  0  0  0  0  0
    0.5729    1.7985    4.6839 P   0  0  0  0  0  4  0  0  0  0  0  0
   -0.3371    5.2237    4.9503 P   0  0  0  0  0  4  0  0  0  0  0  0
    0.1520    0.0350    4.8500 C   0  0  0  0  0  0  0  0  0  0  0  0
    1.2569    0.3306    3.8513 C   0  0  0  0  0  0  0  0  0  0  0  0
   -1.5008    6.6176    5.0871 C   0  0  0  0  0  0  0  0  0  0  0  0
   -0.2043    6.9432    4.3669 C   0  0  0  0  0  0  0  0  0  0  0  0
    3.4568    2.7806    4.3305 C   0  0  0  0  0  0  0  0  0  0  0  0
    4.7380    3.1185    4.0191 C   0  0  0  0  0  0  0  0  0  0  0  0
    5.7133    3.2322    5.0316 C   0  0  0  0  0  0  0  0  0  0  0  0
    5.3747    3.0334    6.3344 C   0  0  0  0  0  0  0  0  0  0  0  0
    4.0489    2.6880    6.6998 C   0  0  0  0  0  0  0  0  0  0  0  0
    3.6796    2.4951    8.0273 C   0  0  0  0  0  0  0  0  0  0  0  0
    2.3720    2.1775    8.3811 C   0  0  0  0  0  0  0  0  0  0  0  0
    1.9834    2.0045    9.7341 C   0  0  0  0  0  0  0  0  0  0  0  0
    0.7004    1.6911   10.0603 C   0  0  0  0  0  0  0  0  0  0  0  0
    2.6748    5.6994    5.5227 C   0  0  0  0  0  0  0  0  0  0  0  0
    3.9936    6.0123    5.6442 C   0  0  0  0  0  0  0  0  0  0  0  0
    4.5884    6.1181    6.9184 C   0  0  0  0  0  0  0  0  0  0  0  0
    3.8522    5.8899    8.0394 C   0  0  0  0  0  0  0  0  0  0  0  0
    2.4749    5.5622    7.9550 C   0  0  0  0  0  0  0  0  0  0  0  0
    1.7044    5.3291    9.0898 C   0  0  0  0  0  0  0  0  0  0  0  0
    0.3598    4.9835    8.9992 C   0  0  0  0  0  0  0  0  0  0  0  0
   -0.4254    4.7232   10.1509 C   0  0  0  0  0  0  0  0  0  0  0  0
   -1.7353    4.3716   10.0412 C   0  0  0  0  0  0  0  0  0  0  0  0
   -0.2750    1.5516    9.0516 C   0  0  0  0  0  0  0  0  0  0  0  0
    0.0594    1.7102    7.7422 C   0  0  0  0  0  0  0  0  0  0  0  0
    1.3893    2.0072    7.3568 C   0  0  0  0  0  0  0  0  0  0  0  0
    1.7688    2.1348    6.0138 C   0  0  0  0  0  0  0  0  0  0  0  0
    3.0700    2.5312    5.6703 C   0  0  0  0  0  0  0  0  0  0  0  0
   -2.3307    4.2384    8.7697 C   0  0  0  0  0  0  0  0  0  0  0  0
   -1.6113    4.4885    7.6416 C   0  0  0  0  0  0  0  0  0  0  0  0
   -0.2547    4.8905    7.7122 C   0  0  0  0  0  0  0  0  0  0  0  0
    0.4959    5.2009    6.5683 C   0  0  0  0  0  0  0  0  0  0  0  0
    1.8652    5.4834    6.6643 C   0  0  0  0  0  0  0  0  0  0  0  0
    2.7017    2.7143    3.5555 H   0  0  0  0  0  0  0  0  0  0  0  0
    5.0181    3.3069    2.9935 H   0  0  0  0  0  0  0  0  0  0  0  0
    6.7265    3.4903    4.7615 H   0  0  0  0  0  0  0  0  0  0  0  0
    6.1092    3.1372    7.1198 H   0  0  0  0  0  0  0  0  0  0  0  0
    4.4258    2.5996    8.8026 H   0  0  0  0  0  0  0  0  0  0  0  0
    2.7353    2.1276   10.5003 H   0  0  0  0  0  0  0  0  0  0  0  0
    0.4133    1.5548   11.0922 H   0  0  0  0  0  0  0  0  0  0  0  0
    0.4248   -0.4661    5.7699 H   0  0  0  0  0  0  0  0  0  0  0  0
   -0.7999   -0.2690    4.4351 H   0  0  0  0  0  0  0  0  0  0  0  0
    2.2207    5.5933    4.5451 H   0  0  0  0  0  0  0  0  0  0  0  0
    4.5983    6.1755    4.7651 H   0  0  0  0  0  0  0  0  0  0  0  0
    5.6350    6.3733    6.9907 H   0  0  0  0  0  0  0  0  0  0  0  0
    4.3018    5.9543    9.0198 H   0  0  0  0  0  0  0  0  0  0  0  0
    2.1624    5.4136   10.0655 H   0  0  0  0  0  0  0  0  0  0  0  0
    0.0460    4.8090   11.1192 H   0  0  0  0  0  0  0  0  0  0  0  0
   -2.3274    4.1796   10.9237 H   0  0  0  0  0  0  0  0  0  0  0  0
    1.0097    0.2021    2.8062 H   0  0  0  0  0  0  0  0  0  0  0  0
    2.2629    0.0319    4.1188 H   0  0  0  0  0  0  0  0  0  0  0  0
   -2.3928    6.5711    4.4771 H   0  0  0  0  0  0  0  0  0  0  0  0
   -1.6462    7.0482    6.0700 H   0  0  0  0  0  0  0  0  0  0  0  0
    0.5007    7.5944    4.8677 H   0  0  0  0  0  0  0  0  0  0  0  0
   -0.2743    7.0906    3.2973 H   0  0  0  0  0  0  0  0  0  0  0  0
   -1.2928    1.3243    9.3306 H   0  0  0  0  0  0  0  0  0  0  0  0
   -0.6924    1.6280    6.9668 H   0  0  0  0  0  0  0  0  0  0  0  0
   -3.3635    3.9312    8.7005 H   0  0  0  0  0  0  0  0  0  0  0  0
   -2.0618    4.3657    6.6632 H   0  0  0  0  0  0  0  0  0  0  0  0
  1  4  1  0  0  0  0
  1  5  1  0  0  0  0
  2  1  1  0  0  0  0
  3  1  1  0  0  0  0
  4  6  1  0  0  0  0
  4 31  1  0  0  0  0
  5  8  1  0  0  0  0
  5 36  1  0  0  0  0
  6 45  1  0  0  0  0
  7 55  1  0  0  0  0
  7  4  1  0  0  0  0
  7  6  1  0  0  0  0
  8 57  1  0  0  0  0
  9 58  1  0  0  0  0
  9  5  1  0  0  0  0
  9  8  1  0  0  0  0
 10 32  1  0  0  0  0
 11 10  2  0  0  0  0
 11 12  1  0  0  0  0
 12 13  2  0  0  0  0
 13 14  1  0  0  0  0
 13 41  1  0  0  0  0
 14 15  1  0  0  0  0
 15 16  2  0  0  0  0
 15 42  1  0  0  0  0
 16 17  1  0  0  0  0
 17 18  2  0  0  0  0
 17 43  1  0  0  0  0
 18 44  1  0  0  0  0
 19 20  2  0  0  0  0
 19 37  1  0  0  0  0
 20 21  1  0  0  0  0
 21 49  1  0  0  0  0
 21 22  2  0  0  0  0
 22 50  1  0  0  0  0
 23 22  1  0  0  0  0
 23 24  1  0  0  0  0
 24 51  1  0  0  0  0
 25 24  2  0  0  0  0
 25 26  1  0  0  0  0
 26 52  1  0  0  0  0
 27 26  2  0  0  0  0
 27 53  1  0  0  0  0
 28 60  1  0  0  0  0
 28 18  1  0  0  0  0
 29 28  2  0  0  0  0
 30 29  1  0  0  0  0
 30 16  1  0  0  0  0
 31 30  2  0  0  0  0
 32 31  1  0  0  0  0
 32 14  2  0  0  0  0
 33 27  1  0  0  0  0
 34 35  1  0  0  0  0
 34 33  2  0  0  0  0
 35 25  1  0  0  0  0
 36 37  1  0  0  0  0
 36 35  2  0  0  0  0
 37 23  2  0  0  0  0
 38 10  1  0  0  0  0
 39 11  1  0  0  0  0
 40 12  1  0  0  0  0
 46  6  1  0  0  0  0
 47 19  1  0  0  0  0
 48 20  1  0  0  0  0
 54  7  1  0  0  0  0
 56  8  1  0  0  0  0
 59  9  1  0  0  0  0
 61 29  1  0  0  0  0
 62 33  1  0  0  0  0
 63 34  1  0  0  0  0
M  END
$$$$
