CSD_code = XAXCOO | q = 0 | S = 0 | Stoichiometry = C18H13ClN2PtS2 | MND = 4
 OpenBabel04212202113D

 37 42  0  0  0  0  0  0  0  0999 V2000
    0.6041    1.4217    9.4679 Pt  0  0  0  0  0  0  0  0  0  0  0  0
    0.4104    2.3132   11.6302 Cl  0  0  0  0  0  0  0  0  0  0  0  0
    0.6541    1.2695    5.0218 S   0  0  0  0  0  0  0  0  0  0  0  0
    3.3537    2.1165    9.4526 S   0  0  1  0  0  3  0  0  0  0  0  0
   -0.1824    3.0097    8.5298 N   0  0  0  0  0  0  0  0  0  0  0  0
    1.3685   -0.1624   10.3191 N   0  0  0  0  0  0  0  0  0  0  0  0
   -0.6737    4.0964    9.1171 C   0  0  0  0  0  3  0  0  0  0  0  0
   -1.1360    5.1842    8.3983 C   0  0  0  0  0  0  0  0  0  0  0  0
   -1.0847    5.1470    7.0098 C   0  0  0  0  0  0  0  0  0  0  0  0
   -0.5771    4.0235    6.3909 C   0  0  0  0  0  0  0  0  0  0  0  0
   -0.1313    2.9576    7.1736 C   0  0  0  0  0  0  0  0  0  0  0  0
    0.4064    1.7271    6.6850 C   0  0  0  0  0  0  0  0  0  0  0  0
    0.7833    0.7475    7.5805 C   0  0  0  0  0  0  0  0  0  0  0  0
    1.2875   -0.3832    6.8984 C   0  0  0  0  0  0  0  0  0  0  0  0
    1.2755   -0.2431    5.5427 C   0  0  0  0  0  0  0  0  0  0  0  0
    0.5595   -0.9383   11.0434 C   0  0  0  0  0  3  0  0  0  0  0  0
    1.0006   -2.0671   11.7028 C   0  0  0  0  0  0  0  0  0  0  0  0
    2.3433   -2.4133   11.6100 C   0  0  0  0  0  0  0  0  0  0  0  0
    3.1852   -1.6037   10.8754 C   0  0  0  0  0  0  0  0  0  0  0  0
    2.6774   -0.4688   10.2371 C   0  0  0  0  0  0  0  0  0  0  0  0
    3.5575    0.3917    9.4696 C   0  0  0  0  0  0  0  0  0  0  0  0
    4.6436    0.0156    8.7191 C   0  0  0  0  0  0  0  0  0  0  0  0
    5.2805    1.1007    8.0967 C   0  0  0  0  0  0  0  0  0  0  0  0
    4.6960    2.2917    8.4042 C   0  0  0  0  0  0  0  0  0  0  0  0
   -0.6903    4.0908   10.1998 H   0  0  0  0  0  0  0  0  0  0  0  0
   -1.5274    6.0433    8.9180 H   0  0  0  0  0  0  0  0  0  0  0  0
   -1.4365    5.9829    6.4243 H   0  0  0  0  0  0  0  0  0  0  0  0
   -0.5157    3.9452    5.3167 H   0  0  0  0  0  0  0  0  0  0  0  0
    1.6459   -1.2770    7.3821 H   0  0  0  0  0  0  0  0  0  0  0  0
    1.5978   -0.9509    4.8031 H   0  0  0  0  0  0  0  0  0  0  0  0
   -0.4795   -0.6300   11.0922 H   0  0  0  0  0  0  0  0  0  0  0  0
    0.3095   -2.6612   12.2780 H   0  0  0  0  0  0  0  0  0  0  0  0
    2.7242   -3.2889   12.1126 H   0  0  0  0  0  0  0  0  0  0  0  0
    4.2389   -1.8194   10.8007 H   0  0  0  0  0  0  0  0  0  0  0  0
    4.9438   -1.0082    8.5839 H   0  0  0  0  0  0  0  0  0  0  0  0
    6.1324    1.0013    7.4484 H   0  0  0  0  0  0  0  0  0  0  0  0
    4.9853    3.2712    8.0789 H   0  0  0  0  0  0  0  0  0  0  0  0
  1  6  1  0  0  0  0
  1  2  1  0  0  0  0
  3 15  1  0  0  0  0
  3 12  1  0  0  0  0
  4 24  1  6  0  0  0
  4  1  1  0  0  0  0
  4 21  1  0  0  0  0
  5  7  1  0  0  0  0
  5  1  1  0  0  0  0
  6 16  1  0  0  0  0
  7 25  1  0  0  0  0
  8 26  1  0  0  0  0
  8  7  1  0  0  0  0
  9  8  2  0  0  0  0
 10  9  1  0  0  0  0
 10 11  2  0  0  0  0
 11  5  1  0  0  0  0
 12 11  1  0  0  0  0
 12 13  2  0  0  0  0
 13  1  1  0  0  0  0
 14 29  1  0  0  0  0
 14 13  1  0  0  0  0
 15 14  2  0  0  0  0
 16 31  1  0  0  0  0
 16 17  1  0  0  0  0
 17 32  1  0  0  0  0
 18 17  2  0  0  0  0
 18 33  1  0  0  0  0
 19 18  1  0  0  0  0
 20  6  1  0  0  0  0
 20 19  2  0  0  0  0
 21 20  1  0  0  0  0
 22 21  2  0  0  0  0
 23 24  2  0  0  0  0
 23 22  1  0  0  0  0
 27  9  1  0  0  0  0
 28 10  1  0  0  0  0
 30 15  1  0  0  0  0
 34 19  1  0  0  0  0
 35 22  1  0  0  0  0
 36 23  1  0  0  0  0
 37 24  1  0  0  0  0
M  END
$$$$
