CSD_code = XAXZON | q = 0 | S = 0 | Stoichiometry = C23H18Cl2N2OZn | MND = 4
 OpenBabel04212202113D

 47 51  0  0  0  0  0  0  0  0999 V2000
    6.8548   10.5874   12.0005 Zn  0  0  0  0  0  0  0  0  0  0  0  0
    7.5145    8.5028   11.8797 Cl  0  0  0  0  0  0  0  0  0  0  0  0
    4.8357   11.4485   12.3205 Cl  0  0  0  0  0  0  0  0  0  0  0  0
    7.2229   11.4544   10.1274 N   0  0  0  0  0  0  0  0  0  0  0  0
    6.9753   10.6830    9.0925 C   0  0  0  0  0  0  0  0  0  0  0  0
    7.2010    9.6331    9.2273 H   0  0  0  0  0  0  0  0  0  0  0  0
    6.4546   11.1333    7.8828 C   0  0  0  0  0  0  0  0  0  0  0  0
    6.2770   10.4204    7.0955 H   0  0  0  0  0  0  0  0  0  0  0  0
    6.1574   12.4760    7.7458 C   0  0  0  0  0  0  0  0  0  0  0  0
    6.4501   13.3447    8.8444 C   0  0  0  0  0  0  0  0  0  0  0  0
    6.1953   14.7247    8.7619 C   0  0  0  0  0  3  0  0  0  0  0  0
    5.7633   15.1153    7.8547 H   0  0  0  0  0  0  0  0  0  0  0  0
    6.4979   15.5472    9.8146 C   0  0  0  0  0  0  0  0  0  0  0  0
    6.3003   16.6063    9.7563 H   0  0  0  0  0  0  0  0  0  0  0  0
    7.0754   15.0151   10.9640 C   0  0  0  0  0  0  0  0  0  0  0  0
    7.3230   15.6811   11.7782 H   0  0  0  0  0  0  0  0  0  0  0  0
    7.3258   13.6571   11.1085 C   0  0  0  0  0  0  0  0  0  0  0  0
    6.9940   12.7829   10.0298 C   0  0  0  0  0  0  0  0  0  0  0  0
    7.9429   13.2570   12.3524 C   0  0  0  0  0  3  0  0  0  0  0  0
    8.3356   14.0940   12.9398 H   0  0  0  0  0  0  0  0  0  0  0  0
    8.0752   12.0690   12.8005 N   0  0  0  0  0  0  0  0  0  0  0  0
    8.6739   11.8295   14.0390 C   0  0  0  0  0  0  0  0  0  0  0  0
    9.4357   10.6684   14.1740 C   0  0  0  0  0  0  0  0  0  0  0  0
    9.5502   10.0127   13.3240 H   0  0  0  0  0  0  0  0  0  0  0  0
   10.0402   10.3773   15.3811 C   0  0  0  0  0  0  0  0  0  0  0  0
   10.6325    9.4803   15.4778 H   0  0  0  0  0  0  0  0  0  0  0  0
    9.8752   11.2229   16.4674 C   0  0  0  0  0  0  0  0  0  0  0  0
   10.3378   10.9860   17.4136 H   0  0  0  0  0  0  0  0  0  0  0  0
    9.0967   12.3623   16.3441 C   0  0  0  0  0  0  0  0  0  0  0  0
    8.9452   13.0089   17.1957 H   0  0  0  0  0  0  0  0  0  0  0  0
    8.5002   12.6736   15.1368 C   0  0  0  0  0  0  0  0  0  0  0  0
    7.8548   13.5362   15.0588 H   0  0  0  0  0  0  0  0  0  0  0  0
    5.6265   13.0511    6.6644 O   0  0  0  0  0  0  0  0  0  0  0  0
    5.2888   12.2442    5.5502 C   0  0  0  0  0  0  0  0  0  0  0  0
    4.5586   11.4797    5.8540 H   0  0  0  0  0  0  0  0  0  0  0  0
    6.1863   11.7327    5.1740 H   0  0  0  0  0  0  0  0  0  0  0  0
    4.6986   13.0894    4.4489 C   0  0  0  0  0  0  0  0  0  0  0  0
    4.4143   14.4343    4.6255 C   0  0  0  0  0  0  0  0  0  0  0  0
    4.6175   14.9021    5.5753 H   0  0  0  0  0  0  0  0  0  0  0  0
    3.8711   15.1741    3.5884 C   0  0  0  0  0  0  0  0  0  0  0  0
    3.6559   16.2220    3.7354 H   0  0  0  0  0  0  0  0  0  0  0  0
    3.6036   14.5752    2.3706 C   0  0  0  0  0  0  0  0  0  0  0  0
    3.1797   15.1529    1.5631 H   0  0  0  0  0  0  0  0  0  0  0  0
    3.8807   13.2297    2.1912 C   0  0  0  0  0  0  0  0  0  0  0  0
    3.6721   12.7552    1.2441 H   0  0  0  0  0  0  0  0  0  0  0  0
    4.4270   12.4908    3.2238 C   0  0  0  0  0  0  0  0  0  0  0  0
    4.6440   11.4415    3.0824 H   0  0  0  0  0  0  0  0  0  0  0  0
  1  3  1  0  0  0  0
  1 21  1  0  0  0  0
  2  1  1  0  0  0  0
  4  1  1  0  0  0  0
  5  6  1  0  0  0  0
  5  4  1  0  0  0  0
  7  5  2  0  0  0  0
  8  7  1  0  0  0  0
  9  7  1  0  0  0  0
  9 10  2  0  0  0  0
 10 18  1  0  0  0  0
 11 10  1  0  0  0  0
 11 13  1  0  0  0  0
 12 11  1  0  0  0  0
 13 15  2  0  0  0  0
 14 13  1  0  0  0  0
 15 17  1  0  0  0  0
 15 16  1  0  0  0  0
 17 19  1  0  0  0  0
 18  4  1  0  0  0  0
 18 17  2  0  0  0  0
 19 21  1  0  0  0  0
 19 20  1  0  0  0  0
 21 22  1  0  0  0  0
 22 23  2  0  0  0  0
 22 31  1  0  0  0  0
 23 25  1  0  0  0  0
 24 23  1  0  0  0  0
 25 26  1  0  0  0  0
 25 27  2  0  0  0  0
 27 28  1  0  0  0  0
 29 27  1  0  0  0  0
 29 30  1  0  0  0  0
 31 29  2  0  0  0  0
 32 31  1  0  0  0  0
 33  9  1  0  0  0  0
 34 35  1  0  0  0  0
 34 33  1  0  0  0  0
 36 34  1  0  0  0  0
 37 38  1  0  0  0  0
 37 34  1  0  0  0  0
 38 39  1  0  0  0  0
 40 41  1  0  0  0  0
 40 38  2  0  0  0  0
 42 40  1  0  0  0  0
 43 42  1  0  0  0  0
 44 42  2  0  0  0  0
 44 46  1  0  0  0  0
 45 44  1  0  0  0  0
 46 37  2  0  0  0  0
 47 46  1  0  0  0  0
M  END
$$$$
