CSD_code = XAYREX | q = 0 | S = 0 | Stoichiometry = C13H19Cl2N3Pd | MND = 4
 OpenBabel04212202113D

 38 39  0  0  0  0  0  0  0  0999 V2000
    7.2328    5.7280   11.2167 Pd  0  0  0  0  0  0  0  0  0  0  0  0
    6.2096    7.0399    9.6452 Cl  0  0  0  0  0  0  0  0  0  0  0  0
    8.2727    4.4510   12.8130 Cl  0  0  0  0  0  0  0  0  0  0  0  0
    7.9072    3.9950    8.9088 N   0  0  0  0  0  0  0  0  0  0  0  0
    8.3285    4.8777    9.8311 C   0  0  0  0  0  0  0  0  0  0  0  0
    9.6559    4.9857    9.6784 N   0  0  0  0  0  0  0  0  0  0  0  0
   10.0768    4.1661    8.6662 C   0  0  0  0  0  0  0  0  0  0  0  0
   11.1040    4.0920    8.3739 H   0  0  0  0  0  0  0  0  0  0  0  0
    8.9738    3.5453    8.1805 C   0  0  0  0  0  0  0  0  0  0  0  0
    8.8708    2.8358    7.3851 H   0  0  0  0  0  0  0  0  0  0  0  0
    6.5155    3.6610    8.6984 C   0  0  0  0  0  0  0  0  0  0  0  0
    6.4499    2.9792    7.8470 H   0  0  0  0  0  0  0  0  0  0  0  0
    5.9785    4.5893    8.4622 H   0  0  0  0  0  0  0  0  0  0  0  0
    5.8865    3.0311    9.9459 C   0  0  0  0  0  0  0  0  0  0  0  0
    6.3737    2.0782   10.1665 H   0  0  0  0  0  0  0  0  0  0  0  0
    6.0545    3.7123   10.8083 H   0  0  0  0  0  0  0  0  0  0  0  0
    4.3839    2.8266    9.7755 C   0  0  0  0  0  0  0  0  0  0  0  0
    4.1960    2.1345    8.9511 H   0  0  0  0  0  0  0  0  0  0  0  0
    3.9232    3.7836    9.5204 H   0  0  0  0  0  0  0  0  0  0  0  0
    3.7564    2.2813   11.0525 C   0  0  0  0  0  0  0  0  0  0  0  0
    2.6807    2.1734   10.9370 H   0  0  0  0  0  0  0  0  0  0  0  0
    3.9497    2.9527   11.8872 H   0  0  0  0  0  0  0  0  0  0  0  0
    4.1750    1.3082   11.2988 H   0  0  0  0  0  0  0  0  0  0  0  0
   10.4870    5.8390   10.4862 C   0  0  0  0  0  0  0  0  0  0  0  0
    9.8326    6.5530   11.0115 H   0  0  0  0  0  0  0  0  0  0  0  0
   11.1961    6.3800    9.8590 H   0  0  0  0  0  0  0  0  0  0  0  0
   11.0281    5.2493   11.2297 H   0  0  0  0  0  0  0  0  0  0  0  0
    6.1249    6.5920   12.6247 N   0  0  0  0  0  0  0  0  0  0  0  0
    4.8130    6.3776   12.6885 C   0  0  0  0  0  3  0  0  0  0  0  0
    4.3974    5.6956   11.9494 H   0  0  0  0  0  0  0  0  0  0  0  0
    4.0083    6.9982   13.6281 C   0  0  0  0  0  0  0  0  0  0  0  0
    2.9487    6.7976   13.6490 H   0  0  0  0  0  0  0  0  0  0  0  0
    4.5876    7.8783   14.5294 C   0  0  0  0  0  0  0  0  0  0  0  0
    3.9874    8.3811   15.2726 H   0  0  0  0  0  0  0  0  0  0  0  0
    5.9540    8.1009   14.4541 C   0  0  0  0  0  0  0  0  0  0  0  0
    6.4458    8.7789   15.1336 H   0  0  0  0  0  0  0  0  0  0  0  0
    6.6874    7.4351   13.4871 C   0  0  0  0  0  0  0  0  0  0  0  0
    7.7645    7.5705   13.3998 H   0  0  0  0  0  0  0  0  0  0  0  0
  1 28  1  0  0  0  0
  1  3  1  0  0  0  0
  2  1  1  0  0  0  0
  4  5  1  0  0  0  0
  5  1  2  0  0  0  0
  6  5  1  0  0  0  0
  6 24  1  0  0  0  0
  7  6  1  0  0  0  0
  8  7  1  0  0  0  0
  9  7  2  0  0  0  0
  9  4  1  0  0  0  0
 10  9  1  0  0  0  0
 11  4  1  0  0  0  0
 11 14  1  0  0  0  0
 12 11  1  0  0  0  0
 13 11  1  0  0  0  0
 14 15  1  0  0  0  0
 14 16  1  0  0  0  0
 17 14  1  0  0  0  0
 17 20  1  0  0  0  0
 18 17  1  0  0  0  0
 19 17  1  0  0  0  0
 20 23  1  0  0  0  0
 20 22  1  0  0  0  0
 21 20  1  0  0  0  0
 24 25  1  0  0  0  0
 24 27  1  0  0  0  0
 26 24  1  0  0  0  0
 28 29  1  0  0  0  0
 28 37  1  0  0  0  0
 29 31  1  0  0  0  0
 30 29  1  0  0  0  0
 31 32  1  0  0  0  0
 31 33  2  0  0  0  0
 33 34  1  0  0  0  0
 35 33  1  0  0  0  0
 35 36  1  0  0  0  0
 37 35  2  0  0  0  0
 38 37  1  0  0  0  0
M  END
$$$$
