CSD_code = XAYVOJ | q = 0 | S = 0 | Stoichiometry = C12H24Cl2FeN2O2 | MND = 5
 OpenBabel04212202113D

 43 43  0  0  0  0  0  0  0  0999 V2000
   15.2389   13.7516    3.0758 Fe  0  0  0  0  0  0  0  0  0  0  0  0
   14.9006   15.8337    3.1774 Cl  0  0  0  0  0  0  0  0  0  0  0  0
   15.1655   11.7917    2.3467 Cl  0  0  0  0  0  0  0  0  0  0  0  0
   19.8459   12.4379    1.3379 O   0  0  0  0  0  0  0  0  0  0  0  0
   12.9979   13.5507    3.2315 O   0  0  0  0  0  0  0  0  0  0  0  0
   17.0579   13.9772    2.9629 N   0  0  0  0  0  0  0  0  0  0  0  0
   15.6400   13.4702    4.8557 N   0  0  0  0  0  0  0  0  0  0  0  0
   20.6547   11.3519    1.7036 C   0  0  0  0  0  0  0  0  0  0  0  0
   21.6617   11.7415    1.8430 H   0  0  0  0  0  0  0  0  0  0  0  0
   20.6657   10.5839    0.9206 H   0  0  0  0  0  0  0  0  0  0  0  0
   20.3051   10.8922    2.6370 H   0  0  0  0  0  0  0  0  0  0  0  0
   18.4945   12.0673    1.1365 C   0  0  0  0  0  0  0  0  0  0  0  0
   18.0645   11.6717    2.0676 H   0  0  0  0  0  0  0  0  0  0  0  0
   18.4373   11.2757    0.3753 H   0  0  0  0  0  0  0  0  0  0  0  0
   17.6912   13.2744    0.6707 C   0  0  0  0  0  0  0  0  0  0  0  0
   16.6771   12.9338    0.4575 H   0  0  0  0  0  0  0  0  0  0  0  0
   18.1346   13.6742   -0.2418 H   0  0  0  0  0  0  0  0  0  0  0  0
   17.6506   14.3957    1.7185 C   0  0  0  0  0  0  0  0  0  0  0  0
   18.6588   14.7864    1.8696 H   0  0  0  0  0  0  0  0  0  0  0  0
   17.0244   15.2087    1.3301 H   0  0  0  0  0  0  0  0  0  0  0  0
   17.7533   13.8445    4.0722 C   0  0  0  0  0  0  0  0  0  0  0  0
   19.2438   13.9873    4.1634 C   0  0  0  0  0  0  0  0  0  0  0  0
   19.7170   13.6283    3.2530 H   0  0  0  0  0  0  0  0  0  0  0  0
   19.6294   13.4074    4.9969 H   0  0  0  0  0  0  0  0  0  0  0  0
   19.5192   15.0324    4.3105 H   0  0  0  0  0  0  0  0  0  0  0  0
   16.9177   13.5755    5.1875 C   0  0  0  0  0  0  0  0  0  0  0  0
   17.4111   13.4943    6.6022 C   0  0  0  0  0  0  0  0  0  0  0  0
   16.8182   14.1428    7.2459 H   0  0  0  0  0  0  0  0  0  0  0  0
   18.4462   13.8110    6.6654 H   0  0  0  0  0  0  0  0  0  0  0  0
   17.3372   12.4741    6.9824 H   0  0  0  0  0  0  0  0  0  0  0  0
   14.6648   13.2494    5.9015 C   0  0  0  0  0  0  0  0  0  0  0  0
   14.4389   14.2130    6.3789 H   0  0  0  0  0  0  0  0  0  0  0  0
   15.0848   12.5789    6.6590 H   0  0  0  0  0  0  0  0  0  0  0  0
   13.3653   12.6166    5.3963 C   0  0  0  0  0  0  0  0  0  0  0  0
   13.6089   11.7480    4.7818 H   0  0  0  0  0  0  0  0  0  0  0  0
   12.7903   12.2874    6.2624 H   0  0  0  0  0  0  0  0  0  0  0  0
   12.5024   13.5531    4.5579 C   0  0  0  0  0  0  0  0  0  0  0  0
   11.4633   13.1930    4.5422 H   0  0  0  0  0  0  0  0  0  0  0  0
   12.5186   14.5757    4.9616 H   0  0  0  0  0  0  0  0  0  0  0  0
   12.2101   14.3197    2.3443 C   0  0  0  0  0  0  0  0  0  0  0  0
   12.6474   14.2046    1.3518 H   0  0  0  0  0  0  0  0  0  0  0  0
   12.2190   15.3776    2.6260 H   0  0  0  0  0  0  0  0  0  0  0  0
   11.1805   13.9439    2.3385 H   0  0  0  0  0  0  0  0  0  0  0  0
  1  2  1  0  0  0  0
  1  7  1  0  0  0  0
  3  1  1  0  0  0  0
  4  8  1  0  0  0  0
  5 37  1  0  0  0  0
  6  1  1  0  0  0  0
  6 21  1  0  0  0  0
  7 26  1  0  0  0  0
  7 31  1  0  0  0  0
  8  9  1  0  0  0  0
  8 11  1  0  0  0  0
 10  8  1  0  0  0  0
 12  4  1  0  0  0  0
 12 13  1  0  0  0  0
 14 12  1  0  0  0  0
 15 12  1  0  0  0  0
 15 18  1  0  0  0  0
 16 15  1  0  0  0  0
 17 15  1  0  0  0  0
 18 19  1  0  0  0  0
 18  6  1  0  0  0  0
 20 18  1  0  0  0  0
 21 22  1  0  0  0  0
 21 26  2  0  0  0  0
 22 25  1  0  0  0  0
 22 24  1  0  0  0  0
 23 22  1  0  0  0  0
 26 27  1  0  0  0  0
 27 29  1  0  0  0  0
 27 30  1  0  0  0  0
 27 28  1  0  0  0  0
 31 32  1  0  0  0  0
 31 33  1  0  0  0  0
 34 31  1  0  0  0  0
 34 36  1  0  0  0  0
 35 34  1  0  0  0  0
 37 39  1  0  0  0  0
 37 34  1  0  0  0  0
 38 37  1  0  0  0  0
 40 42  1  0  0  0  0
 40  5  1  0  0  0  0
 41 40  1  0  0  0  0
 43 40  1  0  0  0  0
M  END
$$$$
