CSD_code = XAZGAJ | q = 0 | S = 0 | Stoichiometry = C14H15I2N3Pd | MND = 4
 OpenBabel04212202113D

 35 37  0  0  0  0  0  0  0  0999 V2000
    2.2404    4.8238   13.1252 Pd  0  0  0  0  0  0  0  0  0  0  0  0
    0.1523    6.1756   13.8910 I   0  0  0  0  0  0  0  0  0  0  0  0
    4.2916    3.4765   12.2606 I   0  0  0  0  0  0  0  0  0  0  0  0
    0.7388    3.9739   10.7488 N   0  0  0  0  0  0  0  0  0  0  0  0
    1.5578    4.8789   11.3064 C   0  0  0  0  0  0  0  0  0  0  0  0
    1.8219    5.8321   10.3994 N   0  0  0  0  0  0  0  0  0  0  0  0
    1.1609    5.5439    9.2243 C   0  0  0  0  0  0  0  0  0  0  0  0
    1.0978    6.1948    8.0035 C   0  0  0  0  0  0  0  0  0  0  0  0
    1.6326    7.1144    7.8271 H   0  0  0  0  0  0  0  0  0  0  0  0
    0.3180    5.6128    7.0212 C   0  0  0  0  0  0  0  0  0  0  0  0
    0.2430    6.0900    6.0564 H   0  0  0  0  0  0  0  0  0  0  0  0
   -0.3747    4.4246    7.2447 C   0  0  0  0  0  0  0  0  0  0  0  0
   -0.9711    4.0075    6.4481 H   0  0  0  0  0  0  0  0  0  0  0  0
   -0.3173    3.7678    8.4600 C   0  0  0  0  0  0  0  0  0  0  0  0
   -0.8547    2.8485    8.6297 H   0  0  0  0  0  0  0  0  0  0  0  0
    0.4612    4.3440    9.4500 C   0  0  0  0  0  0  0  0  0  0  0  0
    0.2516    2.8095   11.4413 C   0  0  0  0  0  0  0  0  0  0  0  0
    0.5803    1.8990   10.9358 H   0  0  0  0  0  0  0  0  0  0  0  0
    0.6633    2.8216   12.4675 H   0  0  0  0  0  0  0  0  0  0  0  0
   -0.8390    2.8251   11.4942 H   0  0  0  0  0  0  0  0  0  0  0  0
    2.6748    6.9623   10.6597 C   0  0  0  0  0  0  0  0  0  0  0  0
    3.5389    6.9507    9.9921 H   0  0  0  0  0  0  0  0  0  0  0  0
    2.1233    7.8952   10.5276 H   0  0  0  0  0  0  0  0  0  0  0  0
    3.0261    6.8953   11.7061 H   0  0  0  0  0  0  0  0  0  0  0  0
    2.9401    4.7674   15.0027 N   0  0  0  0  0  0  0  0  0  0  0  0
    2.5927    3.7724   15.8119 C   0  0  0  0  0  3  0  0  0  0  0  0
    1.9311    3.0125   15.3925 H   0  0  0  0  0  0  0  0  0  0  0  0
    3.0405    3.6962   17.1182 C   0  0  0  0  0  0  0  0  0  0  0  0
    2.7372    2.8738   17.7462 H   0  0  0  0  0  0  0  0  0  0  0  0
    3.8789    4.6930   17.5939 C   0  0  0  0  0  0  0  0  0  0  0  0
    4.2457    4.6643   18.6084 H   0  0  0  0  0  0  0  0  0  0  0  0
    4.2373    5.7273   16.7428 C   0  0  0  0  0  0  0  0  0  0  0  0
    4.8871    6.5224   17.0719 H   0  0  0  0  0  0  0  0  0  0  0  0
    3.7438    5.7257   15.4506 C   0  0  0  0  0  0  0  0  0  0  0  0
    3.9975    6.5178   14.7443 H   0  0  0  0  0  0  0  0  0  0  0  0
  1  2  1  0  0  0  0
  1 25  1  0  0  0  0
  3  1  1  0  0  0  0
  4  5  1  0  0  0  0
  4 17  1  0  0  0  0
  5  1  2  0  0  0  0
  6 21  1  0  0  0  0
  6  5  1  0  0  0  0
  7 16  1  0  0  0  0
  7  6  1  0  0  0  0
  8  7  2  0  0  0  0
  9  8  1  0  0  0  0
 10 12  2  0  0  0  0
 10  8  1  0  0  0  0
 11 10  1  0  0  0  0
 12 14  1  0  0  0  0
 13 12  1  0  0  0  0
 14 15  1  0  0  0  0
 14 16  2  0  0  0  0
 16  4  1  0  0  0  0
 17 20  1  0  0  0  0
 17 19  1  0  0  0  0
 18 17  1  0  0  0  0
 21 24  1  0  0  0  0
 22 21  1  0  0  0  0
 23 21  1  0  0  0  0
 25 34  1  0  0  0  0
 25 26  1  0  0  0  0
 26 28  1  0  0  0  0
 27 26  1  0  0  0  0
 28 30  2  0  0  0  0
 28 29  1  0  0  0  0
 30 31  1  0  0  0  0
 32 33  1  0  0  0  0
 32 30  1  0  0  0  0
 34 32  2  0  0  0  0
 35 34  1  0  0  0  0
M  END
$$$$
