CSD_code = XEBGET | q = 0 | S = 0 | Stoichiometry = C28H27I2NNiO2P2 | MND = 4
 OpenBabel04212202113D

 63 67  0  0  0  0  0  0  0  0999 V2000
    6.2780    3.1322    6.7349 I   0  0  0  0  0  0  0  0  0  0  0  0
    6.7143    6.7705    5.7656 I   0  0  0  0  0  0  0  0  0  0  0  0
    7.2215    4.5199    4.9663 Ni  0  0  0  0  0  0  0  0  0  0  0  0
    7.8784    2.8026    3.9049 P   0  0  0  0  0  4  0  0  0  0  0  0
    8.3509    5.3082    3.3515 P   0  0  0  0  0  4  0  0  0  0  0  0
    8.8711    1.5029   -0.0516 O   0  0  0  0  0  0  0  0  0  0  0  0
    7.1845    2.9213    0.3801 O   0  0  0  0  0  0  0  0  0  0  0  0
    8.5007    3.7584    2.6152 N   0  0  0  0  0  0  0  0  0  0  0  0
    9.2153    1.7508    4.5156 C   0  0  0  0  0  0  0  0  0  0  0  0
   10.5492    2.1302    4.4057 C   0  0  0  0  0  0  0  0  0  0  0  0
   10.8195    3.0434    3.8909 H   0  0  0  0  0  0  0  0  0  0  0  0
   11.5362    1.3443    4.9715 C   0  0  0  0  0  0  0  0  0  0  0  0
   12.5716    1.6364    4.8756 H   0  0  0  0  0  0  0  0  0  0  0  0
   11.1956    0.1960    5.6679 C   0  0  0  0  0  0  0  0  0  0  0  0
   11.9692   -0.4113    6.1128 H   0  0  0  0  0  0  0  0  0  0  0  0
    9.8645   -0.1648    5.8088 C   0  0  0  0  0  0  0  0  0  0  0  0
    9.5976   -1.0465    6.3711 H   0  0  0  0  0  0  0  0  0  0  0  0
    8.8725    0.6101    5.2396 C   0  0  0  0  0  0  0  0  0  0  0  0
    7.8309    0.3461    5.3647 H   0  0  0  0  0  0  0  0  0  0  0  0
    6.6970    1.6654    3.1332 C   0  0  0  0  0  0  0  0  0  0  0  0
    7.0923    0.4691    2.5448 C   0  0  0  0  0  0  0  0  0  0  0  0
    8.1312    0.1685    2.5618 H   0  0  0  0  0  0  0  0  0  0  0  0
    6.1421   -0.3343    1.9415 C   0  0  0  0  0  0  0  0  0  0  0  0
    6.4435   -1.2658    1.4856 H   0  0  0  0  0  0  0  0  0  0  0  0
    4.8091    0.0490    1.9266 C   0  0  0  0  0  0  0  0  0  0  0  0
    4.0732   -0.5899    1.4615 H   0  0  0  0  0  0  0  0  0  0  0  0
    4.4171    1.2433    2.5092 C   0  0  0  0  0  0  0  0  0  0  0  0
    3.3785    1.5381    2.5026 H   0  0  0  0  0  0  0  0  0  0  0  0
    5.3622    2.0529    3.1114 C   0  0  0  0  0  0  0  0  0  0  0  0
    5.0645    2.9845    3.5840 H   0  0  0  0  0  0  0  0  0  0  0  0
   10.0347    5.7192    3.8971 C   0  0  0  0  0  0  0  0  0  0  0  0
   11.0135    6.1553    3.0109 C   0  0  0  0  0  0  0  0  0  0  0  0
   10.7585    6.3566    1.9783 H   0  0  0  0  0  0  0  0  0  0  0  0
   12.3067    6.3407    3.4638 C   0  0  0  0  0  0  0  0  0  0  0  0
   13.0699    6.6811    2.7795 H   0  0  0  0  0  0  0  0  0  0  0  0
   12.6236    6.0931    4.7911 C   0  0  0  0  0  0  0  0  0  0  0  0
   13.6351    6.2443    5.1370 H   0  0  0  0  0  0  0  0  0  0  0  0
   11.6496    5.6581    5.6756 C   0  0  0  0  0  0  0  0  0  0  0  0
   11.8953    5.4693    6.7095 H   0  0  0  0  0  0  0  0  0  0  0  0
   10.3561    5.4685    5.2271 C   0  0  0  0  0  0  0  0  0  0  0  0
    9.5826    5.1296    5.9178 H   0  0  0  0  0  0  0  0  0  0  0  0
    7.9626    6.5051    2.0619 C   0  0  0  0  0  0  0  0  0  0  0  0
    7.2465    6.1385    0.9276 C   0  0  0  0  0  0  0  0  0  0  0  0
    6.9734    5.1045    0.7745 H   0  0  0  0  0  0  0  0  0  0  0  0
    6.8876    7.1064    0.0071 C   0  0  0  0  0  0  0  0  0  0  0  0
    6.3396    6.8257   -0.8806 H   0  0  0  0  0  0  0  0  0  0  0  0
    7.2137    8.4346    0.2304 C   0  0  0  0  0  0  0  0  0  0  0  0
    6.9221    9.1871   -0.4868 H   0  0  0  0  0  0  0  0  0  0  0  0
    7.8967    8.8028    1.3795 C   0  0  0  0  0  0  0  0  0  0  0  0
    8.1313    9.8403    1.5624 H   0  0  0  0  0  0  0  0  0  0  0  0
    8.2684    7.8432    2.3014 C   0  0  0  0  0  0  0  0  0  0  0  0
    8.7826    8.1250    3.2105 H   0  0  0  0  0  0  0  0  0  0  0  0
    9.2496    3.3414    1.4512 C   0  0  0  0  0  0  0  0  0  0  0  0
   10.1513    2.7740    1.7125 H   0  0  0  0  0  0  0  0  0  0  0  0
    9.5518    4.2370    0.8954 H   0  0  0  0  0  0  0  0  0  0  0  0
    8.4283    2.4694    0.5079 C   0  0  0  0  0  0  0  0  0  0  0  0
    6.3175    2.2277   -0.5241 C   0  0  0  0  0  0  0  0  0  0  0  0
    5.3090    2.4267   -0.1556 H   0  0  0  0  0  0  0  0  0  0  0  0
    6.5317    1.1563   -0.4616 H   0  0  0  0  0  0  0  0  0  0  0  0
    6.4990    2.7273   -1.9490 C   0  0  0  0  0  0  0  0  0  0  0  0
    6.3295    3.8008   -2.0004 H   0  0  0  0  0  0  0  0  0  0  0  0
    5.7888    2.2257   -2.5994 H   0  0  0  0  0  0  0  0  0  0  0  0
    7.5068    2.5100   -2.2961 H   0  0  0  0  0  0  0  0  0  0  0  0
  3  2  1  0  0  0  0
  3  1  1  0  0  0  0
  4  9  1  0  0  0  0
  4  3  1  0  0  0  0
  5 31  1  0  0  0  0
  5  3  1  0  0  0  0
  6 56  2  0  0  0  0
  7 56  1  0  0  0  0
  8  5  1  0  0  0  0
  8  4  1  0  0  0  0
  9 18  1  0  0  0  0
 10  9  2  0  0  0  0
 10 12  1  0  0  0  0
 11 10  1  0  0  0  0
 12 14  2  0  0  0  0
 13 12  1  0  0  0  0
 14 16  1  0  0  0  0
 14 15  1  0  0  0  0
 16 17  1  0  0  0  0
 18 19  1  0  0  0  0
 18 16  2  0  0  0  0
 20  4  1  0  0  0  0
 21 22  1  0  0  0  0
 21 20  2  0  0  0  0
 23 21  1  0  0  0  0
 24 23  1  0  0  0  0
 25 23  2  0  0  0  0
 25 27  1  0  0  0  0
 26 25  1  0  0  0  0
 27 29  2  0  0  0  0
 28 27  1  0  0  0  0
 29 20  1  0  0  0  0
 29 30  1  0  0  0  0
 31 40  1  0  0  0  0
 32 34  1  0  0  0  0
 32 31  2  0  0  0  0
 33 32  1  0  0  0  0
 34 36  2  0  0  0  0
 35 34  1  0  0  0  0
 36 37  1  0  0  0  0
 36 38  1  0  0  0  0
 38 39  1  0  0  0  0
 40 38  2  0  0  0  0
 40 41  1  0  0  0  0
 42 51  1  0  0  0  0
 42  5  1  0  0  0  0
 43 42  2  0  0  0  0
 44 43  1  0  0  0  0
 45 47  2  0  0  0  0
 45 43  1  0  0  0  0
 46 45  1  0  0  0  0
 47 49  1  0  0  0  0
 48 47  1  0  0  0  0
 49 50  1  0  0  0  0
 49 51  2  0  0  0  0
 51 52  1  0  0  0  0
 53 54  1  0  0  0  0
 53  8  1  0  0  0  0
 55 53  1  0  0  0  0
 56 53  1  0  0  0  0
 57 59  1  0  0  0  0
 57 58  1  0  0  0  0
 57  7  1  0  0  0  0
 60 57  1  0  0  0  0
 61 60  1  0  0  0  0
 62 60  1  0  0  0  0
 63 60  1  0  0  0  0
M  END
$$$$
