CSD_code = XEBLAR | q = 0 | S = 0 | Stoichiometry = C15H20ClNbO | MND = 12
 OpenBabel04212202113D

 38 39  0  0  1  0  0  0  0  0999 V2000
    7.0817    5.8587   13.6469 C   0  0  1  0  0  0  0  0  0  0  0  0
    6.2913    7.0637   13.7073 C   0  0  0  0  0  0  0  0  0  0  0  0
    5.0028    6.7211   13.2255 C   0  0  0  0  0  0  0  0  0  0  0  0
    4.9732    5.3465   12.9275 C   0  0  0  0  0  0  0  0  0  0  0  0
    6.2267    4.8102   13.1813 C   0  0  0  0  0  0  0  0  0  0  0  0
    6.7974    8.2305    9.4118 C   0  0  0  0  0  0  0  0  0  0  0  0
    7.1200    6.9724    8.8790 C   0  0  0  0  0  0  0  0  0  0  0  0
    6.0967    6.0473    9.2445 C   0  0  0  0  0  0  0  0  0  0  0  0
    5.1645    6.7191   10.0273 C   0  0  0  0  0  0  0  0  0  0  0  0
    5.6250    8.0606   10.2058 C   0  0  1  0  0  0  0  0  0  0  0  0
    7.5727    9.5002    9.2349 C   0  0  0  0  0  0  0  0  0  0  0  0
    8.5657    4.8986   10.9277 Cl  0  0  0  0  0  0  0  0  0  0  0  0
    7.2398    6.7462   11.4627 Nb  0  0  2  0  0  0  0  0  0  0  0  0
    8.4848    7.8546   11.7548 O   0  0  0  0  0  1  0  0  0  0  0  0
    6.3272    9.5591   13.5911 C   0  0  0  0  0  0  0  0  0  0  0  0
    5.7787    8.3771   15.7406 C   0  0  0  0  0  0  0  0  0  0  0  0
    8.1168    8.3620   14.8430 C   0  0  0  0  0  0  0  0  0  0  0  0
    6.6332    8.3344   14.4635 C   0  0  0  0  0  0  0  0  0  0  0  0
    4.1504    7.3836   13.1870 H   0  0  0  0  0  0  0  0  0  0  0  0
    6.0222    5.0294    8.8865 H   0  0  0  0  0  0  0  0  0  0  0  0
    4.1109    4.8001   12.5780 H   0  0  0  0  0  0  0  0  0  0  0  0
    6.5158    3.7733   13.0898 H   0  0  0  0  0  0  0  0  0  0  0  0
    4.2007    6.3409   10.3415 H   0  0  0  0  0  0  0  0  0  0  0  0
    5.0234    8.8762   10.5916 H   0  0  0  0  0  0  0  0  0  0  0  0
    7.9907    5.6819   14.2134 H   0  0  0  0  0  0  0  0  0  0  0  0
    5.9540    7.4886   16.3427 H   0  0  0  0  0  0  0  0  0  0  0  0
    5.2812    9.5742   13.2910 H   0  0  0  0  0  0  0  0  0  0  0  0
    6.0360    9.2527   16.3317 H   0  0  0  0  0  0  0  0  0  0  0  0
    7.9390    6.7643    8.2022 H   0  0  0  0  0  0  0  0  0  0  0  0
    4.7199    8.4223   15.4987 H   0  0  0  0  0  0  0  0  0  0  0  0
    6.5346   10.4731   14.1434 H   0  0  0  0  0  0  0  0  0  0  0  0
    8.3518    7.5764   15.5574 H   0  0  0  0  0  0  0  0  0  0  0  0
    6.9598    9.5337   12.6996 H   0  0  0  0  0  0  0  0  0  0  0  0
    8.3607    9.3179   15.3005 H   0  0  0  0  0  0  0  0  0  0  0  0
    8.7327    8.2345   13.9501 H   0  0  0  0  0  0  0  0  0  0  0  0
    6.9446   10.3660    9.4377 H   0  0  0  0  0  0  0  0  0  0  0  0
    8.4195    9.5128    9.9284 H   0  0  0  0  0  0  0  0  0  0  0  0
    7.9604    9.5705    8.2199 H   0  0  0  0  0  0  0  0  0  0  0  0
  1  2  1  0  0  0  0
  1 25  1  1  0  0  0
  2 18  1  0  0  0  0
  3  2  2  0  0  0  0
  4  5  2  0  0  0  0
  4  3  1  0  0  0  0
  5  1  1  0  0  0  0
  6 10  1  0  0  0  0
  7  8  1  0  0  0  0
  7  6  2  0  0  0  0
  8  9  2  0  0  0  0
  9 10  1  0  0  0  0
  9 23  1  0  0  0  0
 10 24  1  1  0  0  0
 10 13  1  0  0  0  0
 11  6  1  0  0  0  0
 11 36  1  0  0  0  0
 11 37  1  0  0  0  0
 13 12  1  6  0  0  0
 13 14  1  0  0  0  0
 13  1  1  0  0  0  0
 15 31  1  0  0  0  0
 15 18  1  0  0  0  0
 16 28  1  0  0  0  0
 16 26  1  0  0  0  0
 17 34  1  0  0  0  0
 17 32  1  0  0  0  0
 18 17  1  0  0  0  0
 18 16  1  0  0  0  0
 19  3  1  0  0  0  0
 20  8  1  0  0  0  0
 21  4  1  0  0  0  0
 22  5  1  0  0  0  0
 27 15  1  0  0  0  0
 29  7  1  0  0  0  0
 30 16  1  0  0  0  0
 33 15  1  0  0  0  0
 35 17  1  0  0  0  0
 38 11  1  0  0  0  0
M  END
$$$$
