CSD_code = XEBSIG | q = 1 | S = 0 | Stoichiometry = C9H17ClN7OZn(1+) | MND = 5
 OpenBabel04212202113D

 36 38  0  0  1  0  0  0  0  0999 V2000
    2.9875    0.3620    7.0081 Zn  0  0  1  0  0  0  0  0  0  0  0  0
    4.0578    0.1734    5.1461 Cl  0  0  0  0  0  0  0  0  0  0  0  0
    4.5273    1.9256    7.6305 O   0  0  0  0  0  0  0  0  0  0  0  0
    4.3781    2.8716    7.7294 H   0  0  0  0  0  0  0  0  0  0  0  0
    5.1907    1.8296    6.9335 H   0  0  0  0  0  0  0  0  0  0  0  0
    0.3356    3.0616    8.9367 N   0  0  0  0  0  0  0  0  0  0  0  0
    1.3448    2.3820    8.4696 C   0  0  0  0  0  3  0  0  0  0  0  0
    2.2850    2.5197    8.9837 H   0  0  0  0  0  0  0  0  0  0  0  0
    1.3560    1.5255    7.4407 N   0  0  0  0  0  0  0  0  0  0  0  0
    0.1451    1.3785    6.8623 C   0  0  0  0  0  0  0  0  0  0  0  0
   -1.0129    2.0488    7.2979 C   0  0  0  0  0  0  0  0  0  0  0  0
   -0.8852    2.9411    8.3828 C   0  0  0  0  0  0  0  0  0  0  0  0
   -1.8934    3.6442    8.8788 N   0  0  0  0  0  0  0  0  0  0  0  0
   -1.7280    4.2720    9.6481 H   0  0  0  0  0  0  0  0  0  0  0  0
   -2.8066    3.5681    8.4627 H   0  0  0  0  0  0  0  0  0  0  0  0
   -2.0759    1.6706    6.5287 N   0  0  0  0  0  0  0  0  0  0  0  0
   -1.5922    0.8275    5.6736 C   0  0  0  0  0  0  0  0  0  0  0  0
   -2.1724    0.3452    4.9124 H   0  0  0  0  0  0  0  0  0  0  0  0
   -0.2469    0.5995    5.8171 N   0  0  0  0  0  0  0  0  0  0  0  0
    0.5762   -0.2265    4.9707 C   0  0  0  0  0  0  0  0  0  0  0  0
    1.4961    0.3185    4.7383 H   0  0  0  0  0  0  0  0  0  0  0  0
    0.0329   -0.4074    4.0412 H   0  0  0  0  0  0  0  0  0  0  0  0
    0.9429   -1.5711    5.6070 C   0  0  0  0  0  0  0  0  0  0  0  0
    0.0530   -2.2063    5.7002 H   0  0  0  0  0  0  0  0  0  0  0  0
    1.6518   -2.0614    4.9371 H   0  0  0  0  0  0  0  0  0  0  0  0
    1.5922   -1.3776    6.9061 N   0  0  1  0  0  4  0  0  0  0  0  0
    0.8637   -1.2101    7.5993 H   0  0  0  0  0  0  0  0  0  0  0  0
    2.3710   -2.5300    7.3614 C   0  0  0  0  0  0  0  0  0  0  0  0
    3.0951   -2.7763    6.5807 H   0  0  0  0  0  0  0  0  0  0  0  0
    1.7399   -3.4070    7.5465 H   0  0  0  0  0  0  0  0  0  0  0  0
    3.1131   -2.1447    8.6387 C   0  0  0  0  0  0  0  0  0  0  0  0
    2.3909   -1.8712    9.4125 H   0  0  0  0  0  0  0  0  0  0  0  0
    3.6958   -3.0003    8.9944 H   0  0  0  0  0  0  0  0  0  0  0  0
    3.9629   -0.9785    8.3670 N   0  0  0  0  0  4  0  0  0  0  0  0
    4.7873   -1.2838    7.8510 H   0  0  0  0  0  0  0  0  0  0  0  0
    4.3023   -0.5794    9.2379 H   0  0  0  0  0  0  0  0  0  0  0  0
  1  2  1  6  0  0  0
  1  9  1  0  0  0  0
  1 34  1  0  0  0  0
  3  4  1  0  0  0  0
  5  3  1  0  0  0  0
  7  6  1  0  0  0  0
  7  8  1  0  0  0  0
  9  7  1  0  0  0  0
 10 11  2  0  0  0  0
 10  9  1  0  0  0  0
 11 12  1  0  0  0  0
 12 13  1  0  0  0  0
 12  6  2  0  0  0  0
 13 14  1  0  0  0  0
 15 13  1  0  0  0  0
 16 11  1  0  0  0  0
 17 19  1  0  0  0  0
 17 16  2  0  0  0  0
 18 17  1  0  0  0  0
 19 10  1  0  0  0  0
 20 23  1  0  0  0  0
 20 19  1  0  0  0  0
 21 20  1  0  0  0  0
 22 20  1  0  0  0  0
 23 24  1  0  0  0  0
 23 26  1  0  0  0  0
 25 23  1  0  0  0  0
 26  1  1  0  0  0  0
 26 28  1  0  0  0  0
 26 27  1  1  0  0  0
 28 30  1  0  0  0  0
 28 31  1  0  0  0  0
 29 28  1  0  0  0  0
 31 33  1  0  0  0  0
 31 32  1  0  0  0  0
 34 31  1  0  0  0  0
 34 36  1  0  0  0  0
 35 34  1  0  0  0  0
M  END
$$$$
