CSD_code = XECWOT | q = 0 | S = 0 | Stoichiometry = C16H20ClN3OS2Zn | MND = 5
 OpenBabel04212202113D

 44 47  0  0  1  0  0  0  0  0999 V2000
    1.2745    1.6478    7.5285 Zn  0  0  0  0  0  0  0  0  0  0  0  0
    2.6657    1.6726    5.8066 Cl  0  0  0  0  0  0  0  0  0  0  0  0
   -1.0221    0.6375    7.5567 S   0  0  0  0  0  0  0  0  0  0  0  0
    1.1890   -0.1150    9.3260 S   0  0  0  0  0  0  0  0  0  0  0  0
   -1.6991   -1.3497   12.5465 O   0  0  0  0  0  0  0  0  0  0  0  0
   -1.9756   -2.2471   12.7639 H   0  0  0  0  0  0  0  0  0  0  0  0
   -1.1964   -1.2363    9.4250 N   0  0  0  0  0  0  0  0  0  0  0  0
    2.4809    3.0116    8.7177 N   0  0  0  0  0  0  0  0  0  0  0  0
    0.5516    3.6470    7.0277 N   0  0  0  0  0  0  0  0  0  0  0  0
   -0.4261   -0.3240    8.8272 C   0  0  2  0  0  3  0  0  0  0  0  0
   -0.6216   -2.0890   10.4446 C   0  0  0  0  0  0  0  0  0  0  0  0
    0.3847   -2.3789   10.1255 H   0  0  0  0  0  0  0  0  0  0  0  0
   -1.2356   -2.9858   10.5334 H   0  0  0  0  0  0  0  0  0  0  0  0
   -0.4993   -1.4015   11.8180 C   0  0  0  0  0  0  0  0  0  0  0  0
    0.2791   -1.9186   12.3941 H   0  0  0  0  0  0  0  0  0  0  0  0
   -0.1909   -0.3649   11.6777 H   0  0  0  0  0  0  0  0  0  0  0  0
   -2.5480   -1.5002    8.9354 C   0  0  0  0  0  0  0  0  0  0  0  0
   -2.8706   -0.5771    8.4441 H   0  0  0  0  0  0  0  0  0  0  0  0
   -3.5264   -1.8067   10.0639 C   0  0  0  0  0  0  0  0  0  0  0  0
   -3.4280   -2.8313   10.4168 H   0  0  0  0  0  0  0  0  0  0  0  0
   -4.5405   -1.6796    9.6943 H   0  0  0  0  0  0  0  0  0  0  0  0
   -3.3725   -1.1263   10.8968 H   0  0  0  0  0  0  0  0  0  0  0  0
   -2.5138   -2.6193    7.8945 C   0  0  0  0  0  0  0  0  0  0  0  0
   -1.8679   -2.3370    7.0670 H   0  0  0  0  0  0  0  0  0  0  0  0
   -3.5143   -2.7941    7.5089 H   0  0  0  0  0  0  0  0  0  0  0  0
   -2.1406   -3.5445    8.3291 H   0  0  0  0  0  0  0  0  0  0  0  0
    3.3511    2.6486    9.6413 C   0  0  0  0  0  3  0  0  0  0  0  0
    3.2267    1.6508   10.0397 H   0  0  0  0  0  0  0  0  0  0  0  0
    4.3643    3.4838   10.0847 C   0  0  0  0  0  0  0  0  0  0  0  0
    5.0582    3.1485   10.8383 H   0  0  0  0  0  0  0  0  0  0  0  0
    4.4558    4.7501    9.5314 C   0  0  0  0  0  0  0  0  0  0  0  0
    5.2285    5.4353    9.8465 H   0  0  0  0  0  0  0  0  0  0  0  0
    3.5394    5.1298    8.5657 C   0  0  0  0  0  0  0  0  0  0  0  0
    3.5909    6.1163    8.1357 H   0  0  0  0  0  0  0  0  0  0  0  0
    2.5563    4.2250    8.1685 C   0  0  0  0  0  0  0  0  0  0  0  0
    1.5412    4.5345    7.1484 C   0  0  1  0  0  3  0  0  0  0  0  0
    1.5922    5.6682    6.3400 C   0  0  0  0  0  0  0  0  0  0  0  0
    2.4097    6.3662    6.4134 H   0  0  0  0  0  0  0  0  0  0  0  0
    0.5893    5.8764    5.4085 C   0  0  0  0  0  0  0  0  0  0  0  0
    0.6181    6.7423    4.7639 H   0  0  0  0  0  0  0  0  0  0  0  0
   -0.4434    4.9586    5.3152 C   0  0  0  0  0  0  0  0  0  0  0  0
   -1.2460    5.0862    4.6069 H   0  0  0  0  0  0  0  0  0  0  0  0
   -0.4105    3.8502    6.1470 C   0  0  0  0  0  0  0  0  0  0  0  0
   -1.1813    3.0920    6.1092 H   0  0  0  0  0  0  0  0  0  0  0  0
  1  3  1  0  0  0  0
  1  8  1  0  0  0  0
  1  4  1  0  0  0  0
  2  1  1  0  0  0  0
  3 10  1  0  0  0  0
  5  6  1  0  0  0  0
  7 11  1  0  0  0  0
  8 27  1  0  0  0  0
  9 36  1  0  0  0  0
  9  1  1  0  0  0  0
 10  4  1  0  0  0  0
 10  7  1  6  0  0  0
 11 13  1  0  0  0  0
 11 14  1  0  0  0  0
 12 11  1  0  0  0  0
 14 15  1  0  0  0  0
 14  5  1  0  0  0  0
 16 14  1  0  0  0  0
 17  7  1  0  0  0  0
 17 19  1  0  0  0  0
 18 17  1  0  0  0  0
 19 20  1  0  0  0  0
 19 22  1  0  0  0  0
 21 19  1  0  0  0  0
 23 26  1  0  0  0  0
 23 17  1  0  0  0  0
 24 23  1  0  0  0  0
 25 23  1  0  0  0  0
 27 28  1  0  0  0  0
 27 29  1  0  0  0  0
 29 30  1  0  0  0  0
 31 32  1  0  0  0  0
 31 29  2  0  0  0  0
 33 31  1  0  0  0  0
 34 33  1  0  0  0  0
 35 33  2  0  0  0  0
 35  8  1  0  0  0  0
 36 37  1  6  0  0  0
 36 35  1  0  0  0  0
 37 38  1  0  0  0  0
 39 37  2  0  0  0  0
 40 39  1  0  0  0  0
 41 39  1  0  0  0  0
 41 43  2  0  0  0  0
 42 41  1  0  0  0  0
 43  9  1  0  0  0  0
 44 43  1  0  0  0  0
M  END
$$$$
