CSD_code = XECYIP | q = 0 | S = 0 | Stoichiometry = C17H14Br2Cl4N2Zn | MND = 4
 OpenBabel04212202113D

 40 42  0  0  0  0  0  0  0  0999 V2000
   12.3137   -0.1940   10.5325 Zn  0  0  0  0  0  0  0  0  0  0  0  0
   12.6923   -1.3067   12.5798 Br  0  0  0  0  0  0  0  0  0  0  0  0
   11.9439    1.9735    9.5635 Br  0  0  0  0  0  0  0  0  0  0  0  0
    9.6681   -0.9847    6.4277 Cl  0  0  0  0  0  0  0  0  0  0  0  0
    7.1110   -0.8101   11.1436 Cl  0  0  0  0  0  0  0  0  0  0  0  0
   12.8450   -0.5879    5.1827 Cl  0  0  0  0  0  0  0  0  0  0  0  0
   15.0964    0.2088   10.0257 Cl  0  0  0  0  0  0  0  0  0  0  0  0
   10.3620   -1.0707    9.9486 N   0  0  0  0  0  0  0  0  0  0  0  0
   13.0046   -1.6826    9.0683 N   0  0  0  0  0  0  0  0  0  0  0  0
   11.1057   -3.2524    9.1478 C   0  0  0  0  0  0  0  0  0  0  0  0
   10.2330   -2.4927   10.1501 C   0  0  0  0  0  0  0  0  0  0  0  0
    9.4864   -0.4223    9.3159 C   0  0  0  0  0  3  0  0  0  0  0  0
    8.2473   -0.9538    8.7076 C   0  0  0  0  0  0  0  0  0  0  0  0
    8.2187   -1.2260    7.3423 C   0  0  0  0  0  0  0  0  0  0  0  0
    7.0680   -1.6853    6.7250 C   0  0  0  0  0  0  0  0  0  0  0  0
    5.9245   -1.8718    7.4835 C   0  0  0  0  0  0  0  0  0  0  0  0
    5.9250   -1.6079    8.8423 C   0  0  0  0  0  0  0  0  0  0  0  0
    7.0845   -1.1506    9.4485 C   0  0  0  0  0  0  0  0  0  0  0  0
   12.6092   -3.0389    9.3489 C   0  0  0  0  0  0  0  0  0  0  0  0
   13.5325   -1.4185    7.9484 C   0  0  0  0  0  3  0  0  0  0  0  0
   14.0221   -0.1024    7.5627 C   0  0  0  0  0  0  0  0  0  0  0  0
   13.7882    0.3673    6.2647 C   0  0  0  0  0  0  0  0  0  0  0  0
   14.2544    1.5988    5.8419 C   0  0  0  0  0  0  0  0  0  0  0  0
   14.9929    2.3807    6.7129 C   0  0  0  0  0  0  0  0  0  0  0  0
   15.2580    1.9411    7.9974 C   0  0  0  0  0  0  0  0  0  0  0  0
   14.7644    0.7187    8.4202 C   0  0  0  0  0  0  0  0  0  0  0  0
   10.9012   -4.3174    9.2617 H   0  0  0  0  0  0  0  0  0  0  0  0
   10.8316   -2.9543    8.1322 H   0  0  0  0  0  0  0  0  0  0  0  0
    9.1938   -2.8196   10.0339 H   0  0  0  0  0  0  0  0  0  0  0  0
   10.5703   -2.7130   11.1660 H   0  0  0  0  0  0  0  0  0  0  0  0
    9.6567    0.6413    9.1671 H   0  0  0  0  0  0  0  0  0  0  0  0
    7.0710   -1.8900    5.6667 H   0  0  0  0  0  0  0  0  0  0  0  0
    5.0229   -2.2263    7.0094 H   0  0  0  0  0  0  0  0  0  0  0  0
    5.0357   -1.7519    9.4340 H   0  0  0  0  0  0  0  0  0  0  0  0
   12.8668   -3.2460   10.3906 H   0  0  0  0  0  0  0  0  0  0  0  0
   13.1506   -3.7365    8.6965 H   0  0  0  0  0  0  0  0  0  0  0  0
   13.6513   -2.2003    7.1901 H   0  0  0  0  0  0  0  0  0  0  0  0
   14.0341    1.9403    4.8434 H   0  0  0  0  0  0  0  0  0  0  0  0
   15.3561    3.3435    6.3916 H   0  0  0  0  0  0  0  0  0  0  0  0
   15.8214    2.5520    8.6837 H   0  0  0  0  0  0  0  0  0  0  0  0
  1  2  1  0  0  0  0
  3  1  1  0  0  0  0
  4 14  1  0  0  0  0
  6 22  1  0  0  0  0
  8 11  1  0  0  0  0
  8  1  1  0  0  0  0
  9 19  1  0  0  0  0
  9  1  1  0  0  0  0
 10 27  1  0  0  0  0
 10 19  1  0  0  0  0
 10 11  1  0  0  0  0
 11 30  1  0  0  0  0
 12  8  1  0  0  0  0
 13 12  1  0  0  0  0
 13 18  1  0  0  0  0
 14 13  2  0  0  0  0
 15 14  1  0  0  0  0
 15 16  2  0  0  0  0
 16 17  1  0  0  0  0
 17 34  1  0  0  0  0
 17 18  2  0  0  0  0
 18  5  1  0  0  0  0
 19 35  1  0  0  0  0
 20  9  1  0  0  0  0
 21 20  1  0  0  0  0
 21 26  1  0  0  0  0
 22 21  2  0  0  0  0
 23 22  1  0  0  0  0
 23 24  2  0  0  0  0
 24 25  1  0  0  0  0
 25 26  2  0  0  0  0
 25 40  1  0  0  0  0
 26  7  1  0  0  0  0
 28 10  1  0  0  0  0
 29 11  1  0  0  0  0
 31 12  1  0  0  0  0
 32 15  1  0  0  0  0
 33 16  1  0  0  0  0
 36 19  1  0  0  0  0
 37 20  1  0  0  0  0
 38 23  1  0  0  0  0
 39 24  1  0  0  0  0
M  END
$$$$
