CSD_code = XEDCUG | q = 0 | S = 0 | Stoichiometry = C30H24BrCuIN2P | MND = 4
 OpenBabel04212202113D

 60 65  0  0  0  0  0  0  0  0999 V2000
    4.3237    1.6451    5.4285 I   0  0  0  0  0  0  0  0  0  0  0  0
    4.7814    2.3845    3.1095 Cu  0  0  1  0  0  0  0  0  0  0  0  0
    7.3318    9.0839    4.0996 Br  0  0  0  0  0  0  0  0  0  0  0  0
    3.2269    3.9041    2.5533 P   0  0  0  0  0  4  0  0  0  0  0  0
    6.4378    3.3288    2.5039 N   0  0  0  0  0  0  0  0  0  0  0  0
    5.3914    1.0053    1.8323 N   0  0  0  0  0  0  0  0  0  0  0  0
    7.0159    2.6859    1.5442 C   0  0  0  0  0  0  0  0  0  0  0  0
    6.5618    1.3587    1.2569 C   0  0  0  0  0  0  0  0  0  0  0  0
    7.2728    0.4675    0.4438 C   0  0  0  0  0  0  0  0  0  0  0  0
    6.7774   -0.8025    0.2509 C   0  0  0  0  0  0  0  0  0  0  0  0
    5.5840   -1.1631    0.8781 C   0  0  0  0  0  0  0  0  0  0  0  0
    4.9340   -0.2271    1.6568 C   0  0  0  0  0  0  0  0  0  0  0  0
    6.7065    4.6442    2.8283 C   0  0  0  0  0  0  0  0  0  0  0  0
    6.9743    5.6209    1.8659 C   0  0  0  0  0  0  0  0  0  0  0  0
    7.1602    6.9348    2.2435 C   0  0  0  0  0  0  0  0  0  0  0  0
    7.0936    7.2707    3.5854 C   0  0  0  0  0  0  0  0  0  0  0  0
    6.8348    6.3167    4.5568 C   0  0  0  0  0  0  0  0  0  0  0  0
    6.6289    5.0091    4.1757 C   0  0  0  0  0  0  0  0  0  0  0  0
    3.4270    5.5520    3.2807 C   0  0  0  0  0  0  0  0  0  0  0  0
    3.4127    5.6322    4.6735 C   0  0  0  0  0  0  0  0  0  0  0  0
    3.6185    6.8477    5.2965 C   0  0  0  0  0  0  0  0  0  0  0  0
    3.8560    7.9847    4.5393 C   0  0  0  0  0  0  0  0  0  0  0  0
    3.9002    7.9007    3.1572 C   0  0  0  0  0  0  0  0  0  0  0  0
    3.6949    6.6878    2.5243 C   0  0  0  0  0  0  0  0  0  0  0  0
    2.8602    4.2586    0.8017 C   0  0  0  0  0  0  0  0  0  0  0  0
    3.7681    3.8303   -0.1598 C   0  0  0  0  0  0  0  0  0  0  0  0
    3.5276    4.0692   -1.5012 C   0  0  0  0  0  0  0  0  0  0  0  0
    2.3748    4.7328   -1.8859 C   0  0  0  0  0  0  0  0  0  0  0  0
    1.4626    5.1550   -0.9304 C   0  0  0  0  0  0  0  0  0  0  0  0
    1.6992    4.9190    0.4105 C   0  0  0  0  0  0  0  0  0  0  0  0
    1.5965    3.3691    3.1531 C   0  0  0  0  0  0  0  0  0  0  0  0
    0.6639    4.2075    3.7524 C   0  0  0  0  0  0  0  0  0  0  0  0
   -0.5459    3.6892    4.1785 C   0  0  0  0  0  0  0  0  0  0  0  0
   -0.8299    2.3441    4.0114 C   0  0  0  0  0  0  0  0  0  0  0  0
    0.0976    1.5061    3.4134 C   0  0  0  0  0  0  0  0  0  0  0  0
    1.3075    2.0173    2.9875 C   0  0  0  0  0  0  0  0  0  0  0  0
    7.8452    3.0973    0.9700 H   0  0  0  0  0  0  0  0  0  0  0  0
    8.2020    0.7845   -0.0046 H   0  0  0  0  0  0  0  0  0  0  0  0
    7.3056   -1.5111   -0.3689 H   0  0  0  0  0  0  0  0  0  0  0  0
    5.1690   -2.1501    0.7553 H   0  0  0  0  0  0  0  0  0  0  0  0
    4.0068   -0.4653    2.1608 H   0  0  0  0  0  0  0  0  0  0  0  0
    6.9971    5.3549    0.8185 H   0  0  0  0  0  0  0  0  0  0  0  0
    7.3504    7.6953    1.5014 H   0  0  0  0  0  0  0  0  0  0  0  0
    6.7822    6.5969    5.5972 H   0  0  0  0  0  0  0  0  0  0  0  0
    6.4154    4.2513    4.9140 H   0  0  0  0  0  0  0  0  0  0  0  0
    3.2357    4.7385    5.2573 H   0  0  0  0  0  0  0  0  0  0  0  0
    3.5964    6.9082    6.3744 H   0  0  0  0  0  0  0  0  0  0  0  0
    4.0179    8.9356    5.0247 H   0  0  0  0  0  0  0  0  0  0  0  0
    4.0980    8.7853    2.5690 H   0  0  0  0  0  0  0  0  0  0  0  0
    3.7336    6.6244    1.4449 H   0  0  0  0  0  0  0  0  0  0  0  0
    4.6622    3.3044    0.1511 H   0  0  0  0  0  0  0  0  0  0  0  0
    4.2356    3.7350   -2.2462 H   0  0  0  0  0  0  0  0  0  0  0  0
    2.1839    4.9187   -2.9324 H   0  0  0  0  0  0  0  0  0  0  0  0
    0.5624    5.6690   -1.2344 H   0  0  0  0  0  0  0  0  0  0  0  0
    0.9893    5.2431    1.1591 H   0  0  0  0  0  0  0  0  0  0  0  0
    0.8856    5.2560    3.8971 H   0  0  0  0  0  0  0  0  0  0  0  0
   -1.2683    4.3398    4.6495 H   0  0  0  0  0  0  0  0  0  0  0  0
   -1.7724    1.9460    4.3563 H   0  0  0  0  0  0  0  0  0  0  0  0
   -0.1190    0.4552    3.2933 H   0  0  0  0  0  0  0  0  0  0  0  0
    2.0520    1.3736    2.5338 H   0  0  0  0  0  0  0  0  0  0  0  0
  2  1  1  1  0  0  0
  4  2  1  0  0  0  0
  4 31  1  0  0  0  0
  4 19  1  0  0  0  0
  5 13  1  0  0  0  0
  5  2  1  0  0  0  0
  6  2  1  0  0  0  0
  7  5  1  0  0  0  0
  8  7  2  0  0  0  0
  8  6  1  0  0  0  0
  9  8  1  0  0  0  0
 10  9  2  0  0  0  0
 10 11  1  0  0  0  0
 11 12  2  0  0  0  0
 12  6  1  0  0  0  0
 12 41  1  0  0  0  0
 13 18  1  0  0  0  0
 14 15  1  0  0  0  0
 14 13  2  0  0  0  0
 15 16  2  0  0  0  0
 16  3  1  0  0  0  0
 16 17  1  0  0  0  0
 17 44  1  0  0  0  0
 18 17  2  0  0  0  0
 18 45  1  0  0  0  0
 19 20  1  0  0  0  0
 20 46  1  0  0  0  0
 20 21  2  0  0  0  0
 21 47  1  0  0  0  0
 22 48  1  0  0  0  0
 22 21  1  0  0  0  0
 23 22  2  0  0  0  0
 24 23  1  0  0  0  0
 24 19  2  0  0  0  0
 25  4  1  0  0  0  0
 26 51  1  0  0  0  0
 26 25  2  0  0  0  0
 27 26  1  0  0  0  0
 28 27  2  0  0  0  0
 28 29  1  0  0  0  0
 29 30  2  0  0  0  0
 30 25  1  0  0  0  0
 30 55  1  0  0  0  0
 31 32  1  0  0  0  0
 32 56  1  0  0  0  0
 32 33  2  0  0  0  0
 33 57  1  0  0  0  0
 34 33  1  0  0  0  0
 34 58  1  0  0  0  0
 35 34  2  0  0  0  0
 36 31  2  0  0  0  0
 36 35  1  0  0  0  0
 37  7  1  0  0  0  0
 38  9  1  0  0  0  0
 39 10  1  0  0  0  0
 40 11  1  0  0  0  0
 42 14  1  0  0  0  0
 43 15  1  0  0  0  0
 49 23  1  0  0  0  0
 50 24  1  0  0  0  0
 52 27  1  0  0  0  0
 53 28  1  0  0  0  0
 54 29  1  0  0  0  0
 59 35  1  0  0  0  0
 60 36  1  0  0  0  0
M  END
$$$$
