CSD_code = XEDGIZ | q = 0 | S = 0 | Stoichiometry = C27H22I3N3PRh | MND = 6
 OpenBabel04212202113D

 57 63  0  0  1  0  0  0  0  0999 V2000
    3.4772    9.3012    8.4651 C   0  0  2  0  0  3  0  0  0  0  0  0
    3.5897    7.2848    9.3735 C   0  0  0  0  0  0  0  0  0  0  0  0
    3.8643    6.2568    9.4828 H   0  0  0  0  0  0  0  0  0  0  0  0
    2.8205    8.0704   10.1649 C   0  0  0  0  0  0  0  0  0  0  0  0
    2.3105    7.8444   11.0788 H   0  0  0  0  0  0  0  0  0  0  0  0
    2.1678   10.5555   10.0410 C   0  0  1  0  0  0  0  0  0  0  0  0
    2.7585   10.9033   10.9030 H   0  0  0  0  0  0  0  0  0  0  0  0
    4.8170    7.8634    7.2007 C   0  0  1  0  0  3  0  0  0  0  0  0
    5.4449    6.6619    6.9102 C   0  0  0  0  0  0  0  0  0  0  0  0
    5.3144    5.8091    7.5565 H   0  0  0  0  0  0  0  0  0  0  0  0
    6.2356    6.5954    5.7758 C   0  0  0  0  0  0  0  0  0  0  0  0
    6.7379    5.6747    5.5224 H   0  0  0  0  0  0  0  0  0  0  0  0
    6.3713    7.7199    4.9756 C   0  0  0  0  0  0  0  0  0  0  0  0
    6.9777    7.7035    4.0854 H   0  0  0  0  0  0  0  0  0  0  0  0
    5.7105    8.8808    5.3377 C   0  0  0  0  0  0  0  0  0  0  0  0
    5.7886    9.7829    4.7425 H   0  0  0  0  0  0  0  0  0  0  0  0
    0.7371   10.3321   10.4317 C   0  0  0  0  0  0  0  0  0  0  0  0
    0.3144   10.5497   11.7376 C   0  0  0  0  0  0  0  0  0  0  0  0
    1.0177   10.8940   12.4843 H   0  0  0  0  0  0  0  0  0  0  0  0
   -1.0064   10.3298   12.0862 C   0  0  0  0  0  0  0  0  0  0  0  0
   -1.3275   10.5061   13.1019 H   0  0  0  0  0  0  0  0  0  0  0  0
   -1.9103    9.8841   11.1366 C   0  0  0  0  0  0  0  0  0  0  0  0
   -2.9410    9.7166   11.4104 H   0  0  0  0  0  0  0  0  0  0  0  0
   -1.4901    9.6507    9.8377 C   0  0  0  0  0  0  0  0  0  0  0  0
   -2.1878    9.3003    9.0931 H   0  0  0  0  0  0  0  0  0  0  0  0
   -0.1719    9.8723    9.4858 C   0  0  0  0  0  0  0  0  0  0  0  0
    0.1506    9.6943    8.4701 H   0  0  0  0  0  0  0  0  0  0  0  0
    3.0886   13.3092    9.5237 C   0  0  0  0  0  0  0  0  0  0  0  0
    3.6975   14.2793    8.7311 C   0  0  0  0  0  0  0  0  0  0  0  0
    3.8378   14.1016    7.6735 H   0  0  0  0  0  0  0  0  0  0  0  0
    4.1433   15.4594    9.2925 C   0  0  0  0  0  0  0  0  0  0  0  0
    4.6269   16.1975    8.6712 H   0  0  0  0  0  0  0  0  0  0  0  0
    3.9750   15.6858   10.6487 C   0  0  0  0  0  0  0  0  0  0  0  0
    4.3314   16.6024   11.0938 H   0  0  0  0  0  0  0  0  0  0  0  0
    3.3478   14.7347   11.4349 C   0  0  0  0  0  0  0  0  0  0  0  0
    3.2081   14.9110   12.4916 H   0  0  0  0  0  0  0  0  0  0  0  0
    2.8980   13.5500   10.8789 C   0  0  0  0  0  0  0  0  0  0  0  0
    2.4016   12.8307   11.5144 H   0  0  0  0  0  0  0  0  0  0  0  0
    0.8620   12.5526    8.1670 C   0  0  0  0  0  0  0  0  0  0  0  0
    0.6008   12.8466    6.8348 C   0  0  0  0  0  0  0  0  0  0  0  0
    1.3170   12.6011    6.0653 H   0  0  0  0  0  0  0  0  0  0  0  0
   -0.5850   13.4673    6.4837 C   0  0  0  0  0  0  0  0  0  0  0  0
   -0.7842   13.6838    5.4455 H   0  0  0  0  0  0  0  0  0  0  0  0
   -1.5058   13.8052    7.4591 C   0  0  0  0  0  0  0  0  0  0  0  0
   -2.4373   14.2772    7.1846 H   0  0  0  0  0  0  0  0  0  0  0  0
   -1.2239   13.5574    8.7940 C   0  0  0  0  0  0  0  0  0  0  0  0
   -1.9278   13.8453    9.5609 H   0  0  0  0  0  0  0  0  0  0  0  0
   -0.0378   12.9494    9.1536 C   0  0  0  0  0  0  0  0  0  0  0  0
    0.1881   12.7884   10.1972 H   0  0  0  0  0  0  0  0  0  0  0  0
    4.0018    8.0650    8.3111 N   0  0  0  0  0  0  0  0  0  0  0  0
    2.7654    9.3184    9.5837 N   0  0  0  0  0  0  0  0  0  0  0  0
    4.9531    8.9529    6.4229 N   0  0  0  0  0  0  0  0  0  0  0  0
    2.4727   11.8431    8.6357 P   0  0  0  0  0  4  0  0  0  0  0  0
    3.7747   10.7001    7.1999 Rh  0  0  0  0  0  0  0  0  0  0  0  0
    5.8993   11.3431    8.7473 I   0  0  0  0  0  0  0  0  0  0  0  0
    4.3531   12.4386    5.2688 I   0  0  0  0  0  0  0  0  0  0  0  0
    1.6849    9.5970    5.8691 I   0  0  0  0  0  0  0  0  0  0  0  0
  1 50  1  6  0  0  0
  1 51  1  0  0  0  0
  2  3  1  0  0  0  0
  2  4  2  0  0  0  0
  4  5  1  0  0  0  0
  6 17  1  0  0  0  0
  6  7  1  1  0  0  0
  8  9  1  1  0  0  0
  8 50  1  0  0  0  0
  9 10  1  0  0  0  0
 11  9  2  0  0  0  0
 12 11  1  0  0  0  0
 13 15  2  0  0  0  0
 13 11  1  0  0  0  0
 14 13  1  0  0  0  0
 15 52  1  0  0  0  0
 16 15  1  0  0  0  0
 17 18  1  0  0  0  0
 18 20  2  0  0  0  0
 18 19  1  0  0  0  0
 20 21  1  0  0  0  0
 22 23  1  0  0  0  0
 22 20  1  0  0  0  0
 24 22  2  0  0  0  0
 25 24  1  0  0  0  0
 26 24  1  0  0  0  0
 26 17  2  0  0  0  0
 27 26  1  0  0  0  0
 28 37  1  0  0  0  0
 29 31  1  0  0  0  0
 29 28  2  0  0  0  0
 30 29  1  0  0  0  0
 31 33  2  0  0  0  0
 32 31  1  0  0  0  0
 33 34  1  0  0  0  0
 33 35  1  0  0  0  0
 35 36  1  0  0  0  0
 37 35  2  0  0  0  0
 37 38  1  0  0  0  0
 39 53  1  0  0  0  0
 39 48  1  0  0  0  0
 40 39  2  0  0  0  0
 41 40  1  0  0  0  0
 42 40  1  0  0  0  0
 42 44  2  0  0  0  0
 43 42  1  0  0  0  0
 44 46  1  0  0  0  0
 45 44  1  0  0  0  0
 46 48  2  0  0  0  0
 46 47  1  0  0  0  0
 48 49  1  0  0  0  0
 50  2  1  0  0  0  0
 51  6  1  0  0  0  0
 51  4  1  0  0  0  0
 52 54  1  0  0  0  0
 52  8  1  0  0  0  0
 53 28  1  0  0  0  0
 53  6  1  0  0  0  0
 54  1  1  0  0  0  0
 54 53  1  0  0  0  0
 54 55  1  0  0  0  0
 56 54  1  0  0  0  0
 57 54  1  0  0  0  0
M  END
$$$$
