CSD_code = XEDMUQ | q = 0 | S = 0 | Stoichiometry = C30H31AuClN | MND = 2
 OpenBabel04212202113D

 64 67  0  0  1  0  0  0  0  0999 V2000
   -3.6680    2.7761    4.6076 Au  0  0  0  0  0  0  0  0  0  0  0  0
   -5.7842    2.6704    5.3488 Cl  0  0  0  0  0  0  0  0  0  0  0  0
   -1.7794    2.8247    3.9520 C   0  0  2  0  0  3  0  0  0  0  0  0
   -1.0895    1.6927    3.7218 N   0  0  0  0  0  0  0  0  0  0  0  0
    0.1837    1.6486    3.2884 C   0  0  0  0  0  0  0  0  0  0  0  0
    0.6162    0.6683    3.1451 H   0  0  0  0  0  0  0  0  0  0  0  0
    0.8876    2.8003    3.0425 C   0  0  0  0  0  0  0  0  0  0  0  0
    0.2274    4.0176    3.2590 C   0  0  0  0  0  0  0  0  0  0  0  0
    0.7492    4.9472    3.0772 H   0  0  0  0  0  0  0  0  0  0  0  0
   -1.0777    4.0239    3.7046 C   0  0  0  0  0  0  0  0  0  0  0  0
   -1.7484    0.4416    3.9499 C   0  0  0  0  0  0  0  0  0  0  0  0
   -1.6693   -0.1466    5.2113 C   0  0  0  0  0  0  0  0  0  0  0  0
   -2.3086   -1.3592    5.4067 C   0  0  0  0  0  0  0  0  0  0  0  0
   -2.2690   -1.8241    6.3807 H   0  0  0  0  0  0  0  0  0  0  0  0
   -3.0114   -1.9830    4.3834 C   0  0  0  0  0  0  0  0  0  0  0  0
   -3.0650   -1.3731    3.1391 C   0  0  0  0  0  0  0  0  0  0  0  0
   -3.6143   -1.8451    2.3379 H   0  0  0  0  0  0  0  0  0  0  0  0
   -2.4386   -0.1595    2.9004 C   0  0  0  0  0  0  0  0  0  0  0  0
   -0.9524    0.5480    6.3275 C   0  0  0  0  0  0  0  0  0  0  0  0
   -0.8723   -0.1017    7.1942 H   0  0  0  0  0  0  0  0  0  0  0  0
   -1.5088    1.4410    6.6166 H   0  0  0  0  0  0  0  0  0  0  0  0
    0.0483    0.8593    6.0282 H   0  0  0  0  0  0  0  0  0  0  0  0
   -3.6953   -3.2905    4.6336 C   0  0  0  0  0  0  0  0  0  0  0  0
   -2.9595   -4.0721    4.8215 H   0  0  0  0  0  0  0  0  0  0  0  0
   -4.3021   -3.5832    3.7813 H   0  0  0  0  0  0  0  0  0  0  0  0
   -4.3356   -3.2178    5.5104 H   0  0  0  0  0  0  0  0  0  0  0  0
   -2.5301    0.5186    1.5682 C   0  0  0  0  0  0  0  0  0  0  0  0
   -3.0912    1.4488    1.6676 H   0  0  0  0  0  0  0  0  0  0  0  0
   -3.0409   -0.1163    0.8501 H   0  0  0  0  0  0  0  0  0  0  0  0
   -1.5420    0.7630    1.1777 H   0  0  0  0  0  0  0  0  0  0  0  0
    2.2896    2.7591    2.5683 C   0  0  0  0  0  0  0  0  0  0  0  0
    2.5531    2.8300    1.1998 C   0  0  0  0  0  0  0  0  0  0  0  0
    3.8719    2.8103    0.7700 C   0  0  0  0  0  0  0  0  0  0  0  0
    4.0869    2.8652   -0.2870 H   0  0  0  0  0  0  0  0  0  0  0  0
    4.9081    2.7232    1.6819 C   0  0  0  0  0  0  0  0  0  0  0  0
    5.9308    2.7122    1.3361 H   0  0  0  0  0  0  0  0  0  0  0  0
    4.6366    2.6501    3.0358 C   0  0  0  0  0  0  0  0  0  0  0  0
    5.4479    2.5813    3.7454 H   0  0  0  0  0  0  0  0  0  0  0  0
    3.3276    2.6664    3.4958 C   0  0  0  0  0  0  0  0  0  0  0  0
    1.4229    2.9172    0.2178 C   0  0  0  0  0  0  0  0  0  0  0  0
    1.8012    2.9744   -0.7992 H   0  0  0  0  0  0  0  0  0  0  0  0
    0.8110    3.7979    0.4102 H   0  0  0  0  0  0  0  0  0  0  0  0
    0.7778    2.0421    0.2978 H   0  0  0  0  0  0  0  0  0  0  0  0
    3.0270    2.5755    4.9625 C   0  0  0  0  0  0  0  0  0  0  0  0
    3.9363    2.6831    5.5477 H   0  0  0  0  0  0  0  0  0  0  0  0
    2.5817    1.6086    5.1990 H   0  0  0  0  0  0  0  0  0  0  0  0
    2.3225    3.3491    5.2653 H   0  0  0  0  0  0  0  0  0  0  0  0
   -1.7835    5.3040    3.9392 C   0  0  0  0  0  0  0  0  0  0  0  0
   -1.7004    5.9146    5.1908 C   0  0  0  0  0  0  0  0  0  0  0  0
   -2.3681    7.1122    5.3975 C   0  0  0  0  0  0  0  0  0  0  0  0
   -2.3154    7.5897    6.3650 H   0  0  0  0  0  0  0  0  0  0  0  0
   -3.1038    7.6924    4.3808 C   0  0  0  0  0  0  0  0  0  0  0  0
   -3.6230    8.6231    4.5544 H   0  0  0  0  0  0  0  0  0  0  0  0
   -3.1822    7.0785    3.1445 C   0  0  0  0  0  0  0  0  0  0  0  0
   -3.7643    7.5298    2.3544 H   0  0  0  0  0  0  0  0  0  0  0  0
   -2.5259    5.8800    2.9083 C   0  0  0  0  0  0  0  0  0  0  0  0
   -0.9195    5.2654    6.2940 C   0  0  0  0  0  0  0  0  0  0  0  0
   -1.3671    4.3045    6.5499 H   0  0  0  0  0  0  0  0  0  0  0  0
   -0.9150    5.8916    7.1821 H   0  0  0  0  0  0  0  0  0  0  0  0
    0.1115    5.0847    5.9892 H   0  0  0  0  0  0  0  0  0  0  0  0
   -2.6294    5.1930    1.5795 C   0  0  0  0  0  0  0  0  0  0  0  0
   -3.1509    5.8201    0.8615 H   0  0  0  0  0  0  0  0  0  0  0  0
   -3.1833    4.2599    1.6896 H   0  0  0  0  0  0  0  0  0  0  0  0
   -1.6429    4.9521    1.1837 H   0  0  0  0  0  0  0  0  0  0  0  0
  1  2  1  0  0  0  0
  3  1  1  1  0  0  0
  4 11  1  0  0  0  0
  4  3  1  0  0  0  0
  5  4  1  0  0  0  0
  6  5  1  0  0  0  0
  7  8  1  0  0  0  0
  7  5  2  0  0  0  0
  8 10  2  0  0  0  0
  9  8  1  0  0  0  0
 10 48  1  0  0  0  0
 10  3  1  0  0  0  0
 11 12  1  0  0  0  0
 12 13  2  0  0  0  0
 12 19  1  0  0  0  0
 13 14  1  0  0  0  0
 15 23  1  0  0  0  0
 15 13  1  0  0  0  0
 16 15  2  0  0  0  0
 17 16  1  0  0  0  0
 18 16  1  0  0  0  0
 18 11  2  0  0  0  0
 19 21  1  0  0  0  0
 19 20  1  0  0  0  0
 22 19  1  0  0  0  0
 23 24  1  0  0  0  0
 23 26  1  0  0  0  0
 25 23  1  0  0  0  0
 27 28  1  0  0  0  0
 27 18  1  0  0  0  0
 29 27  1  0  0  0  0
 30 27  1  0  0  0  0
 31  7  1  0  0  0  0
 31 39  1  0  0  0  0
 32 31  2  0  0  0  0
 33 32  1  0  0  0  0
 33 35  2  0  0  0  0
 34 33  1  0  0  0  0
 35 37  1  0  0  0  0
 36 35  1  0  0  0  0
 37 39  2  0  0  0  0
 37 38  1  0  0  0  0
 39 44  1  0  0  0  0
 40 43  1  0  0  0  0
 40 42  1  0  0  0  0
 40 32  1  0  0  0  0
 41 40  1  0  0  0  0
 44 46  1  0  0  0  0
 44 47  1  0  0  0  0
 44 45  1  0  0  0  0
 48 49  1  0  0  0  0
 49 50  2  0  0  0  0
 49 57  1  0  0  0  0
 50 51  1  0  0  0  0
 52 53  1  0  0  0  0
 52 50  1  0  0  0  0
 54 52  2  0  0  0  0
 55 54  1  0  0  0  0
 56 54  1  0  0  0  0
 56 48  2  0  0  0  0
 57 58  1  0  0  0  0
 57 59  1  0  0  0  0
 60 57  1  0  0  0  0
 61 63  1  0  0  0  0
 61 56  1  0  0  0  0
 62 61  1  0  0  0  0
 64 61  1  0  0  0  0
M  END
$$$$
