CSD_code = XEFJUN | q = 0 | S = 0 | Stoichiometry = C7H9Cl4NTi | MND = 5
 OpenBabel04212202123D

 22 22  0  0  1  0  0  0  0  0999 V2000
    5.1220    6.3145    5.7242 Ti  0  0  0  0  0  0  0  0  0  0  0  0
    7.0666    5.6798    5.0527 Cl  0  0  0  0  0  0  0  0  0  0  0  0
    3.9621    4.9409    4.4011 Cl  0  0  0  0  0  0  0  0  0  0  0  0
    5.8462    7.3987    7.5365 Cl  0  0  0  0  0  0  0  0  0  0  0  0
    4.8535    8.0705    4.5081 Cl  0  0  0  0  0  0  0  0  0  0  0  0
    3.8747    5.4807    7.1280 N   0  0  0  0  0  0  0  0  0  0  0  0
    4.2547    4.3739    7.7756 C   0  0  1  0  0  3  0  0  0  0  0  0
    5.5879    3.8061    7.4130 C   0  0  0  0  0  0  0  0  0  0  0  0
    5.6063    3.5575    6.3438 H   0  0  0  0  0  0  0  0  0  0  0  0
    5.7973    2.9081    7.9896 H   0  0  0  0  0  0  0  0  0  0  0  0
    6.3725    4.5484    7.6097 H   0  0  0  0  0  0  0  0  0  0  0  0
    3.4361    3.7937    8.7375 C   0  0  0  0  0  0  0  0  0  0  0  0
    3.7580    2.9016    9.2504 H   0  0  0  0  0  0  0  0  0  0  0  0
    2.2123    4.3746    9.0240 C   0  0  0  0  0  0  0  0  0  0  0  0
    1.5613    3.9417    9.7678 H   0  0  0  0  0  0  0  0  0  0  0  0
    1.8365    5.5193    8.3417 C   0  0  0  0  0  0  0  0  0  0  0  0
    0.8900    5.9958    8.5409 H   0  0  0  0  0  0  0  0  0  0  0  0
    2.6957    6.0554    7.3897 C   0  0  0  0  0  0  0  0  0  0  0  0
    2.3600    7.2865    6.6132 C   0  0  0  0  0  0  0  0  0  0  0  0
    3.1171    8.0598    6.7985 H   0  0  0  0  0  0  0  0  0  0  0  0
    1.3833    7.6710    6.8981 H   0  0  0  0  0  0  0  0  0  0  0  0
    2.3548    7.0568    5.5395 H   0  0  0  0  0  0  0  0  0  0  0  0
  1  6  1  0  0  0  0
  1  4  1  0  0  0  0
  2  1  1  0  0  0  0
  3  1  1  0  0  0  0
  5  1  1  0  0  0  0
  6 18  1  0  0  0  0
  6  7  1  0  0  0  0
  7  8  1  1  0  0  0
  7 12  1  0  0  0  0
  8 11  1  0  0  0  0
  8 10  1  0  0  0  0
  9  8  1  0  0  0  0
 12 14  2  0  0  0  0
 12 13  1  0  0  0  0
 14 15  1  0  0  0  0
 16 17  1  0  0  0  0
 16 14  1  0  0  0  0
 18 16  2  0  0  0  0
 19 20  1  0  0  0  0
 19 21  1  0  0  0  0
 19 18  1  0  0  0  0
 22 19  1  0  0  0  0
M  END
$$$$
