CSD_code = XEFPOO | q = 0 | S = 0 | Stoichiometry = C16H11ClN2O4Ru | MND = 6
 OpenBabel04212202123D

 35 38  0  0  0  0  0  0  0  0999 V2000
    7.8221    2.0382    2.9077 Ru  0  0  0  0  0  0  0  0  0  0  0  0
    9.7313    3.3716    3.6548 Cl  0  0  0  0  0  0  0  0  0  0  0  0
    7.2295    1.6174    4.6160 C   0  0  0  0  0  2  0  0  0  0  0  0
    6.8958    1.3560    5.6775 O   0  0  0  0  0  1  0  0  0  0  0  0
    8.7304    0.4190    2.8869 C   0  0  0  0  0  2  0  0  0  0  0  0
    9.3021   -0.5709    2.9023 O   0  0  0  0  0  1  0  0  0  0  0  0
    8.4493    2.6283    1.0572 N   0  0  0  0  0  0  0  0  0  0  0  0
    6.8939    3.8535    2.8346 N   0  0  0  0  0  0  0  0  0  0  0  0
    9.2464    2.0154    0.1996 C   0  0  0  0  0  0  0  0  0  0  0  0
    9.5867    1.0220    0.4661 H   0  0  0  0  0  0  0  0  0  0  0  0
    9.6561    2.5920   -1.0036 C   0  0  0  0  0  0  0  0  0  0  0  0
   10.3085    2.0369   -1.6588 H   0  0  0  0  0  0  0  0  0  0  0  0
    9.2244    3.8548   -1.3354 C   0  0  0  0  0  0  0  0  0  0  0  0
    9.5236    4.3268   -2.2592 H   0  0  0  0  0  0  0  0  0  0  0  0
    8.3833    4.5354   -0.4424 C   0  0  0  0  0  0  0  0  0  0  0  0
    8.0223    3.8710    0.7490 C   0  0  0  0  0  0  0  0  0  0  0  0
    7.1877    4.5293    1.7036 C   0  0  0  0  0  0  0  0  0  0  0  0
    6.7308    5.8401    1.4501 C   0  0  0  0  0  0  0  0  0  0  0  0
    5.9354    6.4511    2.4309 C   0  0  0  0  0  0  0  0  0  0  0  0
    5.5651    7.4535    2.2764 H   0  0  0  0  0  0  0  0  0  0  0  0
    5.6497    5.7513    3.5798 C   0  0  0  0  0  0  0  0  0  0  0  0
    5.0466    6.1860    4.3610 H   0  0  0  0  0  0  0  0  0  0  0  0
    6.1467    4.4573    3.7424 C   0  0  0  0  0  0  0  0  0  0  0  0
    5.9264    3.9036    4.6471 H   0  0  0  0  0  0  0  0  0  0  0  0
    7.8923    5.8529   -0.6750 C   0  0  0  0  0  0  0  0  0  0  0  0
    8.1758    6.3440   -1.5940 H   0  0  0  0  0  0  0  0  0  0  0  0
    7.1020    6.4773    0.2307 C   0  0  0  0  0  0  0  0  0  0  0  0
    6.7397    7.4788    0.0520 H   0  0  0  0  0  0  0  0  0  0  0  0
    6.1793    1.2740    2.0043 C   0  0  0  0  0  0  0  0  0  0  0  0
    5.6453    1.8644    1.0885 O   0  0  0  0  0  0  0  0  0  0  0  0
    5.7170    0.1083    2.4718 O   0  0  0  0  0  0  0  0  0  0  0  0
    4.5528   -0.4305    1.8352 C   0  0  0  0  0  0  0  0  0  0  0  0
    3.7724    0.3305    1.7764 H   0  0  0  0  0  0  0  0  0  0  0  0
    4.2307   -1.2687    2.4468 H   0  0  0  0  0  0  0  0  0  0  0  0
    4.7997   -0.7651    0.8259 H   0  0  0  0  0  0  0  0  0  0  0  0
  1  2  1  0  0  0  0
  1  3  1  0  0  0  0
  3  4  1  0  0  0  0
  5  6  1  0  0  0  0
  5  1  1  0  0  0  0
  7  1  1  0  0  0  0
  8  1  1  0  0  0  0
  8 23  1  0  0  0  0
  9 10  1  0  0  0  0
  9  7  1  0  0  0  0
 11  9  2  0  0  0  0
 12 11  1  0  0  0  0
 13 11  1  0  0  0  0
 13 15  2  0  0  0  0
 14 13  1  0  0  0  0
 15 16  1  0  0  0  0
 16  7  1  0  0  0  0
 16 17  2  0  0  0  0
 17  8  1  0  0  0  0
 18 17  1  0  0  0  0
 18 19  2  0  0  0  0
 19 21  1  0  0  0  0
 20 19  1  0  0  0  0
 21 23  2  0  0  0  0
 21 22  1  0  0  0  0
 23 24  1  0  0  0  0
 25 15  1  0  0  0  0
 25 27  2  0  0  0  0
 26 25  1  0  0  0  0
 27 18  1  0  0  0  0
 28 27  1  0  0  0  0
 29 31  1  0  0  0  0
 29  1  1  0  0  0  0
 30 29  2  0  0  0  0
 32 34  1  0  0  0  0
 32 31  1  0  0  0  0
 33 32  1  0  0  0  0
 35 32  1  0  0  0  0
M  END
$$$$
