CSD_code = XEFPON | q = 0 | S = 0 | Stoichiometry = C18H19IN2Pt | MND = 6
 OpenBabel04212202123D

 41 44  0  0  1  0  0  0  0  0999 V2000
    7.1006    3.6139   11.4061 Pt  0  0  0  0  0  0  0  0  0  0  0  0
    6.2966    5.7613    9.9373 I   0  0  0  0  0  0  0  0  0  0  0  0
    6.7390    4.6183   13.1702 C   0  0  0  0  0  0  0  0  0  0  0  0
    9.0422    4.2609   11.6801 C   0  0  0  0  0  0  0  0  0  0  0  0
    7.2936    2.6125    9.4253 N   0  0  0  0  0  0  0  0  0  0  0  0
    6.1835    1.9886    9.0160 C   0  0  2  0  0  3  0  0  0  0  0  0
    6.0198    1.5987    7.6867 C   0  0  0  0  0  0  0  0  0  0  0  0
    7.0316    1.8466    6.7785 C   0  0  0  0  0  0  0  0  0  0  0  0
    8.1809    2.4844    7.2195 C   0  0  0  0  0  0  0  0  0  0  0  0
    8.2592    2.8531    8.5504 C   0  0  0  0  0  0  0  0  0  0  0  0
    5.1088    2.6469   11.0505 N   0  0  0  0  0  0  0  0  0  0  0  0
    5.1135    1.8071   10.0074 C   0  0  1  0  0  3  0  0  0  0  0  0
    4.1277    0.8322    9.8586 C   0  0  0  0  0  0  0  0  0  0  0  0
    3.1012    0.7598   10.7813 C   0  0  0  0  0  0  0  0  0  0  0  0
    3.0747    1.6771   11.8203 C   0  0  0  0  0  0  0  0  0  0  0  0
    4.1073    2.5929   11.9155 C   0  0  0  0  0  0  0  0  0  0  0  0
    7.5638    1.8749   12.3651 C   0  0  0  0  0  0  0  0  0  0  0  0
    8.5474    1.0413   11.8456 C   0  0  0  0  0  0  0  0  0  0  0  0
    8.7524   -0.2306   12.3570 C   0  0  0  0  0  0  0  0  0  0  0  0
    7.9729   -0.6980   13.3991 C   0  0  0  0  0  0  0  0  0  0  0  0
    6.9912    0.1202   13.9269 C   0  0  0  0  0  0  0  0  0  0  0  0
    6.7899    1.3922   13.4140 C   0  0  0  0  0  0  0  0  0  0  0  0
    7.1813    5.6161   13.1415 H   0  0  0  0  0  0  0  0  0  0  0  0
    7.1077    4.1079   14.0606 H   0  0  0  0  0  0  0  0  0  0  0  0
    5.6538    4.7419   13.2487 H   0  0  0  0  0  0  0  0  0  0  0  0
    9.6946    3.6963   11.0076 H   0  0  0  0  0  0  0  0  0  0  0  0
    9.4090    4.1172   12.6972 H   0  0  0  0  0  0  0  0  0  0  0  0
    9.1205    5.3212   11.4311 H   0  0  0  0  0  0  0  0  0  0  0  0
    5.0995    1.1402    7.3630 H   0  0  0  0  0  0  0  0  0  0  0  0
    6.9190    1.5621    5.7435 H   0  0  0  0  0  0  0  0  0  0  0  0
    8.9921    2.7084    6.5461 H   0  0  0  0  0  0  0  0  0  0  0  0
    9.1281    3.3798    8.9226 H   0  0  0  0  0  0  0  0  0  0  0  0
    4.1768    0.1287    9.0431 H   0  0  0  0  0  0  0  0  0  0  0  0
    2.3327    0.0077   10.6868 H   0  0  0  0  0  0  0  0  0  0  0  0
    2.2788    1.6783   12.5473 H   0  0  0  0  0  0  0  0  0  0  0  0
    4.1208    3.3215   12.7151 H   0  0  0  0  0  0  0  0  0  0  0  0
    9.1821    1.3693   11.0322 H   0  0  0  0  0  0  0  0  0  0  0  0
    8.1308   -1.6896   13.7978 H   0  0  0  0  0  0  0  0  0  0  0  0
    9.5264   -0.8567   11.9351 H   0  0  0  0  0  0  0  0  0  0  0  0
    6.3750   -0.2288   14.7439 H   0  0  0  0  0  0  0  0  0  0  0  0
    6.0142    2.0017   13.8587 H   0  0  0  0  0  0  0  0  0  0  0  0
  1  4  1  0  0  0  0
  1 17  1  0  0  0  0
  1  3  1  0  0  0  0
  2  1  1  0  0  0  0
  3 25  1  0  0  0  0
  3 24  1  0  0  0  0
  4 27  1  0  0  0  0
  5  1  1  0  0  0  0
  6  7  1  6  0  0  0
  6  5  1  0  0  0  0
  6 12  1  0  0  0  0
  8  9  1  0  0  0  0
  8  7  2  0  0  0  0
  9 10  2  0  0  0  0
 10 32  1  0  0  0  0
 10  5  1  0  0  0  0
 11  1  1  0  0  0  0
 11 16  1  0  0  0  0
 12 13  1  6  0  0  0
 12 11  1  0  0  0  0
 13 14  2  0  0  0  0
 14 15  1  0  0  0  0
 15 16  2  0  0  0  0
 15 35  1  0  0  0  0
 16 36  1  0  0  0  0
 17 22  1  0  0  0  0
 18 19  1  0  0  0  0
 18 17  2  0  0  0  0
 19 20  2  0  0  0  0
 20 38  1  0  0  0  0
 20 21  1  0  0  0  0
 21 40  1  0  0  0  0
 22 41  1  0  0  0  0
 22 21  2  0  0  0  0
 23  3  1  0  0  0  0
 26  4  1  0  0  0  0
 28  4  1  0  0  0  0
 29  7  1  0  0  0  0
 30  8  1  0  0  0  0
 31  9  1  0  0  0  0
 33 13  1  0  0  0  0
 34 14  1  0  0  0  0
 37 18  1  0  0  0  0
 39 19  1  0  0  0  0
M  END
$$$$
