CSD_code = XEFQAB | q = 0 | S = 0 | Stoichiometry = C19H17ClN2O4Ru | MND = 6
 OpenBabel04212202123D

 44 47  0  0  0  0  0  0  0  0999 V2000
    6.5433    4.0142   -3.4039 Ru  0  0  0  0  0  0  0  0  0  0  0  0
    5.7515    1.9823   -2.2815 Cl  0  0  0  0  0  0  0  0  0  0  0  0
    5.9449    3.0557   -6.1821 O   0  0  0  0  0  1  0  0  0  0  0  0
    9.3498    3.0323   -3.7973 O   0  0  0  0  0  1  0  0  0  0  0  0
    6.5231    6.8548   -3.4003 O   0  0  0  0  0  0  0  0  0  0  0  0
    7.7518    6.0189   -5.0777 O   0  0  0  0  0  0  0  0  0  0  0  0
    6.8197    4.6607   -1.4915 N   0  0  0  0  0  0  0  0  0  0  0  0
    4.6532    4.6632   -3.0044 N   0  0  0  0  0  0  0  0  0  0  0  0
    6.1681    3.4328   -5.1252 C   0  0  0  0  0  2  0  0  0  0  0  0
    8.2848    3.4207   -3.6434 C   0  0  0  0  0  2  0  0  0  0  0  0
    7.9112    4.6287   -0.7487 C   0  0  0  0  0  0  0  0  0  0  0  0
    8.8204    4.2769   -1.2213 H   0  0  0  0  0  0  0  0  0  0  0  0
    7.9313    5.0189    0.5878 C   0  0  0  0  0  0  0  0  0  0  0  0
    8.8611    4.9637    1.1328 H   0  0  0  0  0  0  0  0  0  0  0  0
    6.7834    5.4671    1.2100 C   0  0  0  0  0  0  0  0  0  0  0  0
    5.6027    5.5048    0.4331 C   0  0  0  0  0  0  0  0  0  0  0  0
    5.6775    5.0906   -0.9134 C   0  0  0  0  0  0  0  0  0  0  0  0
    4.5041    5.0903   -1.7321 C   0  0  0  0  0  0  0  0  0  0  0  0
    3.2654    5.5012   -1.1964 C   0  0  0  0  0  0  0  0  0  0  0  0
    2.1282    5.4598   -2.0355 C   0  0  0  0  0  0  0  0  0  0  0  0
    2.3172    5.0163   -3.3290 C   0  0  0  0  0  0  0  0  0  0  0  0
    1.4846    4.9599   -4.0133 H   0  0  0  0  0  0  0  0  0  0  0  0
    3.5797    4.6317   -3.7729 C   0  0  0  0  0  0  0  0  0  0  0  0
    3.7105    4.2838   -4.7905 H   0  0  0  0  0  0  0  0  0  0  0  0
    4.3396    5.9274    0.9376 C   0  0  0  0  0  0  0  0  0  0  0  0
    4.2756    6.2490    1.9650 H   0  0  0  0  0  0  0  0  0  0  0  0
    3.2278    5.9251    0.1628 C   0  0  0  0  0  0  0  0  0  0  0  0
    2.2852    6.2451    0.5777 H   0  0  0  0  0  0  0  0  0  0  0  0
    6.7939    5.8861    2.6427 C   0  0  0  0  0  0  0  0  0  0  0  0
    7.7951    5.8013    3.0560 H   0  0  0  0  0  0  0  0  0  0  0  0
    6.1233    5.2574    3.2272 H   0  0  0  0  0  0  0  0  0  0  0  0
    6.4624    6.9188    2.7421 H   0  0  0  0  0  0  0  0  0  0  0  0
    0.7781    5.8703   -1.5486 C   0  0  0  0  0  0  0  0  0  0  0  0
    0.7897    6.9082   -1.2181 H   0  0  0  0  0  0  0  0  0  0  0  0
    0.4727    5.2502   -0.7068 H   0  0  0  0  0  0  0  0  0  0  0  0
    0.0411    5.7662   -2.3402 H   0  0  0  0  0  0  0  0  0  0  0  0
    6.9660    5.8985   -4.0028 C   0  0  0  0  0  0  0  0  0  0  0  0
    8.0450    7.3471   -5.5484 C   0  0  0  0  0  0  0  0  0  0  0  0
    8.9873    7.2555   -6.0919 H   0  0  0  0  0  0  0  0  0  0  0  0
    8.1720    8.0046   -4.6818 H   0  0  0  0  0  0  0  0  0  0  0  0
    6.9354    7.8654   -6.4507 C   0  0  0  0  0  0  0  0  0  0  0  0
    6.7722    7.1749   -7.2746 H   0  0  0  0  0  0  0  0  0  0  0  0
    7.2088    8.8388   -6.8488 H   0  0  0  0  0  0  0  0  0  0  0  0
    6.0128    7.9619   -5.8830 H   0  0  0  0  0  0  0  0  0  0  0  0
  1  8  1  0  0  0  0
  1  2  1  0  0  0  0
  1  7  1  0  0  0  0
  3  9  1  0  0  0  0
  4 10  1  0  0  0  0
  6 37  1  0  0  0  0
  7 17  1  0  0  0  0
  7 11  1  0  0  0  0
  8 18  1  0  0  0  0
  9  1  1  0  0  0  0
 10  1  1  0  0  0  0
 11 13  2  0  0  0  0
 12 11  1  0  0  0  0
 13 14  1  0  0  0  0
 13 15  1  0  0  0  0
 15 29  1  0  0  0  0
 16 25  1  0  0  0  0
 16 15  2  0  0  0  0
 17 16  1  0  0  0  0
 18 19  1  0  0  0  0
 18 17  2  0  0  0  0
 19 27  1  0  0  0  0
 20 33  1  0  0  0  0
 20 19  2  0  0  0  0
 21 20  1  0  0  0  0
 22 21  1  0  0  0  0
 23 21  2  0  0  0  0
 23  8  1  0  0  0  0
 24 23  1  0  0  0  0
 25 26  1  0  0  0  0
 27 28  1  0  0  0  0
 27 25  2  0  0  0  0
 29 32  1  0  0  0  0
 29 30  1  0  0  0  0
 29 31  1  0  0  0  0
 33 34  1  0  0  0  0
 33 35  1  0  0  0  0
 36 33  1  0  0  0  0
 37  1  1  0  0  0  0
 37  5  2  0  0  0  0
 38  6  1  0  0  0  0
 38 40  1  0  0  0  0
 39 38  1  0  0  0  0
 41 44  1  0  0  0  0
 41 38  1  0  0  0  0
 42 41  1  0  0  0  0
 43 41  1  0  0  0  0
M  END
$$$$
