CSD_code = XEFREF | q = 0 | S = 0 | Stoichiometry = C30H26Cl2N2O2Pt | MND = 4
 OpenBabel04212202123D

 63 68  0  0  1  0  0  0  0  0999 V2000
   10.4328   11.5446    9.7277 Pt  0  0  0  0  0  0  0  0  0  0  0  0
    9.8880   10.9959   11.9172 Cl  0  0  0  0  0  0  0  0  0  0  0  0
   10.8948   12.1449    7.5333 Cl  0  0  0  0  0  0  0  0  0  0  0  0
   12.7269   14.9028   10.4862 O   0  0  0  0  0  0  0  0  0  0  0  0
    8.6888    7.8592    9.0318 O   0  0  0  0  0  0  0  0  0  0  0  0
   11.2761   13.2360   10.2757 N   0  0  0  0  0  0  0  0  0  0  0  0
    9.4226    9.9498    9.1700 N   0  0  0  0  0  0  0  0  0  0  0  0
   12.5070   13.5890   10.3860 C   0  0  2  0  0  3  0  0  0  0  0  0
   11.4671   15.5810   10.3389 C   0  0  2  0  0  0  0  0  0  0  0  0
   11.3412   16.2219   11.2177 H   0  0  0  0  0  0  0  0  0  0  0  0
   10.4408   14.4248   10.2996 C   0  0  0  0  0  0  0  0  0  0  0  0
    9.7954   14.3961   11.1832 H   0  0  0  0  0  0  0  0  0  0  0  0
    9.8157   14.4637    9.4015 H   0  0  0  0  0  0  0  0  0  0  0  0
   13.6572   12.6986   10.4407 C   0  0  0  0  0  0  0  0  0  0  0  0
   13.5159   11.3801   10.8734 C   0  0  0  0  0  0  0  0  0  0  0  0
   12.5434   11.0079   11.1733 H   0  0  0  0  0  0  0  0  0  0  0  0
   14.6283   10.5648   10.9600 C   0  0  0  0  0  0  0  0  0  0  0  0
   14.5188    9.5511   11.3144 H   0  0  0  0  0  0  0  0  0  0  0  0
   15.8777   11.0467   10.6014 C   0  0  0  0  0  0  0  0  0  0  0  0
   16.7435   10.4044   10.6679 H   0  0  0  0  0  0  0  0  0  0  0  0
   16.0191   12.3544   10.1632 C   0  0  0  0  0  0  0  0  0  0  0  0
   16.9925   12.7290    9.8838 H   0  0  0  0  0  0  0  0  0  0  0  0
   14.9173   13.1843   10.0907 C   0  0  0  0  0  0  0  0  0  0  0  0
   15.0152   14.2062    9.7581 H   0  0  0  0  0  0  0  0  0  0  0  0
   11.4820   16.4116    9.0804 C   0  0  0  0  0  0  0  0  0  0  0  0
   11.3386   17.7906    9.1430 C   0  0  0  0  0  0  0  0  0  0  0  0
   11.2080   18.2730   10.1013 H   0  0  0  0  0  0  0  0  0  0  0  0
   11.3586   18.5462    7.9839 C   0  0  0  0  0  0  0  0  0  0  0  0
   11.2423   19.6185    8.0404 H   0  0  0  0  0  0  0  0  0  0  0  0
   11.5305   17.9288    6.7567 C   0  0  0  0  0  0  0  0  0  0  0  0
   11.5482   18.5195    5.8528 H   0  0  0  0  0  0  0  0  0  0  0  0
   11.6794   16.5537    6.6907 C   0  0  0  0  0  0  0  0  0  0  0  0
   11.8119   16.0655    5.7372 H   0  0  0  0  0  0  0  0  0  0  0  0
   11.6546   15.7942    7.8465 C   0  0  0  0  0  0  0  0  0  0  0  0
   11.7633   14.7209    7.7808 H   0  0  0  0  0  0  0  0  0  0  0  0
    9.7172    8.6988    9.1796 C   0  0  2  0  0  3  0  0  0  0  0  0
    7.4781    8.6347    8.9963 C   0  0  2  0  0  0  0  0  0  0  0  0
    6.9525    8.3699    8.0729 H   0  0  0  0  0  0  0  0  0  0  0  0
    7.9883   10.0947    8.9868 C   0  0  0  0  0  0  0  0  0  0  0  0
    7.7942   10.6093    8.0404 H   0  0  0  0  0  0  0  0  0  0  0  0
    7.5618   10.6817    9.8069 H   0  0  0  0  0  0  0  0  0  0  0  0
   11.0509    8.1292    9.3047 C   0  0  0  0  0  0  0  0  0  0  0  0
   11.1978    6.8238    9.7745 C   0  0  0  0  0  0  0  0  0  0  0  0
   10.3210    6.2656   10.0641 H   0  0  0  0  0  0  0  0  0  0  0  0
   12.4576    6.2660    9.8736 C   0  0  0  0  0  0  0  0  0  0  0  0
   12.5708    5.2588   10.2458 H   0  0  0  0  0  0  0  0  0  0  0  0
   13.5731    6.9936    9.4885 C   0  0  0  0  0  0  0  0  0  0  0  0
   14.5554    6.5496    9.5567 H   0  0  0  0  0  0  0  0  0  0  0  0
   13.4288    8.2868    9.0109 C   0  0  0  0  0  0  0  0  0  0  0  0
   14.2951    8.8495    8.6978 H   0  0  0  0  0  0  0  0  0  0  0  0
   12.1753    8.8624    8.9255 C   0  0  0  0  0  0  0  0  0  0  0  0
   12.0626    9.8657    8.5327 H   0  0  0  0  0  0  0  0  0  0  0  0
    6.6280    8.3060   10.1977 C   0  0  0  0  0  0  0  0  0  0  0  0
    5.3609    7.7626   10.0388 C   0  0  0  0  0  0  0  0  0  0  0  0
    4.9773    7.5785    9.0454 H   0  0  0  0  0  0  0  0  0  0  0  0
    4.5887    7.4608   11.1467 C   0  0  0  0  0  0  0  0  0  0  0  0
    3.6020    7.0420   11.0151 H   0  0  0  0  0  0  0  0  0  0  0  0
    5.0817    7.6925   12.4195 C   0  0  0  0  0  0  0  0  0  0  0  0
    4.4792    7.4546   13.2836 H   0  0  0  0  0  0  0  0  0  0  0  0
    6.3477    8.2296   12.5821 C   0  0  0  0  0  0  0  0  0  0  0  0
    6.7376    8.4147   13.5714 H   0  0  0  0  0  0  0  0  0  0  0  0
    7.1207    8.5377   11.4772 C   0  0  0  0  0  0  0  0  0  0  0  0
    8.1033    8.9652   11.6172 H   0  0  0  0  0  0  0  0  0  0  0  0
  1  6  1  0  0  0  0
  1  2  1  0  0  0  0
  3  1  1  0  0  0  0
  5 36  1  0  0  0  0
  6 11  1  0  0  0  0
  6  8  1  0  0  0  0
  7 36  1  0  0  0  0
  7  1  1  0  0  0  0
  8 14  1  1  0  0  0
  8  4  1  0  0  0  0
  9  4  1  0  0  0  0
  9 10  1  1  0  0  0
 11  9  1  0  0  0  0
 11 12  1  0  0  0  0
 13 11  1  0  0  0  0
 14 15  1  0  0  0  0
 15 17  2  0  0  0  0
 15 16  1  0  0  0  0
 17 18  1  0  0  0  0
 19 20  1  0  0  0  0
 19 17  1  0  0  0  0
 21 19  2  0  0  0  0
 22 21  1  0  0  0  0
 23 21  1  0  0  0  0
 23 14  2  0  0  0  0
 24 23  1  0  0  0  0
 25 26  1  0  0  0  0
 25  9  1  0  0  0  0
 26 27  1  0  0  0  0
 28 29  1  0  0  0  0
 28 26  2  0  0  0  0
 30 28  1  0  0  0  0
 31 30  1  0  0  0  0
 32 30  2  0  0  0  0
 32 34  1  0  0  0  0
 33 32  1  0  0  0  0
 34 25  2  0  0  0  0
 35 34  1  0  0  0  0
 36 42  1  6  0  0  0
 37 38  1  6  0  0  0
 37  5  1  0  0  0  0
 37 53  1  0  0  0  0
 39 37  1  0  0  0  0
 39  7  1  0  0  0  0
 39 41  1  0  0  0  0
 40 39  1  0  0  0  0
 42 43  1  0  0  0  0
 43 45  2  0  0  0  0
 43 44  1  0  0  0  0
 45 46  1  0  0  0  0
 47 48  1  0  0  0  0
 47 45  1  0  0  0  0
 49 47  2  0  0  0  0
 50 49  1  0  0  0  0
 51 49  1  0  0  0  0
 51 42  2  0  0  0  0
 52 51  1  0  0  0  0
 53 62  1  0  0  0  0
 54 53  2  0  0  0  0
 54 56  1  0  0  0  0
 55 54  1  0  0  0  0
 56 58  2  0  0  0  0
 57 56  1  0  0  0  0
 58 60  1  0  0  0  0
 58 59  1  0  0  0  0
 60 61  1  0  0  0  0
 62 63  1  0  0  0  0
 62 60  2  0  0  0  0
M  END
$$$$
