CSD_code = XEFRUW | q = 0 | S = 0 | Stoichiometry = C15H15ClN2O4Ru | MND = 6
 OpenBabel04212202123D

 38 39  0  0  0  0  0  0  0  0999 V2000
    3.1763    3.5211    9.5923 Ru  0  0  0  0  0  0  0  0  0  0  0  0
    1.2010    4.9242    9.1772 Cl  0  0  0  0  0  0  0  0  0  0  0  0
    1.5626    1.5506   11.1704 O   0  0  0  0  0  1  0  0  0  0  0  0
    2.5880    1.8331    7.1895 O   0  0  0  0  0  1  0  0  0  0  0  0
    5.8206    3.0661   10.6000 O   0  0  0  0  0  0  0  0  0  0  0  0
    4.9608    1.2941    9.5383 O   0  0  0  0  0  0  0  0  0  0  0  0
    4.2476    4.9285    8.4569 N   0  0  0  0  0  0  0  0  0  0  0  0
    3.4912    4.7231   11.2891 N   0  0  0  0  0  0  0  0  0  0  0  0
    2.1882    2.3101   10.5884 C   0  0  0  0  0  2  0  0  0  0  0  0
    2.8487    2.4768    8.0962 C   0  0  0  0  0  2  0  0  0  0  0  0
    4.9032    2.5531    9.9896 C   0  0  0  0  0  0  0  0  0  0  0  0
    6.1729    0.5534    9.7640 C   0  0  0  0  0  0  0  0  0  0  0  0
    5.8774   -0.4964    9.7225 H   0  0  0  0  0  0  0  0  0  0  0  0
    6.5528    0.7985   10.7614 H   0  0  0  0  0  0  0  0  0  0  0  0
    7.2178    0.8740    8.7057 C   0  0  0  0  0  0  0  0  0  0  0  0
    6.8147    0.6844    7.7139 H   0  0  0  0  0  0  0  0  0  0  0  0
    8.0977    0.2548    8.8579 H   0  0  0  0  0  0  0  0  0  0  0  0
    7.5060    1.9203    8.7752 H   0  0  0  0  0  0  0  0  0  0  0  0
    3.7076    5.3822    7.3216 C   0  0  0  0  0  3  0  0  0  0  0  0
    2.7835    4.9184    6.9976 H   0  0  0  0  0  0  0  0  0  0  0  0
    4.2609    6.4181    6.5887 C   0  0  0  0  0  0  0  0  0  0  0  0
    3.7776    6.7466    5.6826 H   0  0  0  0  0  0  0  0  0  0  0  0
    5.4264    7.0178    7.0375 C   0  0  0  0  0  0  0  0  0  0  0  0
    5.8806    7.8298    6.4903 H   0  0  0  0  0  0  0  0  0  0  0  0
    5.9937    6.5415    8.2085 C   0  0  0  0  0  0  0  0  0  0  0  0
    6.9040    6.9663    8.6011 H   0  0  0  0  0  0  0  0  0  0  0  0
    5.3750    5.5032    8.8835 C   0  0  0  0  0  0  0  0  0  0  0  0
    5.8157    5.1031    9.7903 H   0  0  0  0  0  0  0  0  0  0  0  0
    3.3075    6.0426   11.2129 C   0  0  0  0  0  3  0  0  0  0  0  0
    2.9716    6.4371   10.2605 H   0  0  0  0  0  0  0  0  0  0  0  0
    3.4772    6.8926   12.2929 C   0  0  0  0  0  0  0  0  0  0  0  0
    3.3102    7.9510   12.1699 H   0  0  0  0  0  0  0  0  0  0  0  0
    3.8523    6.3622   13.5154 C   0  0  0  0  0  0  0  0  0  0  0  0
    3.9925    6.9960   14.3778 H   0  0  0  0  0  0  0  0  0  0  0  0
    4.0339    4.9910   13.6007 C   0  0  0  0  0  0  0  0  0  0  0  0
    4.3168    4.5233   14.5303 H   0  0  0  0  0  0  0  0  0  0  0  0
    3.8437    4.2136   12.4719 C   0  0  0  0  0  0  0  0  0  0  0  0
    3.9869    3.1413   12.5226 H   0  0  0  0  0  0  0  0  0  0  0  0
  1 11  1  0  0  0  0
  1  9  1  0  0  0  0
  1  8  1  0  0  0  0
  2  1  1  0  0  0  0
  4 10  1  0  0  0  0
  6 12  1  0  0  0  0
  6 11  1  0  0  0  0
  7 27  1  0  0  0  0
  7  1  1  0  0  0  0
  8 37  1  0  0  0  0
  9  3  1  0  0  0  0
 10  1  1  0  0  0  0
 11  5  2  0  0  0  0
 12 14  1  0  0  0  0
 13 12  1  0  0  0  0
 15 18  1  0  0  0  0
 15 17  1  0  0  0  0
 15 12  1  0  0  0  0
 16 15  1  0  0  0  0
 19  7  1  0  0  0  0
 20 19  1  0  0  0  0
 21 23  2  0  0  0  0
 21 19  1  0  0  0  0
 22 21  1  0  0  0  0
 23 25  1  0  0  0  0
 24 23  1  0  0  0  0
 25 26  1  0  0  0  0
 25 27  2  0  0  0  0
 27 28  1  0  0  0  0
 29  8  1  0  0  0  0
 29 31  1  0  0  0  0
 30 29  1  0  0  0  0
 31 33  2  0  0  0  0
 32 31  1  0  0  0  0
 33 35  1  0  0  0  0
 33 34  1  0  0  0  0
 35 36  1  0  0  0  0
 37 38  1  0  0  0  0
 37 35  2  0  0  0  0
M  END
$$$$
