CSD_code = XEFRUX | q = 0 | S = 0 | Stoichiometry = C21H30BrIrN2 | MND = 6
 OpenBabel04212202123D

 55 56  0  0  1  0  0  0  0  0999 V2000
    0.8388    2.7648    5.9570 Ir  0  0  0  0  0  0  0  0  0  0  0  0
    0.4372    2.3834    3.5296 Br  0  0  0  0  0 15  0  0  0  0  0  0
   -1.2793    4.8979    5.6137 N   0  0  0  0  0  0  0  0  0  0  0  0
    0.7232    5.6725    5.2117 N   0  0  0  0  0  0  0  0  0  0  0  0
   -0.1506    6.7035    4.9477 C   0  0  0  0  0  0  0  0  0  0  0  0
    0.0374    4.5756    5.6176 C   0  0  0  0  0  3  0  0  0  0  0  0
   -1.4430    6.2039    5.2075 C   0  0  0  0  0  0  0  0  0  0  0  0
    0.4185    2.8229    8.0349 C   0  0  2  0  0  0  0  0  0  0  0  0
   -0.3147    3.5854    8.2970 H   0  0  0  0  0  0  0  0  0  0  0  0
    0.0325    8.0096    4.5172 C   0  0  0  0  0  0  0  0  0  0  0  0
    1.0100    8.4109    4.3072 H   0  0  0  0  0  0  0  0  0  0  0  0
    2.1578    5.6569    4.9849 C   0  0  0  0  0  0  0  0  0  0  0  0
    2.4820    4.6509    5.2899 H   0  0  0  0  0  0  0  0  0  0  0  0
   -2.3243    3.9234    5.8753 C   0  0  0  0  0  0  0  0  0  0  0  0
   -1.7908    2.9962    6.1296 H   0  0  0  0  0  0  0  0  0  0  0  0
   -2.5612    7.0077    5.0396 C   0  0  0  0  0  0  0  0  0  0  0  0
   -3.5587    6.6468    5.2274 H   0  0  0  0  0  0  0  0  0  0  0  0
    1.7377    3.2640    7.8294 C   0  0  0  0  0  3  0  0  0  0  0  0
    1.9062    4.3355    7.9179 H   0  0  0  0  0  0  0  0  0  0  0  0
    2.3195    1.1905    6.0290 C   0  0  0  0  0  3  0  0  0  0  0  0
    2.6623    1.0121    5.0114 H   0  0  0  0  0  0  0  0  0  0  0  0
   -1.0898    8.7995    4.3556 C   0  0  0  0  0  0  0  0  0  0  0  0
   -0.9740    9.8191    4.0208 H   0  0  0  0  0  0  0  0  0  0  0  0
   -2.3644    8.3072    4.6125 C   0  0  0  0  0  0  0  0  0  0  0  0
   -3.2185    8.9521    4.4732 H   0  0  0  0  0  0  0  0  0  0  0  0
    1.1104    0.6458    6.4098 C   0  0  0  0  0  3  0  0  0  0  0  0
    0.5452    0.0948    5.6613 H   0  0  0  0  0  0  0  0  0  0  0  0
    2.9516    2.4243    8.1685 C   0  0  0  0  0  0  0  0  0  0  0  0
    3.7659    3.0830    8.4779 H   0  0  0  0  0  0  0  0  0  0  0  0
    2.7165    1.7851    9.0214 H   0  0  0  0  0  0  0  0  0  0  0  0
   -3.1852    4.3310    7.0682 C   0  0  0  0  0  0  0  0  0  0  0  0
   -2.5591    4.5514    7.9302 H   0  0  0  0  0  0  0  0  0  0  0  0
   -3.8543    3.5150    7.3275 H   0  0  0  0  0  0  0  0  0  0  0  0
   -3.7855    5.2086    6.8479 H   0  0  0  0  0  0  0  0  0  0  0  0
    0.0460    1.4575    8.5650 C   0  0  0  0  0  0  0  0  0  0  0  0
   -1.0333    1.3352    8.4445 H   0  0  0  0  0  0  0  0  0  0  0  0
    0.2544    1.4138    9.6401 H   0  0  0  0  0  0  0  0  0  0  0  0
   -3.1425    3.6651    4.6129 C   0  0  0  0  0  0  0  0  0  0  0  0
   -2.4835    3.3458    3.8090 H   0  0  0  0  0  0  0  0  0  0  0  0
   -3.6747    4.5561    4.2925 H   0  0  0  0  0  0  0  0  0  0  0  0
   -3.8649    2.8758    4.8008 H   0  0  0  0  0  0  0  0  0  0  0  0
    2.4659    5.8226    3.4993 C   0  0  0  0  0  0  0  0  0  0  0  0
    1.9544    5.0493    2.9310 H   0  0  0  0  0  0  0  0  0  0  0  0
    3.5351    5.7228    3.3338 H   0  0  0  0  0  0  0  0  0  0  0  0
    2.1451    6.7928    3.1310 H   0  0  0  0  0  0  0  0  0  0  0  0
    0.7653    0.3039    7.8412 C   0  0  0  0  0  0  0  0  0  0  0  0
    1.6794    0.0347    8.3732 H   0  0  0  0  0  0  0  0  0  0  0  0
    0.1181   -0.5754    7.8505 H   0  0  0  0  0  0  0  0  0  0  0  0
    3.4308    1.5736    6.9770 C   0  0  0  0  0  0  0  0  0  0  0  0
    3.9272    0.6664    7.3387 H   0  0  0  0  0  0  0  0  0  0  0  0
    4.1748    2.1410    6.4127 H   0  0  0  0  0  0  0  0  0  0  0  0
    2.8748    6.6811    5.8605 C   0  0  0  0  0  0  0  0  0  0  0  0
    2.5809    6.5606    6.9009 H   0  0  0  0  0  0  0  0  0  0  0  0
    2.6480    7.6984    5.5559 H   0  0  0  0  0  0  0  0  0  0  0  0
    3.9487    6.5328    5.7857 H   0  0  0  0  0  0  0  0  0  0  0  0
  1  8  1  0  0  0  0
  3  6  1  0  0  0  0
  3 14  1  0  0  0  0
  4  6  1  0  0  0  0
  5  7  1  0  0  0  0
  5  4  1  0  0  0  0
  6  1  1  0  0  0  0
  7  3  1  0  0  0  0
  8  9  1  1  0  0  0
  8 35  1  0  0  0  0
 10  5  2  0  0  0  0
 11 10  1  0  0  0  0
 12  4  1  0  0  0  0
 12 13  1  0  0  0  0
 12 52  1  0  0  0  0
 14 15  1  0  0  0  0
 14 31  1  0  0  0  0
 16  7  2  0  0  0  0
 16 17  1  0  0  0  0
 18 19  1  0  0  0  0
 18  8  1  0  0  0  0
 18 28  1  0  0  0  0
 20 26  1  0  0  0  0
 20 49  1  0  0  0  0
 21 20  1  0  0  0  0
 22 10  1  0  0  0  0
 22 24  2  0  0  0  0
 23 22  1  0  0  0  0
 24 16  1  0  0  0  0
 25 24  1  0  0  0  0
 26 46  1  0  0  0  0
 27 26  1  0  0  0  0
 28 29  1  0  0  0  0
 28 30  1  0  0  0  0
 31 33  1  0  0  0  0
 31 32  1  0  0  0  0
 34 31  1  0  0  0  0
 35 37  1  0  0  0  0
 36 35  1  0  0  0  0
 38 41  1  0  0  0  0
 38 14  1  0  0  0  0
 39 38  1  0  0  0  0
 40 38  1  0  0  0  0
 42 12  1  0  0  0  0
 43 42  1  0  0  0  0
 44 42  1  0  0  0  0
 45 42  1  0  0  0  0
 46 48  1  0  0  0  0
 46 47  1  0  0  0  0
 46 35  1  0  0  0  0
 49 50  1  0  0  0  0
 49 28  1  0  0  0  0
 51 49  1  0  0  0  0
 52 53  1  0  0  0  0
 54 52  1  0  0  0  0
 55 52  1  0  0  0  0
M  END
$$$$
