CSD_code = XEGSOR | q = 0 | S = 0 | Stoichiometry = C6H7Br4NTi | MND = 5
 OpenBabel04212202123D

 19 19  0  0  1  0  0  0  0  0999 V2000
    4.7663    2.6361    7.2477 Ti  0  0  0  0  0  0  0  0  0  0  0  0
    6.8194    1.5591    7.7907 Br  0  0  0  0  0  0  0  0  0  0  0  0
    3.7305    3.1511    9.3238 Br  0  0  0  0  0  0  0  0  0  0  0  0
    3.5600    0.5173    6.8810 Br  0  0  0  0  0  0  0  0  0  0  0  0
    5.8140    4.8457    6.9326 Br  0  0  0  0  0  0  0  0  0  0  0  0
    3.8109    3.1520    5.5132 N   0  0  0  0  0  0  0  0  0  0  0  0
    4.3199    2.8846    4.3027 C   0  0  1  0  0  3  0  0  0  0  0  0
    5.6493    2.2024    4.2606 C   0  0  0  0  0  0  0  0  0  0  0  0
    6.4069    2.8020    4.7830 H   0  0  0  0  0  0  0  0  0  0  0  0
    5.9754    2.0621    3.2332 H   0  0  0  0  0  0  0  0  0  0  0  0
    5.5892    1.2159    4.7396 H   0  0  0  0  0  0  0  0  0  0  0  0
    3.6226    3.2322    3.1495 C   0  0  0  0  0  0  0  0  0  0  0  0
    4.0467    3.0065    2.1841 H   0  0  0  0  0  0  0  0  0  0  0  0
    2.3946    3.8601    3.2561 C   0  0  0  0  0  0  0  0  0  0  0  0
    1.8417    4.1337    2.3711 H   0  0  0  0  0  0  0  0  0  0  0  0
    1.8845    4.1329    4.5195 C   0  0  0  0  0  0  0  0  0  0  0  0
    0.9328    4.6216    4.6473 H   0  0  0  0  0  0  0  0  0  0  0  0
    2.6266    3.7610    5.6228 C   0  0  0  0  0  0  0  0  0  0  0  0
    2.2647    3.9544    6.6336 H   0  0  0  0  0  0  0  0  0  0  0  0
  1  2  1  0  0  0  0
  1  3  1  0  0  0  0
  4  1  1  0  0  0  0
  5  1  1  0  0  0  0
  6 18  1  0  0  0  0
  6  1  1  0  0  0  0
  7  8  1  1  0  0  0
  7  6  1  0  0  0  0
  8 11  1  0  0  0  0
  8  9  1  0  0  0  0
 10  8  1  0  0  0  0
 12 14  2  0  0  0  0
 12  7  1  0  0  0  0
 13 12  1  0  0  0  0
 14 16  1  0  0  0  0
 15 14  1  0  0  0  0
 16 17  1  0  0  0  0
 16 18  2  0  0  0  0
 18 19  1  0  0  0  0
M  END
$$$$
