CSD_code = XEHBER | q = 0 | S = 0 | Stoichiometry = C30H26ClO3P2Re | MND = 6
 OpenBabel04212202123D

 63 67  0  0  0  0  0  0  0  0999 V2000
   -2.5160    2.3782   10.3442 Re  0  0  0  0  0  0  0  0  0  0  0  0
   -4.2025    1.4655   11.8100 Cl  0  0  0  0  0  0  0  0  0  0  0  0
   -1.4892    0.1512   10.4799 P   0  0  0  0  0  4  0  0  0  0  0  0
   -1.6017    2.7311   12.5760 P   0  0  0  0  0  4  0  0  0  0  0  0
   -0.2998    3.8122    8.7339 O   0  0  0  0  0  1  0  0  0  0  0  0
   -4.2336    4.9364   10.6048 O   0  0  0  0  0  1  0  0  0  0  0  0
   -4.0698    1.5140    7.8107 O   0  0  0  0  0  1  0  0  0  0  0  0
   -1.1053    3.2455    9.3303 C   0  0  0  0  0  2  0  0  0  0  0  0
   -3.5581    4.0250   10.4716 C   0  0  0  0  0  2  0  0  0  0  0  0
   -3.4864    1.8528    8.7359 C   0  0  0  0  0  2  0  0  0  0  0  0
   -1.4534   -0.6537   12.1353 C   0  0  0  0  0  0  0  0  0  0  0  0
   -2.5041   -0.8281   12.3945 H   0  0  0  0  0  0  0  0  0  0  0  0
   -0.9765   -1.6318   11.9973 H   0  0  0  0  0  0  0  0  0  0  0  0
   -0.7686    0.1382   13.2503 C   0  0  0  0  0  0  0  0  0  0  0  0
    0.2051    0.5129   12.9165 H   0  0  0  0  0  0  0  0  0  0  0  0
   -0.5919   -0.5405   14.0912 H   0  0  0  0  0  0  0  0  0  0  0  0
   -1.6167    1.3075   13.7438 C   0  0  0  0  0  0  0  0  0  0  0  0
   -1.2240    1.6874   14.6951 H   0  0  0  0  0  0  0  0  0  0  0  0
   -2.6515    0.9848   13.8818 H   0  0  0  0  0  0  0  0  0  0  0  0
   -2.3415   -1.1632    9.5495 C   0  0  0  0  0  0  0  0  0  0  0  0
   -3.7302   -1.2239    9.6295 C   0  0  0  0  0  0  0  0  0  0  0  0
   -4.2663   -0.4938   10.2214 H   0  0  0  0  0  0  0  0  0  0  0  0
   -4.4218   -2.2118    8.9544 C   0  0  0  0  0  0  0  0  0  0  0  0
   -5.4991   -2.2506    9.0174 H   0  0  0  0  0  0  0  0  0  0  0  0
   -3.7343   -3.1441    8.1949 C   0  0  0  0  0  0  0  0  0  0  0  0
   -4.2744   -3.9128    7.6622 H   0  0  0  0  0  0  0  0  0  0  0  0
   -2.3526   -3.0891    8.1166 C   0  0  0  0  0  0  0  0  0  0  0  0
   -1.8144   -3.8157    7.5252 H   0  0  0  0  0  0  0  0  0  0  0  0
   -1.6536   -2.1040    8.7908 C   0  0  0  0  0  0  0  0  0  0  0  0
   -0.5756   -2.0647    8.7208 H   0  0  0  0  0  0  0  0  0  0  0  0
    0.2070    0.0302    9.8305 C   0  0  0  0  0  0  0  0  0  0  0  0
    0.3924    0.5725    8.5589 C   0  0  0  0  0  0  0  0  0  0  0  0
   -0.4620    0.9973    8.0434 H   0  0  0  0  0  0  0  0  0  0  0  0
    1.6408    0.5669    7.9697 C   0  0  0  0  0  0  0  0  0  0  0  0
    1.7742    0.9890    6.9851 H   0  0  0  0  0  0  0  0  0  0  0  0
    2.7214    0.0263    8.6503 C   0  0  0  0  0  0  0  0  0  0  0  0
    3.7021    0.0298    8.1981 H   0  0  0  0  0  0  0  0  0  0  0  0
    2.5423   -0.5201    9.9093 C   0  0  0  0  0  0  0  0  0  0  0  0
    3.3822   -0.9471   10.4381 H   0  0  0  0  0  0  0  0  0  0  0  0
    1.2898   -0.5244   10.5007 C   0  0  0  0  0  0  0  0  0  0  0  0
    1.1704   -0.9638   11.4797 H   0  0  0  0  0  0  0  0  0  0  0  0
   -2.4851    4.0398   13.4659 C   0  0  0  0  0  0  0  0  0  0  0  0
   -2.2322    5.3454   13.0457 C   0  0  0  0  0  0  0  0  0  0  0  0
   -1.5000    5.5146   12.2640 H   0  0  0  0  0  0  0  0  0  0  0  0
   -2.9136    6.4022   13.6145 C   0  0  0  0  0  0  0  0  0  0  0  0
   -2.7138    7.4118   13.2874 H   0  0  0  0  0  0  0  0  0  0  0  0
   -3.8642    6.1624   14.5955 C   0  0  0  0  0  0  0  0  0  0  0  0
   -4.4047    6.9873   15.0355 H   0  0  0  0  0  0  0  0  0  0  0  0
   -4.1312    4.8664   15.0007 C   0  0  0  0  0  0  0  0  0  0  0  0
   -4.8828    4.6792   15.7537 H   0  0  0  0  0  0  0  0  0  0  0  0
   -3.4471    3.8017   14.4383 C   0  0  0  0  0  0  0  0  0  0  0  0
   -3.6798    2.7931   14.7454 H   0  0  0  0  0  0  0  0  0  0  0  0
    0.1403    3.2333   12.7861 C   0  0  0  0  0  0  0  0  0  0  0  0
    1.0610    2.8966   11.8020 C   0  0  0  0  0  0  0  0  0  0  0  0
    0.7206    2.4034   10.8999 H   0  0  0  0  0  0  0  0  0  0  0  0
    2.4019    3.1934   11.9670 C   0  0  0  0  0  0  0  0  0  0  0  0
    3.1089    2.9249   11.1958 H   0  0  0  0  0  0  0  0  0  0  0  0
    2.8283    3.8364   13.1166 C   0  0  0  0  0  0  0  0  0  0  0  0
    3.8734    4.0752   13.2470 H   0  0  0  0  0  0  0  0  0  0  0  0
    1.9133    4.1785   14.1006 C   0  0  0  0  0  0  0  0  0  0  0  0
    2.2465    4.6831   14.9959 H   0  0  0  0  0  0  0  0  0  0  0  0
    0.5744    3.8750   13.9415 C   0  0  0  0  0  0  0  0  0  0  0  0
   -0.1398    4.1440   14.7085 H   0  0  0  0  0  0  0  0  0  0  0  0
  1  9  1  0  0  0  0
  1  3  1  0  0  0  0
  1  2  1  0  0  0  0
  1  4  1  0  0  0  0
  3 11  1  0  0  0  0
  4 53  1  0  0  0  0
  4 42  1  0  0  0  0
  4 17  1  0  0  0  0
  5  8  1  0  0  0  0
  7 10  1  0  0  0  0
  8  1  1  0  0  0  0
  9  6  1  0  0  0  0
 10  1  1  0  0  0  0
 11 12  1  0  0  0  0
 11 14  1  0  0  0  0
 13 11  1  0  0  0  0
 14 17  1  0  0  0  0
 14 16  1  0  0  0  0
 15 14  1  0  0  0  0
 17 19  1  0  0  0  0
 17 18  1  0  0  0  0
 20 21  1  0  0  0  0
 20  3  1  0  0  0  0
 21 22  1  0  0  0  0
 23 24  1  0  0  0  0
 23 21  2  0  0  0  0
 25 23  1  0  0  0  0
 26 25  1  0  0  0  0
 27 25  2  0  0  0  0
 27 29  1  0  0  0  0
 28 27  1  0  0  0  0
 29 20  2  0  0  0  0
 30 29  1  0  0  0  0
 31  3  1  0  0  0  0
 31 40  1  0  0  0  0
 32 31  2  0  0  0  0
 33 32  1  0  0  0  0
 34 32  1  0  0  0  0
 34 36  2  0  0  0  0
 35 34  1  0  0  0  0
 36 38  1  0  0  0  0
 37 36  1  0  0  0  0
 38 39  1  0  0  0  0
 38 40  2  0  0  0  0
 40 41  1  0  0  0  0
 42 51  1  0  0  0  0
 43 42  2  0  0  0  0
 43 45  1  0  0  0  0
 44 43  1  0  0  0  0
 45 47  2  0  0  0  0
 46 45  1  0  0  0  0
 47 49  1  0  0  0  0
 47 48  1  0  0  0  0
 49 50  1  0  0  0  0
 51 52  1  0  0  0  0
 51 49  2  0  0  0  0
 53 62  1  0  0  0  0
 54 56  1  0  0  0  0
 54 53  2  0  0  0  0
 55 54  1  0  0  0  0
 56 58  2  0  0  0  0
 57 56  1  0  0  0  0
 58 59  1  0  0  0  0
 58 60  1  0  0  0  0
 60 61  1  0  0  0  0
 62 60  2  0  0  0  0
 62 63  1  0  0  0  0
M  END
$$$$
