CSD_code = XEHMUV | q = 0 | S = 0 | Stoichiometry = C24H37BrCuN | MND = 2
 OpenBabel04212202123D

 64 66  0  0  1  0  0  0  0  0999 V2000
    8.3057    1.4099   19.2151 Cu  0  0  0  0  0  0  0  0  0  0  0  0
    7.6675    4.0033   18.4251 N   0  0  0  0  0  0  0  0  0  0  0  0
    8.6014    4.2096   20.5594 C   0  0  2  0  0  0  0  0  0  0  0  0
    7.3276    3.3426   17.1965 C   0  0  0  0  0  0  0  0  0  0  0  0
    7.5119    5.4501   18.5747 C   0  0  1  0  0  0  0  0  0  0  0  0
    8.3318    3.1239   16.2447 C   0  0  0  0  0  0  0  0  0  0  0  0
    8.1979    3.3178   19.4077 C   0  0  1  0  0  3  0  0  0  0  0  0
    7.3177    4.9413   21.0437 C   0  0  1  0  0  0  0  0  0  0  0  0
    7.6197    5.6751   21.7959 H   0  0  0  0  0  0  0  0  0  0  0  0
    6.6900    5.6876   19.8519 C   0  0  0  0  0  0  0  0  0  0  0  0
    5.6621    5.3594   19.6936 H   0  0  0  0  0  0  0  0  0  0  0  0
    6.6563    6.7610   20.0426 H   0  0  0  0  0  0  0  0  0  0  0  0
    7.9840    2.5246   15.0415 C   0  0  0  0  0  0  0  0  0  0  0  0
    8.7437    2.3550   14.2951 H   0  0  0  0  0  0  0  0  0  0  0  0
    6.0213    2.8912   16.9775 C   0  0  0  0  0  0  0  0  0  0  0  0
   10.6350    2.1883   16.4390 C   0  0  0  0  0  0  0  0  0  0  0  0
   10.2421    1.4368   17.1209 H   0  0  0  0  0  0  0  0  0  0  0  0
   11.6602    2.4119   16.7269 H   0  0  0  0  0  0  0  0  0  0  0  0
   10.6447    1.7634   15.4393 H   0  0  0  0  0  0  0  0  0  0  0  0
    8.9035    6.0461   18.8399 C   0  0  0  0  0  0  0  0  0  0  0  0
    9.5102    5.9886   17.9361 H   0  0  0  0  0  0  0  0  0  0  0  0
    8.7821    7.1023   19.0827 H   0  0  0  0  0  0  0  0  0  0  0  0
    9.7834    3.4597   16.4976 C   0  0  0  0  0  0  0  0  0  0  0  0
    9.8875    3.8670   17.5058 H   0  0  0  0  0  0  0  0  0  0  0  0
    5.7222    2.2856   15.7646 C   0  0  0  0  0  0  0  0  0  0  0  0
    4.7224    1.9240   15.5846 H   0  0  0  0  0  0  0  0  0  0  0  0
    4.9579    2.9540   18.0480 C   0  0  0  0  0  0  0  0  0  0  0  0
    5.3373    3.5369   18.8889 H   0  0  0  0  0  0  0  0  0  0  0  0
    9.5582    5.2876   19.9973 C   0  0  0  0  0  0  0  0  0  0  0  0
    9.8227    5.9738   20.8012 H   0  0  0  0  0  0  0  0  0  0  0  0
   10.4739    4.8048   19.6579 H   0  0  0  0  0  0  0  0  0  0  0  0
   10.2969    4.4997   15.4988 C   0  0  0  0  0  0  0  0  0  0  0  0
   10.2726    4.1080   14.4854 H   0  0  0  0  0  0  0  0  0  0  0  0
   11.3244    4.7684   15.7350 H   0  0  0  0  0  0  0  0  0  0  0  0
    9.6891    5.4030   15.5263 H   0  0  0  0  0  0  0  0  0  0  0  0
    9.2782    3.3852   21.6840 C   0  0  0  0  0  0  0  0  0  0  0  0
    8.5984    2.5583   21.9173 H   0  0  0  0  0  0  0  0  0  0  0  0
    6.6875    2.1232   14.7921 C   0  0  0  0  0  0  0  0  0  0  0  0
    6.4366    1.6561   13.8521 H   0  0  0  0  0  0  0  0  0  0  0  0
    6.8593    6.0839   17.3561 C   0  0  0  0  0  0  0  0  0  0  0  0
    7.4460    5.8970   16.4597 H   0  0  0  0  0  0  0  0  0  0  0  0
    6.7854    7.1592   17.5026 H   0  0  0  0  0  0  0  0  0  0  0  0
    5.8596    5.6886   17.1986 H   0  0  0  0  0  0  0  0  0  0  0  0
    9.5306    4.1738   22.9695 C   0  0  0  0  0  0  0  0  0  0  0  0
   10.1844    5.0235   22.7869 H   0  0  0  0  0  0  0  0  0  0  0  0
   10.0226    3.5263   23.6918 H   0  0  0  0  0  0  0  0  0  0  0  0
    8.6104    4.5334   23.4210 H   0  0  0  0  0  0  0  0  0  0  0  0
    4.6737    1.5381   18.5587 C   0  0  0  0  0  0  0  0  0  0  0  0
    4.2728    0.9117   17.7666 H   0  0  0  0  0  0  0  0  0  0  0  0
    3.9549    1.5686   19.3750 H   0  0  0  0  0  0  0  0  0  0  0  0
    5.5894    1.0743   18.9222 H   0  0  0  0  0  0  0  0  0  0  0  0
    3.6683    3.6144   17.5562 C   0  0  0  0  0  0  0  0  0  0  0  0
    3.8655    4.5993   17.1359 H   0  0  0  0  0  0  0  0  0  0  0  0
    2.9733    3.7283   18.3856 H   0  0  0  0  0  0  0  0  0  0  0  0
    3.1844    3.0113   16.7933 H   0  0  0  0  0  0  0  0  0  0  0  0
   10.6029    2.7623   21.2330 C   0  0  0  0  0  0  0  0  0  0  0  0
   10.5040    2.2888   20.2572 H   0  0  0  0  0  0  0  0  0  0  0  0
   10.9053    1.9973   21.9442 H   0  0  0  0  0  0  0  0  0  0  0  0
   11.3952    3.5058   21.1861 H   0  0  0  0  0  0  0  0  0  0  0  0
    6.3045    3.9896   21.6817 C   0  0  0  0  0  0  0  0  0  0  0  0
    6.0675    3.1648   21.0130 H   0  0  0  0  0  0  0  0  0  0  0  0
    5.3864    4.5285   21.9096 H   0  0  0  0  0  0  0  0  0  0  0  0
    6.6822    3.5713   22.6100 H   0  0  0  0  0  0  0  0  0  0  0  0
    8.3108   -0.7744   18.7562 Br  0  0  0  0  0  0  0  0  0  0  0  0
  2  5  1  0  0  0  0
  2  7  1  0  0  0  0
  3  8  1  0  0  0  0
  3 36  1  1  0  0  0
  4  2  1  0  0  0  0
  5 40  1  6  0  0  0
  5 20  1  0  0  0  0
  5 10  1  0  0  0  0
  6 23  1  0  0  0  0
  6  4  2  0  0  0  0
  7  1  1  1  0  0  0
  7  3  1  0  0  0  0
  8 60  1  0  0  0  0
  8  9  1  1  0  0  0
 10 12  1  0  0  0  0
 10  8  1  0  0  0  0
 11 10  1  0  0  0  0
 13  6  1  0  0  0  0
 14 13  1  0  0  0  0
 15  4  1  0  0  0  0
 15 27  1  0  0  0  0
 16 23  1  0  0  0  0
 16 18  1  0  0  0  0
 16 17  1  0  0  0  0
 19 16  1  0  0  0  0
 20 22  1  0  0  0  0
 20 29  1  0  0  0  0
 21 20  1  0  0  0  0
 23 24  1  0  0  0  0
 25 15  2  0  0  0  0
 26 25  1  0  0  0  0
 27 48  1  0  0  0  0
 27 28  1  0  0  0  0
 29  3  1  0  0  0  0
 29 30  1  0  0  0  0
 31 29  1  0  0  0  0
 32 35  1  0  0  0  0
 32 34  1  0  0  0  0
 32 23  1  0  0  0  0
 33 32  1  0  0  0  0
 36 37  1  0  0  0  0
 36 44  1  0  0  0  0
 38 13  2  0  0  0  0
 38 25  1  0  0  0  0
 39 38  1  0  0  0  0
 40 42  1  0  0  0  0
 41 40  1  0  0  0  0
 43 40  1  0  0  0  0
 44 47  1  0  0  0  0
 44 46  1  0  0  0  0
 45 44  1  0  0  0  0
 48 51  1  0  0  0  0
 48 50  1  0  0  0  0
 49 48  1  0  0  0  0
 52 27  1  0  0  0  0
 52 54  1  0  0  0  0
 53 52  1  0  0  0  0
 55 52  1  0  0  0  0
 56 36  1  0  0  0  0
 56 58  1  0  0  0  0
 57 56  1  0  0  0  0
 59 56  1  0  0  0  0
 60 62  1  0  0  0  0
 60 63  1  0  0  0  0
 61 60  1  0  0  0  0
 64  1  1  0  0  0  0
M  END
$$$$
