CSD_code = XEHXAL | q = 0 | S = 0 | Stoichiometry = C12H10HgI2N4O | MND = 4
 OpenBabel04212202123D

 30 30  0  0  0  0  0  0  0  0999 V2000
   -0.5650    3.9831   11.1074 Hg  0  0  0  0  0  0  0  0  0  0  0  0
   -1.7632    2.4718    9.3613 I   0  0  0  0  0  0  0  0  0  0  0  0
    0.0435    5.8460   12.8347 I   0  0  0  0  0  0  0  0  0  0  0  0
   -0.0057    2.0510   12.8368 O   0  0  0  0  0  0  0  0  0  0  0  0
    1.2755    4.8067    9.3274 N   0  0  0  0  0  0  0  0  0  0  0  0
    0.9839    5.6901    8.3912 C   0  0  0  0  0  0  0  0  0  0  0  0
   -0.0512    6.0016    8.3368 H   0  0  0  0  0  0  0  0  0  0  0  0
    1.9250    6.2081    7.5107 C   0  0  0  0  0  0  0  0  0  0  0  0
    1.6311    6.9285    6.7647 H   0  0  0  0  0  0  0  0  0  0  0  0
    3.2370    5.7783    7.6198 C   0  0  0  0  0  0  0  0  0  0  0  0
    4.0009    6.1584    6.9582 H   0  0  0  0  0  0  0  0  0  0  0  0
    3.5517    4.8482    8.5952 C   0  0  0  0  0  0  0  0  0  0  0  0
    4.5614    4.4851    8.7119 H   0  0  0  0  0  0  0  0  0  0  0  0
    2.5398    4.3799    9.4335 C   0  0  0  0  0  0  0  0  0  0  0  0
    2.8376    3.3993   10.4613 C   0  0  0  0  0  0  0  0  0  0  0  0
    3.8783    3.0821   10.5733 H   0  0  0  0  0  0  0  0  0  0  0  0
    1.9083    2.9372   11.1953 N   0  0  0  0  0  0  0  0  0  0  0  0
    2.1531    2.0414   12.1555 N   0  0  0  0  0  0  0  0  0  0  0  0
    3.1094    1.7294   12.3290 H   0  0  0  0  0  0  0  0  0  0  0  0
    1.1248    1.6327   12.9708 C   0  0  0  0  0  0  0  0  0  0  0  0
    1.5044    0.6670   14.0309 C   0  0  0  0  0  0  0  0  0  0  0  0
    2.5029   -0.2915   13.8704 C   0  0  0  0  0  0  0  0  0  0  0  0
    3.0478   -0.3981   12.9443 H   0  0  0  0  0  0  0  0  0  0  0  0
    2.7531   -1.1546   14.9274 C   0  0  0  0  0  0  0  0  0  0  0  0
    3.5139   -1.9199   14.8504 H   0  0  0  0  0  0  0  0  0  0  0  0
    2.1018   -1.1095   16.0749 N   0  0  0  0  0  0  0  0  0  0  0  0
    1.1482   -0.2075   16.2229 C   0  0  0  0  0  0  0  0  0  0  0  0
    0.6374   -0.2164   17.1759 H   0  0  0  0  0  0  0  0  0  0  0  0
    0.8020    0.7003   15.2336 C   0  0  0  0  0  0  0  0  0  0  0  0
    0.0157    1.4241   15.3767 H   0  0  0  0  0  0  0  0  0  0  0  0
  1  3  1  0  0  0  0
  2  1  1  0  0  0  0
  4 20  2  0  0  0  0
  5 14  1  0  0  0  0
  6  5  2  0  0  0  0
  7  6  1  0  0  0  0
  8 10  2  0  0  0  0
  8  6  1  0  0  0  0
  9  8  1  0  0  0  0
 10 12  1  0  0  0  0
 11 10  1  0  0  0  0
 12 13  1  0  0  0  0
 12 14  2  0  0  0  0
 14 15  1  0  0  0  0
 15 16  1  0  0  0  0
 15 17  2  0  0  0  0
 17 18  1  0  0  0  0
 18 19  1  0  0  0  0
 18 20  1  0  0  0  0
 20 21  1  0  0  0  0
 21 29  1  0  0  0  0
 22 21  2  0  0  0  0
 22 24  1  0  0  0  0
 23 22  1  0  0  0  0
 24 26  2  0  0  0  0
 25 24  1  0  0  0  0
 26 27  1  0  0  0  0
 27 28  1  0  0  0  0
 29 30  1  0  0  0  0
 29 27  2  0  0  0  0
M  END
$$$$
