CSD_code = XEJBAQ | q = 1 | S = 0 | Stoichiometry = C24H27ClN5Pd(1+) | MND = 4
 OpenBabel04212202123D

 58 63  0  0  1  0  0  0  0  0999 V2000
    3.4526    0.9603   12.8641 Pd  0  0  1  0  0  0  0  0  0  0  0  0
    4.0257   -0.3269   11.1569 Cl  0  0  0  0  0  0  0  0  0  0  0  0
    2.9157    2.1771   14.4638 N   0  0  0  0  0  0  0  0  0  0  0  0
    0.5290    1.3395   13.0141 N   0  0  2  0  0  0  0  0  0  0  0  0
    1.4660    0.3914   12.8369 N   0  0  0  0  0  0  0  0  0  0  0  0
    5.7603    1.7048   14.3785 N   0  0  0  0  0  0  0  0  0  0  0  0
    6.3207    1.9164   12.3116 N   0  0  0  0  0  0  0  0  0  0  0  0
    0.9405    2.7143   13.1562 C   0  0  0  0  0  0  0  0  0  0  0  0
    0.0576    3.3520   13.1990 H   0  0  0  0  0  0  0  0  0  0  0  0
    1.5475    2.9944   12.2775 H   0  0  0  0  0  0  0  0  0  0  0  0
    1.7769    2.8746   14.4102 C   0  0  1  0  0  3  0  0  0  0  0  0
    1.3711    3.6797   15.4641 C   0  0  0  0  0  0  0  0  0  0  0  0
    0.4460    4.2297   15.4026 H   0  0  0  0  0  0  0  0  0  0  0  0
    2.1748    3.7708   16.5901 C   0  0  0  0  0  0  0  0  0  0  0  0
    1.8855    4.3940   17.4210 H   0  0  0  0  0  0  0  0  0  0  0  0
    3.3549    3.0439   16.6319 C   0  0  0  0  0  0  0  0  0  0  0  0
    3.9991    3.0893   17.4950 H   0  0  0  0  0  0  0  0  0  0  0  0
    3.6920    2.2473   15.5484 C   0  0  0  0  0  0  0  0  0  0  0  0
    4.9476    1.4009   15.5344 C   0  0  0  0  0  0  0  0  0  0  0  0
    5.5325    1.5670   16.4402 H   0  0  0  0  0  0  0  0  0  0  0  0
    4.6492    0.3382   15.4873 H   0  0  0  0  0  0  0  0  0  0  0  0
   -1.9314    1.5730   13.3792 C   0  0  0  0  0  0  0  0  0  0  0  0
   -1.8867    2.1247   14.3183 H   0  0  0  0  0  0  0  0  0  0  0  0
   -2.7845    0.9025   13.4169 H   0  0  0  0  0  0  0  0  0  0  0  0
   -2.0880    2.2818   12.5666 H   0  0  0  0  0  0  0  0  0  0  0  0
   -0.6959    0.7818   13.1644 C   0  0  1  0  0  3  0  0  0  0  0  0
   -0.5152   -0.5822   13.0689 C   0  0  0  0  0  0  0  0  0  0  0  0
   -1.2717   -1.3360   13.1334 H   0  0  0  0  0  0  0  0  0  0  0  0
    0.8598   -0.7871   12.8765 C   0  0  0  0  0  0  0  0  0  0  0  0
    1.6170   -2.0580   12.7662 C   0  0  0  0  0  0  0  0  0  0  0  0
    2.6527   -1.8999   13.0849 H   0  0  0  0  0  0  0  0  0  0  0  0
    1.6332   -2.3989   11.7315 H   0  0  0  0  0  0  0  0  0  0  0  0
    1.1544   -2.8297   13.3762 H   0  0  0  0  0  0  0  0  0  0  0  0
    5.3251    1.5235   13.1148 C   0  0  0  0  0  0  0  0  0  0  0  0
    7.0286    2.2217   14.3687 C   0  0  0  0  0  0  0  0  0  0  0  0
    7.5734    2.4424   15.2630 H   0  0  0  0  0  0  0  0  0  0  0  0
    7.3803    2.3490   13.0669 C   0  0  0  0  0  0  0  0  0  0  0  0
    8.2804    2.7225   12.6258 H   0  0  0  0  0  0  0  0  0  0  0  0
    6.3232    1.8829   10.8868 C   0  0  0  0  0  0  0  0  0  0  0  0
    7.2704    1.0939   10.2327 C   0  0  0  0  0  0  0  0  0  0  0  0
    7.2926    1.1071    8.8459 C   0  0  0  0  0  0  0  0  0  0  0  0
    8.0181    0.4944    8.3323 H   0  0  0  0  0  0  0  0  0  0  0  0
    6.4021    1.8717    8.1084 C   0  0  0  0  0  0  0  0  0  0  0  0
    5.4519    2.6228    8.7887 C   0  0  0  0  0  0  0  0  0  0  0  0
    4.7358    3.2019    8.2248 H   0  0  0  0  0  0  0  0  0  0  0  0
    5.3909    2.6376   10.1718 C   0  0  0  0  0  0  0  0  0  0  0  0
    4.2996    3.4046   10.8629 C   0  0  0  0  0  0  0  0  0  0  0  0
    3.4719    2.7012   11.0862 H   0  0  0  0  0  0  0  0  0  0  0  0
    3.9141    4.1812   10.2069 H   0  0  0  0  0  0  0  0  0  0  0  0
    4.6473    3.8694   11.7884 H   0  0  0  0  0  0  0  0  0  0  0  0
    8.2217    0.2168   10.9888 C   0  0  0  0  0  0  0  0  0  0  0  0
    8.5592   -0.5951   10.3508 H   0  0  0  0  0  0  0  0  0  0  0  0
    7.7445   -0.2136   11.8670 H   0  0  0  0  0  0  0  0  0  0  0  0
    9.1019    0.7735   11.3100 H   0  0  0  0  0  0  0  0  0  0  0  0
    6.4494    1.8914    6.6145 C   0  0  0  0  0  0  0  0  0  0  0  0
    5.4516    1.7704    6.1987 H   0  0  0  0  0  0  0  0  0  0  0  0
    7.0885    1.1006    6.2327 H   0  0  0  0  0  0  0  0  0  0  0  0
    6.8404    2.8474    6.2670 H   0  0  0  0  0  0  0  0  0  0  0  0
  1  2  1  6  0  0  0
  1 34  2  0  0  0  0
  1  3  1  0  0  0  0
  3 18  1  0  0  0  0
  4  5  1  1  0  0  0
  4  8  1  0  0  0  0
  4 26  1  0  0  0  0
  5  1  1  0  0  0  0
  5 29  1  0  0  0  0
  6 19  1  0  0  0  0
  7 37  1  0  0  0  0
  7 34  1  0  0  0  0
  8  9  1  0  0  0  0
  8 11  1  0  0  0  0
 10  8  1  0  0  0  0
 11  3  1  0  0  0  0
 11 12  1  1  0  0  0
 12 14  2  0  0  0  0
 13 12  1  0  0  0  0
 14 16  1  0  0  0  0
 14 15  1  0  0  0  0
 16 17  1  0  0  0  0
 18 16  2  0  0  0  0
 19 18  1  0  0  0  0
 19 20  1  0  0  0  0
 21 19  1  0  0  0  0
 22 24  1  0  0  0  0
 22 23  1  0  0  0  0
 25 22  1  0  0  0  0
 26 22  1  6  0  0  0
 27 28  1  0  0  0  0
 27 26  1  0  0  0  0
 29 27  2  0  0  0  0
 30 29  1  0  0  0  0
 30 31  1  0  0  0  0
 30 33  1  0  0  0  0
 32 30  1  0  0  0  0
 34  6  1  0  0  0  0
 35  6  1  0  0  0  0
 35 36  1  0  0  0  0
 37 35  2  0  0  0  0
 38 37  1  0  0  0  0
 39  7  1  0  0  0  0
 40 39  1  0  0  0  0
 40 51  1  0  0  0  0
 41 40  2  0  0  0  0
 42 41  1  0  0  0  0
 43 44  2  0  0  0  0
 43 41  1  0  0  0  0
 44 46  1  0  0  0  0
 45 44  1  0  0  0  0
 46 47  1  0  0  0  0
 46 39  2  0  0  0  0
 47 48  1  0  0  0  0
 47 50  1  0  0  0  0
 49 47  1  0  0  0  0
 51 54  1  0  0  0  0
 51 53  1  0  0  0  0
 52 51  1  0  0  0  0
 55 43  1  0  0  0  0
 56 55  1  0  0  0  0
 57 55  1  0  0  0  0
 58 55  1  0  0  0  0
M  END
$$$$
