CSD_code = XEJKUT | q = 0 | S = 0 | Stoichiometry = C23H22Cl3NOSTi | MND = 6
 OpenBabel04212202123D

 52 56  0  0  0  0  0  0  0  0999 V2000
    6.1745   10.4293    3.8012 Ti  0  0  0  0  0  0  0  0  0  0  0  0
    7.9558    8.6674    4.5613 S   0  0  2  0  0  3  0  0  0  0  0  0
    5.7307   10.3214    6.0124 Cl  0  0  0  0  0  0  0  0  0  0  0  0
    4.8840    8.7630    3.2707 Cl  0  0  0  0  0  0  0  0  0  0  0  0
    7.2713   10.4614    1.8137 Cl  0  0  0  0  0  0  0  0  0  0  0  0
    7.7427   11.7042    4.3860 N   0  0  0  0  0  0  0  0  0  0  0  0
    5.2602   11.8403    3.4691 O   0  0  0  0  0  0  0  0  0  0  0  0
    5.5392   12.9655    2.8790 C   0  0  0  0  0  0  0  0  0  0  0  0
    4.5740   13.6412    2.0889 C   0  0  0  0  0  0  0  0  0  0  0  0
    4.9366   14.8465    1.5186 C   0  0  0  0  0  0  0  0  0  0  0  0
    4.2304   15.3850    0.9086 H   0  0  0  0  0  0  0  0  0  0  0  0
    6.2029   15.4057    1.6965 C   0  0  0  0  0  0  0  0  0  0  0  0
    6.4350   16.3513    1.2316 H   0  0  0  0  0  0  0  0  0  0  0  0
    7.1464   14.7527    2.4449 C   0  0  0  0  0  0  0  0  0  0  0  0
    8.1343   15.1706    2.5720 H   0  0  0  0  0  0  0  0  0  0  0  0
    6.8436   13.5181    3.0469 C   0  0  0  0  0  0  0  0  0  0  0  0
    7.8382   12.8738    3.8420 C   0  0  0  0  0  3  0  0  0  0  0  0
    8.7591   13.4507    3.9785 H   0  0  0  0  0  0  0  0  0  0  0  0
    8.7321   11.2511    5.2594 C   0  0  0  0  0  0  0  0  0  0  0  0
    9.4762   12.1270    6.0588 C   0  0  0  0  0  0  0  0  0  0  0  0
    9.2573   13.1841    6.0347 H   0  0  0  0  0  0  0  0  0  0  0  0
   10.4470   11.6558    6.9214 C   0  0  0  0  0  0  0  0  0  0  0  0
   10.9995   12.3549    7.5305 H   0  0  0  0  0  0  0  0  0  0  0  0
   10.7004   10.2973    7.0183 C   0  0  0  0  0  0  0  0  0  0  0  0
   11.4574    9.9286    7.6923 H   0  0  0  0  0  0  0  0  0  0  0  0
    9.9472    9.4109    6.2689 C   0  0  0  0  0  0  0  0  0  0  0  0
   10.0993    8.3458    6.3543 H   0  0  0  0  0  0  0  0  0  0  0  0
    8.9690    9.8752    5.4034 C   0  0  0  0  0  0  0  0  0  0  0  0
    8.9297    8.2505    3.1193 C   0  0  0  0  0  0  0  0  0  0  0  0
   10.2102    8.7282    2.8999 C   0  0  0  0  0  0  0  0  0  0  0  0
   10.6759    9.4020    3.6043 H   0  0  0  0  0  0  0  0  0  0  0  0
   10.8839    8.3439    1.7524 C   0  0  0  0  0  0  0  0  0  0  0  0
   11.8799    8.7208    1.5731 H   0  0  0  0  0  0  0  0  0  0  0  0
   10.2881    7.4909    0.8405 C   0  0  0  0  0  0  0  0  0  0  0  0
   10.8188    7.2013   -0.0537 H   0  0  0  0  0  0  0  0  0  0  0  0
    9.0057    7.0173    1.0708 C   0  0  0  0  0  0  0  0  0  0  0  0
    8.5326    6.3608    0.3566 H   0  0  0  0  0  0  0  0  0  0  0  0
    8.3220    7.3925    2.2108 C   0  0  0  0  0  0  0  0  0  0  0  0
    7.3120    7.0508    2.3947 H   0  0  0  0  0  0  0  0  0  0  0  0
    3.2170   12.9871    1.8633 C   0  0  0  0  0  0  0  0  0  0  0  0
    3.4373   11.6562    1.1248 C   0  0  0  0  0  0  0  0  0  0  0  0
    3.9574   11.8290    0.1839 H   0  0  0  0  0  0  0  0  0  0  0  0
    2.4777   11.1908    0.9110 H   0  0  0  0  0  0  0  0  0  0  0  0
    4.0286   10.9565    1.7206 H   0  0  0  0  0  0  0  0  0  0  0  0
    2.5218   12.7359    3.2107 C   0  0  0  0  0  0  0  0  0  0  0  0
    1.5320   12.3190    3.0385 H   0  0  0  0  0  0  0  0  0  0  0  0
    2.4131   13.6700    3.7595 H   0  0  0  0  0  0  0  0  0  0  0  0
    3.0820   12.0320    3.8268 H   0  0  0  0  0  0  0  0  0  0  0  0
    2.2917   13.8596    1.0084 C   0  0  0  0  0  0  0  0  0  0  0  0
    2.7093   14.0251    0.0181 H   0  0  0  0  0  0  0  0  0  0  0  0
    2.1029   14.8187    1.4856 H   0  0  0  0  0  0  0  0  0  0  0  0
    1.3373   13.3528    0.8863 H   0  0  0  0  0  0  0  0  0  0  0  0
  1  6  1  0  0  0  0
  1  2  1  0  0  0  0
  1  3  1  0  0  0  0
  2 29  1  6  0  0  0
  2 28  1  0  0  0  0
  4  1  1  0  0  0  0
  5  1  1  0  0  0  0
  6 19  1  0  0  0  0
  7  1  1  0  0  0  0
  8 16  1  0  0  0  0
  8  7  1  0  0  0  0
  9  8  2  0  0  0  0
 10 12  2  0  0  0  0
 10  9  1  0  0  0  0
 11 10  1  0  0  0  0
 12 14  1  0  0  0  0
 13 12  1  0  0  0  0
 14 15  1  0  0  0  0
 14 16  2  0  0  0  0
 16 17  1  0  0  0  0
 17 18  1  0  0  0  0
 17  6  1  0  0  0  0
 19 28  2  0  0  0  0
 19 20  1  0  0  0  0
 20 22  2  0  0  0  0
 21 20  1  0  0  0  0
 22 24  1  0  0  0  0
 22 23  1  0  0  0  0
 24 25  1  0  0  0  0
 26 27  1  0  0  0  0
 26 24  2  0  0  0  0
 28 26  1  0  0  0  0
 30 29  1  0  0  0  0
 30 31  1  0  0  0  0
 32 30  2  0  0  0  0
 33 32  1  0  0  0  0
 34 36  2  0  0  0  0
 34 32  1  0  0  0  0
 35 34  1  0  0  0  0
 36 38  1  0  0  0  0
 37 36  1  0  0  0  0
 38 39  1  0  0  0  0
 38 29  2  0  0  0  0
 40  9  1  0  0  0  0
 40 45  1  0  0  0  0
 41 44  1  0  0  0  0
 41 40  1  0  0  0  0
 42 41  1  0  0  0  0
 43 41  1  0  0  0  0
 45 47  1  0  0  0  0
 45 48  1  0  0  0  0
 46 45  1  0  0  0  0
 49 51  1  0  0  0  0
 49 40  1  0  0  0  0
 50 49  1  0  0  0  0
 52 49  1  0  0  0  0
M  END
$$$$
