CSD_code = XEJKIH | q = 0 | S = 0 | Stoichiometry = C27H30Cl3NOSTi | MND = 6
 OpenBabel04212202123D

 64 68  0  0  0  0  0  0  0  0999 V2000
    0.5244   17.4892   10.2404 Ti  0  0  0  0  0  0  0  0  0  0  0  0
   -0.5891   15.8472    8.5353 S   0  0  2  0  0  3  0  0  0  0  0  0
    1.4651   18.4717    8.5431 Cl  0  0  0  0  0  0  0  0  0  0  0  0
    2.1442   15.9130   10.4695 Cl  0  0  0  0  0  0  0  0  0  0  0  0
   -1.4857   18.4816    9.9565 Cl  0  0  0  0  0  0  0  0  0  0  0  0
    1.0174   18.3917   11.6056 O   0  0  0  0  0  0  0  0  0  0  0  0
   -0.5153   16.2268   11.5636 N   0  0  0  0  0  0  0  0  0  0  0  0
   -1.7145   15.1619    9.7426 C   0  0  0  0  0  0  0  0  0  0  0  0
   -2.7739   14.3978    9.2783 C   0  0  0  0  0  0  0  0  0  0  0  0
   -3.7323   13.9188   10.1537 C   0  0  0  0  0  0  0  0  0  0  0  0
   -3.6436   14.2379   11.4988 C   0  0  0  0  0  0  0  0  0  0  0  0
   -2.5900   14.9968   11.9700 C   0  0  0  0  0  0  0  0  0  0  0  0
   -1.5850   15.4549   11.1093 C   0  0  0  0  0  0  0  0  0  0  0  0
   -0.0797   16.0892   12.7744 C   0  0  0  0  0  3  0  0  0  0  0  0
    0.9028   16.9008   13.4153 C   0  0  0  0  0  0  0  0  0  0  0  0
    1.3190   16.5629   14.7134 C   0  0  0  0  0  0  0  0  0  0  0  0
    2.2427   17.3214   15.3991 C   0  0  0  0  0  0  0  0  0  0  0  0
    2.7748   18.4431   14.7510 C   0  0  0  0  0  0  0  0  0  0  0  0
    2.4064   18.8364   13.4779 C   0  0  0  0  0  0  0  0  0  0  0  0
    1.4387   18.0649   12.7933 C   0  0  0  0  0  0  0  0  0  0  0  0
    2.6535   16.9193   16.8086 C   0  0  0  0  0  0  0  0  0  0  0  0
    3.2767   15.5173   16.7650 C   0  0  0  0  0  0  0  0  0  0  0  0
    3.6002   15.2214   17.7604 H   0  0  0  0  0  0  0  0  0  0  0  0
    4.1405   15.5104   16.1042 H   0  0  0  0  0  0  0  0  0  0  0  0
    2.5678   14.7778   16.4041 H   0  0  0  0  0  0  0  0  0  0  0  0
    1.4073   16.9095   17.7055 C   0  0  0  0  0  0  0  0  0  0  0  0
    0.6720   16.1899   17.3572 H   0  0  0  0  0  0  0  0  0  0  0  0
    0.9436   17.8935   17.7164 H   0  0  0  0  0  0  0  0  0  0  0  0
    1.6829   16.6470   18.7243 H   0  0  0  0  0  0  0  0  0  0  0  0
    3.6755   17.8776   17.4257 C   0  0  0  0  0  0  0  0  0  0  0  0
    3.2758   18.8864   17.4968 H   0  0  0  0  0  0  0  0  0  0  0  0
    4.5969   17.8944   16.8489 H   0  0  0  0  0  0  0  0  0  0  0  0
    3.9190   17.5437   18.4320 H   0  0  0  0  0  0  0  0  0  0  0  0
    3.0344   20.0286   12.7658 C   0  0  0  0  0  0  0  0  0  0  0  0
    4.0464   20.7675   13.6481 C   0  0  0  0  0  0  0  0  0  0  0  0
    3.5749   21.1577   14.5474 H   0  0  0  0  0  0  0  0  0  0  0  0
    4.4540   21.6089   13.0927 H   0  0  0  0  0  0  0  0  0  0  0  0
    4.8753   20.1206   13.9257 H   0  0  0  0  0  0  0  0  0  0  0  0
    1.9431   21.0300   12.3557 C   0  0  0  0  0  0  0  0  0  0  0  0
    1.3812   21.3554   13.2296 H   0  0  0  0  0  0  0  0  0  0  0  0
    1.2489   20.5942   11.6366 H   0  0  0  0  0  0  0  0  0  0  0  0
    2.4017   21.9021   11.8948 H   0  0  0  0  0  0  0  0  0  0  0  0
    3.7734   19.5126   11.5199 C   0  0  0  0  0  0  0  0  0  0  0  0
    4.5294   18.7828   11.8054 H   0  0  0  0  0  0  0  0  0  0  0  0
    4.2637   20.3406   11.0126 H   0  0  0  0  0  0  0  0  0  0  0  0
    3.0888   19.0386   10.8122 H   0  0  0  0  0  0  0  0  0  0  0  0
    0.5711   14.5159    8.2507 C   0  0  0  0  0  0  0  0  0  0  0  0
    0.4476   13.2600    8.8197 C   0  0  0  0  0  0  0  0  0  0  0  0
    1.4001   12.2959    8.5345 C   0  0  0  0  0  0  0  0  0  0  0  0
    2.4574   12.5813    7.6890 C   0  0  0  0  0  0  0  0  0  0  0  0
    2.5708   13.8419    7.1234 C   0  0  0  0  0  0  0  0  0  0  0  0
    1.6286   14.8133    7.3997 C   0  0  0  0  0  0  0  0  0  0  0  0
   -4.4066   13.9053   12.1861 H   0  0  0  0  0  0  0  0  0  0  0  0
   -4.5557   13.3281    9.7844 H   0  0  0  0  0  0  0  0  0  0  0  0
   -2.8413   14.1959    8.2202 H   0  0  0  0  0  0  0  0  0  0  0  0
   -2.5664   15.2787   13.0121 H   0  0  0  0  0  0  0  0  0  0  0  0
   -0.4790   15.2783   13.3931 H   0  0  0  0  0  0  0  0  0  0  0  0
    0.8960   15.6762   15.1613 H   0  0  0  0  0  0  0  0  0  0  0  0
    3.5123   19.0286   15.2688 H   0  0  0  0  0  0  0  0  0  0  0  0
    1.7141   15.8089    6.9851 H   0  0  0  0  0  0  0  0  0  0  0  0
   -0.3706   13.0357    9.4886 H   0  0  0  0  0  0  0  0  0  0  0  0
    1.3126   11.3176    8.9834 H   0  0  0  0  0  0  0  0  0  0  0  0
    3.1979   11.8251    7.4769 H   0  0  0  0  0  0  0  0  0  0  0  0
    3.3996   14.0724    6.4716 H   0  0  0  0  0  0  0  0  0  0  0  0
  1  4  1  0  0  0  0
  1  7  1  0  0  0  0
  1  6  1  0  0  0  0
  2 47  1  1  0  0  0
  2  8  1  0  0  0  0
  2  1  1  0  0  0  0
  3  1  1  0  0  0  0
  5  1  1  0  0  0  0
  6 20  1  0  0  0  0
  7 14  1  0  0  0  0
  8 13  1  0  0  0  0
  9  8  2  0  0  0  0
  9 10  1  0  0  0  0
 10 11  2  0  0  0  0
 11 12  1  0  0  0  0
 11 53  1  0  0  0  0
 12 56  1  0  0  0  0
 13  7  1  0  0  0  0
 13 12  2  0  0  0  0
 14 57  1  0  0  0  0
 14 15  1  0  0  0  0
 15 16  1  0  0  0  0
 16 58  1  0  0  0  0
 16 17  2  0  0  0  0
 17 21  1  0  0  0  0
 18 59  1  0  0  0  0
 18 17  1  0  0  0  0
 19 18  2  0  0  0  0
 20 15  2  0  0  0  0
 20 19  1  0  0  0  0
 21 30  1  0  0  0  0
 21 26  1  0  0  0  0
 22 21  1  0  0  0  0
 22 23  1  0  0  0  0
 24 22  1  0  0  0  0
 25 22  1  0  0  0  0
 26 28  1  0  0  0  0
 26 29  1  0  0  0  0
 27 26  1  0  0  0  0
 30 31  1  0  0  0  0
 30 33  1  0  0  0  0
 32 30  1  0  0  0  0
 34 19  1  0  0  0  0
 34 35  1  0  0  0  0
 35 38  1  0  0  0  0
 35 36  1  0  0  0  0
 37 35  1  0  0  0  0
 39 34  1  0  0  0  0
 39 40  1  0  0  0  0
 41 39  1  0  0  0  0
 42 39  1  0  0  0  0
 43 44  1  0  0  0  0
 43 34  1  0  0  0  0
 45 43  1  0  0  0  0
 46 43  1  0  0  0  0
 47 48  1  0  0  0  0
 48 61  1  0  0  0  0
 49 48  2  0  0  0  0
 49 62  1  0  0  0  0
 50 49  1  0  0  0  0
 51 52  1  0  0  0  0
 51 50  2  0  0  0  0
 52 47  2  0  0  0  0
 54 10  1  0  0  0  0
 55  9  1  0  0  0  0
 60 52  1  0  0  0  0
 63 50  1  0  0  0  0
 64 51  1  0  0  0  0
M  END
$$$$
