CSD_code = XEJKON | q = 0 | S = 0 | Stoichiometry = C28H32Cl3NO2STi | MND = 6
 OpenBabel04212202123D

 68 72  0  0  0  0  0  0  0  0999 V2000
    2.4495    3.4298    7.8172 Ti  0  0  0  0  0  0  0  0  0  0  0  0
    2.8259    0.8658    7.3853 S   0  0  2  0  0  3  0  0  0  0  0  0
    4.5560    3.1838    8.5980 Cl  0  0  0  0  0  0  0  0  0  0  0  0
    1.4970    2.8813    9.6938 Cl  0  0  0  0  0  0  0  0  0  0  0  0
    0.5522    3.2300    6.5823 Cl  0  0  0  0  0  0  0  0  0  0  0  0
    3.3707    3.4890    5.9309 N   0  0  0  0  0  0  0  0  0  0  0  0
    2.4416    5.1419    7.7814 O   0  0  0  0  0  0  0  0  0  0  0  0
    0.1447   -0.4359    3.2288 O   0  0  0  0  0  0  0  0  0  0  0  0
    2.1441    6.0048    6.8532 C   0  0  0  0  0  0  0  0  0  0  0  0
    1.5117    7.2353    7.1570 C   0  0  0  0  0  0  0  0  0  0  0  0
    1.2603    8.1073    6.1183 C   0  0  0  0  0  0  0  0  0  0  0  0
    0.7757    9.0425    6.3402 H   0  0  0  0  0  0  0  0  0  0  0  0
    1.5942    7.8457    4.7798 C   0  0  0  0  0  0  0  0  0  0  0  0
    2.1905    6.6414    4.4919 C   0  0  0  0  0  0  0  0  0  0  0  0
    2.4510    6.3766    3.4801 H   0  0  0  0  0  0  0  0  0  0  0  0
    2.4707    5.7012    5.5014 C   0  0  0  0  0  0  0  0  0  0  0  0
    3.1197    4.4836    5.1414 C   0  0  0  0  0  3  0  0  0  0  0  0
    4.1517    2.4203    5.4905 C   0  0  0  0  0  0  0  0  0  0  0  0
    5.1638    2.5816    4.5370 C   0  0  0  0  0  0  0  0  0  0  0  0
    5.3775    3.5669    4.1501 H   0  0  0  0  0  0  0  0  0  0  0  0
    5.9329    1.5105    4.1246 C   0  0  0  0  0  0  0  0  0  0  0  0
    6.7111    1.6672    3.3931 H   0  0  0  0  0  0  0  0  0  0  0  0
    5.7211    0.2485    4.6549 C   0  0  0  0  0  0  0  0  0  0  0  0
    4.7521    0.0745    5.6273 C   0  0  0  0  0  0  0  0  0  0  0  0
    3.9787    1.1443    6.0485 C   0  0  0  0  0  0  0  0  0  0  0  0
    1.0910    7.5125    8.5950 C   0  0  0  0  0  0  0  0  0  0  0  0
    0.0658    6.4453    9.0127 C   0  0  0  0  0  0  0  0  0  0  0  0
    0.5002    5.4427    9.0009 H   0  0  0  0  0  0  0  0  0  0  0  0
   -0.7868    6.4564    8.3355 H   0  0  0  0  0  0  0  0  0  0  0  0
   -0.2882    6.6484   10.0210 H   0  0  0  0  0  0  0  0  0  0  0  0
    2.3166    7.4589    9.5204 C   0  0  0  0  0  0  0  0  0  0  0  0
    2.7681    6.4665    9.5292 H   0  0  0  0  0  0  0  0  0  0  0  0
    2.0177    7.7022   10.5376 H   0  0  0  0  0  0  0  0  0  0  0  0
    3.0657    8.1801    9.1976 H   0  0  0  0  0  0  0  0  0  0  0  0
    0.4373    8.8895    8.7544 C   0  0  0  0  0  0  0  0  0  0  0  0
    0.1667    9.0360    9.7974 H   0  0  0  0  0  0  0  0  0  0  0  0
   -0.4716    8.9658    8.1621 H   0  0  0  0  0  0  0  0  0  0  0  0
    1.1221    9.6863    8.4720 H   0  0  0  0  0  0  0  0  0  0  0  0
    1.2765    8.8932    3.7241 C   0  0  0  0  0  0  0  0  0  0  0  0
   -0.2370    9.1493    3.7108 C   0  0  0  0  0  0  0  0  0  0  0  0
   -0.7723    8.2230    3.5152 H   0  0  0  0  0  0  0  0  0  0  0  0
   -0.4868    9.8648    2.9307 H   0  0  0  0  0  0  0  0  0  0  0  0
   -0.5830    9.5490    4.6595 H   0  0  0  0  0  0  0  0  0  0  0  0
    2.0244   10.1895    4.0663 C   0  0  0  0  0  0  0  0  0  0  0  0
    1.7183   10.5843    5.0307 H   0  0  0  0  0  0  0  0  0  0  0  0
    1.8238   10.9459    3.3110 H   0  0  0  0  0  0  0  0  0  0  0  0
    3.0966   10.0081    4.0968 H   0  0  0  0  0  0  0  0  0  0  0  0
    1.6989    8.4538    2.3198 C   0  0  0  0  0  0  0  0  0  0  0  0
    2.7713    8.2801    2.2698 H   0  0  0  0  0  0  0  0  0  0  0  0
    1.4534    9.2379    1.6069 H   0  0  0  0  0  0  0  0  0  0  0  0
    1.1737    7.5508    2.0185 H   0  0  0  0  0  0  0  0  0  0  0  0
    1.3585    0.2972    6.5382 C   0  0  0  0  0  0  0  0  0  0  0  0
    1.3005    0.1218    5.1718 C   0  0  0  0  0  0  0  0  0  0  0  0
    2.1458    0.3219    4.5315 H   0  0  0  0  0  0  0  0  0  0  0  0
    0.1072   -0.3008    4.5819 C   0  0  0  0  0  0  0  0  0  0  0  0
   -1.0021   -0.5525    5.3806 C   0  0  0  0  0  0  0  0  0  0  0  0
   -0.9166   -0.3784    6.7537 C   0  0  0  0  0  0  0  0  0  0  0  0
   -1.7857   -0.5678    7.3650 H   0  0  0  0  0  0  0  0  0  0  0  0
    0.2553    0.0420    7.3460 C   0  0  0  0  0  0  0  0  0  0  0  0
    0.3216    0.2056    8.4121 H   0  0  0  0  0  0  0  0  0  0  0  0
   -1.0384   -0.8045    2.5596 C   0  0  0  0  0  0  0  0  0  0  0  0
   -1.3840   -1.7959    2.8697 H   0  0  0  0  0  0  0  0  0  0  0  0
   -0.7822   -0.8285    1.5015 H   0  0  0  0  0  0  0  0  0  0  0  0
   -1.8351   -0.0722    2.7233 H   0  0  0  0  0  0  0  0  0  0  0  0
    3.4180    4.4137    4.0898 H   0  0  0  0  0  0  0  0  0  0  0  0
    6.3226   -0.5876    4.3349 H   0  0  0  0  0  0  0  0  0  0  0  0
    4.5903   -0.8911    6.0811 H   0  0  0  0  0  0  0  0  0  0  0  0
   -1.9368   -0.8722    4.9494 H   0  0  0  0  0  0  0  0  0  0  0  0
  1  3  1  0  0  0  0
  1  4  1  0  0  0  0
  2 52  1  6  0  0  0
  2  1  1  0  0  0  0
  5  1  1  0  0  0  0
  6  1  1  0  0  0  0
  7  1  1  0  0  0  0
  8 55  1  0  0  0  0
  9 10  1  0  0  0  0
  9  7  1  0  0  0  0
 10 26  1  0  0  0  0
 11 12  1  0  0  0  0
 11 10  2  0  0  0  0
 13 11  1  0  0  0  0
 14 13  2  0  0  0  0
 14 16  1  0  0  0  0
 15 14  1  0  0  0  0
 16  9  2  0  0  0  0
 17 16  1  0  0  0  0
 17  6  1  0  0  0  0
 18  6  1  0  0  0  0
 18 25  1  0  0  0  0
 19 18  2  0  0  0  0
 20 19  1  0  0  0  0
 21 19  1  0  0  0  0
 21 23  2  0  0  0  0
 22 21  1  0  0  0  0
 23 24  1  0  0  0  0
 24 25  2  0  0  0  0
 24 67  1  0  0  0  0
 25  2  1  0  0  0  0
 26 35  1  0  0  0  0
 26 27  1  0  0  0  0
 26 31  1  0  0  0  0
 27 30  1  0  0  0  0
 28 27  1  0  0  0  0
 29 27  1  0  0  0  0
 31 32  1  0  0  0  0
 31 33  1  0  0  0  0
 34 31  1  0  0  0  0
 35 36  1  0  0  0  0
 37 35  1  0  0  0  0
 38 35  1  0  0  0  0
 39 44  1  0  0  0  0
 39 13  1  0  0  0  0
 40 39  1  0  0  0  0
 40 43  1  0  0  0  0
 41 40  1  0  0  0  0
 42 40  1  0  0  0  0
 44 47  1  0  0  0  0
 44 45  1  0  0  0  0
 46 44  1  0  0  0  0
 48 39  1  0  0  0  0
 49 48  1  0  0  0  0
 50 48  1  0  0  0  0
 51 48  1  0  0  0  0
 52 59  1  0  0  0  0
 53 52  2  0  0  0  0
 54 53  1  0  0  0  0
 55 53  1  0  0  0  0
 55 56  2  0  0  0  0
 56 57  1  0  0  0  0
 57 59  2  0  0  0  0
 57 58  1  0  0  0  0
 59 60  1  0  0  0  0
 61 64  1  0  0  0  0
 61 62  1  0  0  0  0
 61  8  1  0  0  0  0
 63 61  1  0  0  0  0
 65 17  1  0  0  0  0
 66 23  1  0  0  0  0
 68 56  1  0  0  0  0
M  END
$$$$
