CSD_code = XEJLAA | q = 0 | S = 0 | Stoichiometry = C27H29Cl4NOSTi | MND = 6
 OpenBabel04212202123D

 64 68  0  0  0  0  0  0  0  0999 V2000
    2.5131    2.7638    2.4755 Ti  0  0  0  0  0  0  0  0  0  0  0  0
   -0.1179    2.7658    2.5359 S   0  0  1  0  0  3  0  0  0  0  0  0
    2.3107    4.1131    0.6584 Cl  0  0  0  0  0  0  0  0  0  0  0  0
    2.3780    0.9206    1.3287 Cl  0  0  0  0  0  0  0  0  0  0  0  0
    2.1276    1.7808    4.4696 Cl  0  0  0  0  0  0  0  0  0  0  0  0
   -2.0392    7.1205   -0.1509 Cl  0  0  0  0  0  0  0  0  0  0  0  0
    2.1602    4.5540    3.5123 N   0  0  0  0  0  0  0  0  0  0  0  0
    4.1831    3.0517    2.6871 O   0  0  0  0  0  0  0  0  0  0  0  0
    4.9229    4.1176    2.5765 C   0  0  0  0  0  0  0  0  0  0  0  0
    6.2532    4.0512    2.0959 C   0  0  0  0  0  0  0  0  0  0  0  0
    6.9799    5.2224    2.0407 C   0  0  0  0  0  0  0  0  0  0  0  0
    7.9901    5.1816    1.6715 H   0  0  0  0  0  0  0  0  0  0  0  0
    6.4771    6.4732    2.4338 C   0  0  0  0  0  0  0  0  0  0  0  0
    5.1779    6.5306    2.8790 C   0  0  0  0  0  0  0  0  0  0  0  0
    4.3756    5.3760    2.9544 C   0  0  0  0  0  0  0  0  0  0  0  0
    3.0444    5.4982    3.4503 C   0  0  0  0  0  3  0  0  0  0  0  0
    2.7742    6.5009    3.7981 H   0  0  0  0  0  0  0  0  0  0  0  0
    0.9427    4.7719    4.1580 C   0  0  0  0  0  0  0  0  0  0  0  0
    0.8196    5.6627    5.2313 C   0  0  0  0  0  0  0  0  0  0  0  0
    1.6964    6.1728    5.6013 H   0  0  0  0  0  0  0  0  0  0  0  0
   -0.3935    5.8587    5.8624 C   0  0  0  0  0  0  0  0  0  0  0  0
   -0.4548    6.5479    6.6908 H   0  0  0  0  0  0  0  0  0  0  0  0
   -1.5201    5.1666    5.4492 C   0  0  0  0  0  0  0  0  0  0  0  0
   -2.4672    5.3177    5.9423 H   0  0  0  0  0  0  0  0  0  0  0  0
   -1.4126    4.2500    4.4183 C   0  0  0  0  0  0  0  0  0  0  0  0
   -2.2667    3.6717    4.1012 H   0  0  0  0  0  0  0  0  0  0  0  0
   -0.1986    4.0470    3.7807 C   0  0  0  0  0  0  0  0  0  0  0  0
    6.7962    2.7113    1.6148 C   0  0  0  0  0  0  0  0  0  0  0  0
    6.7337    1.6802    2.7526 C   0  0  0  0  0  0  0  0  0  0  0  0
    7.2969    2.0342    3.6145 H   0  0  0  0  0  0  0  0  0  0  0  0
    7.1672    0.7403    2.4184 H   0  0  0  0  0  0  0  0  0  0  0  0
    5.7062    1.4867    3.0624 H   0  0  0  0  0  0  0  0  0  0  0  0
    5.9400    2.2416    0.4270 C   0  0  0  0  0  0  0  0  0  0  0  0
    4.9007    2.0734    0.7201 H   0  0  0  0  0  0  0  0  0  0  0  0
    6.3354    1.3076    0.0339 H   0  0  0  0  0  0  0  0  0  0  0  0
    5.9552    2.9870   -0.3666 H   0  0  0  0  0  0  0  0  0  0  0  0
    8.2514    2.8092    1.1444 C   0  0  0  0  0  0  0  0  0  0  0  0
    8.3484    3.4865    0.2991 H   0  0  0  0  0  0  0  0  0  0  0  0
    8.5878    1.8266    0.8222 H   0  0  0  0  0  0  0  0  0  0  0  0
    8.9047    3.1384    1.9496 H   0  0  0  0  0  0  0  0  0  0  0  0
    7.3811    7.6922    2.3373 C   0  0  0  0  0  0  0  0  0  0  0  0
    7.7955    7.8915    0.8728 C   0  0  0  0  0  0  0  0  0  0  0  0
    6.9147    8.0172    0.2474 H   0  0  0  0  0  0  0  0  0  0  0  0
    8.3607    7.0428    0.4987 H   0  0  0  0  0  0  0  0  0  0  0  0
    8.4159    8.7799    0.7791 H   0  0  0  0  0  0  0  0  0  0  0  0
    8.6253    7.4645    3.2073 C   0  0  0  0  0  0  0  0  0  0  0  0
    9.2723    8.3378    3.1664 H   0  0  0  0  0  0  0  0  0  0  0  0
    9.1970    6.6045    2.8710 H   0  0  0  0  0  0  0  0  0  0  0  0
    8.3356    7.2982    4.2426 H   0  0  0  0  0  0  0  0  0  0  0  0
    6.6902    8.9711    2.8177 C   0  0  0  0  0  0  0  0  0  0  0  0
    7.3814    9.8071    2.7362 H   0  0  0  0  0  0  0  0  0  0  0  0
    6.3894    8.8861    3.8593 H   0  0  0  0  0  0  0  0  0  0  0  0
    5.8187    9.1976    2.2085 H   0  0  0  0  0  0  0  0  0  0  0  0
   -0.6600    3.6065    1.0591 C   0  0  0  0  0  0  0  0  0  0  0  0
   -1.1034    4.9180    1.0593 C   0  0  0  0  0  0  0  0  0  0  0  0
   -1.1319    5.5023    1.9662 H   0  0  0  0  0  0  0  0  0  0  0  0
   -1.4952    5.4832   -0.1441 C   0  0  0  0  0  0  0  0  0  0  0  0
   -1.4580    4.7647   -1.3267 C   0  0  0  0  0  0  0  0  0  0  0  0
   -1.0148    3.4515   -1.3022 C   0  0  0  0  0  0  0  0  0  0  0  0
   -0.9719    2.8859   -2.2198 H   0  0  0  0  0  0  0  0  0  0  0  0
   -0.6178    2.8650   -0.1166 C   0  0  0  0  0  0  0  0  0  0  0  0
    4.7316    7.4665    3.1737 H   0  0  0  0  0  0  0  0  0  0  0  0
   -1.7620    5.2284   -2.2514 H   0  0  0  0  0  0  0  0  0  0  0  0
   -0.2471    1.8496   -0.0916 H   0  0  0  0  0  0  0  0  0  0  0  0
  1  2  1  0  0  0  0
  1  8  1  0  0  0  0
  1  7  1  0  0  0  0
  1  5  1  0  0  0  0
  2 54  1  6  0  0  0
  2 27  1  0  0  0  0
  3  1  1  0  0  0  0
  4  1  1  0  0  0  0
  6 57  1  0  0  0  0
  7 18  1  0  0  0  0
  9  8  1  0  0  0  0
  9 15  1  0  0  0  0
 10  9  2  0  0  0  0
 11 10  1  0  0  0  0
 11 13  2  0  0  0  0
 12 11  1  0  0  0  0
 13 14  1  0  0  0  0
 14 15  2  0  0  0  0
 14 62  1  0  0  0  0
 15 16  1  0  0  0  0
 16  7  1  0  0  0  0
 16 17  1  0  0  0  0
 18 19  1  0  0  0  0
 19 20  1  0  0  0  0
 19 21  2  0  0  0  0
 21 22  1  0  0  0  0
 23 21  1  0  0  0  0
 23 24  1  0  0  0  0
 25 23  2  0  0  0  0
 26 25  1  0  0  0  0
 27 18  2  0  0  0  0
 27 25  1  0  0  0  0
 28 10  1  0  0  0  0
 28 29  1  0  0  0  0
 29 32  1  0  0  0  0
 29 30  1  0  0  0  0
 31 29  1  0  0  0  0
 33 34  1  0  0  0  0
 33 28  1  0  0  0  0
 35 33  1  0  0  0  0
 36 33  1  0  0  0  0
 37 28  1  0  0  0  0
 37 40  1  0  0  0  0
 38 37  1  0  0  0  0
 39 37  1  0  0  0  0
 41 13  1  0  0  0  0
 41 50  1  0  0  0  0
 41 46  1  0  0  0  0
 42 41  1  0  0  0  0
 43 42  1  0  0  0  0
 44 42  1  0  0  0  0
 45 42  1  0  0  0  0
 46 49  1  0  0  0  0
 47 46  1  0  0  0  0
 48 46  1  0  0  0  0
 50 52  1  0  0  0  0
 51 50  1  0  0  0  0
 53 50  1  0  0  0  0
 54 55  1  0  0  0  0
 55 56  1  0  0  0  0
 57 55  2  0  0  0  0
 58 59  2  0  0  0  0
 58 57  1  0  0  0  0
 59 61  1  0  0  0  0
 60 59  1  0  0  0  0
 61 64  1  0  0  0  0
 61 54  2  0  0  0  0
 63 58  1  0  0  0  0
M  END
$$$$
