CSD_code = XEJPAD | q = 0 | S = 0 | Stoichiometry = C9H10BrO3ReS2 | MND = 6
 OpenBabel04212202123D

 26 26  0  0  0  0  0  0  0  0999 V2000
    9.5350    2.7447    3.6053 Re  0  0  0  0  0  0  0  0  0  0  0  0
    7.4910    2.1316    2.2995 Br  0  0  0  0  0  0  0  0  0  0  0  0
    9.5454    1.0805    4.6175 C   0  0  0  0  0  2  0  0  0  0  0  0
    9.5075    0.1008    5.2070 O   0  0  0  0  0  1  0  0  0  0  0  0
   10.6774    1.9857    2.2232 C   0  0  0  0  0  2  0  0  0  0  0  0
   11.3147    1.5623    1.3731 O   0  0  0  0  0  1  0  0  0  0  0  0
   11.0281    3.4907    4.5811 C   0  0  0  0  0  2  0  0  0  0  0  0
   11.8998    3.9765    5.1447 O   0  0  0  0  0  1  0  0  0  0  0  0
   10.3483    6.2041    2.7347 C   0  0  0  0  0  0  0  0  0  0  0  0
   11.2853    5.9212    2.2642 H   0  0  0  0  0  0  0  0  0  0  0  0
   10.4933    6.2887    3.8073 H   0  0  0  0  0  0  0  0  0  0  0  0
    9.9915    7.1411    2.3153 H   0  0  0  0  0  0  0  0  0  0  0  0
    9.1607    4.8942    2.3245 S   0  0  2  0  0  3  0  0  0  0  0  0
    7.6474    5.5530    3.1095 C   0  0  0  0  0  0  0  0  0  0  0  0
    7.5054    6.5611    2.7166 H   0  0  0  0  0  0  0  0  0  0  0  0
    6.8436    4.9134    2.7384 H   0  0  0  0  0  0  0  0  0  0  0  0
    7.6861    5.5737    4.6241 C   0  0  0  0  0  0  0  0  0  0  0  0
    6.7379    5.9351    5.0243 H   0  0  0  0  0  0  0  0  0  0  0  0
    8.4880    6.2163    4.9926 H   0  0  0  0  0  0  0  0  0  0  0  0
    8.0051    3.9414    5.3944 S   0  0  1  0  0  3  0  0  0  0  0  0
    6.3197    3.1972    5.3351 C   0  0  0  0  0  0  0  0  0  0  0  0
    5.6869    3.8084    5.9815 H   0  0  0  0  0  0  0  0  0  0  0  0
    5.9615    3.2047    4.3031 H   0  0  0  0  0  0  0  0  0  0  0  0
    6.4080    1.8418    5.8102 C   0  0  0  0  0  0  0  0  0  0  0  0
    6.5467    0.7129    6.1827 C   0  0  0  0  0  0  0  0  0  0  0  0
    6.6356   -0.2821    6.5012 H   0  0  0  0  0  0  0  0  0  0  0  0
  1  7  1  0  0  0  0
  1  3  1  0  0  0  0
  1 20  1  0  0  0  0
  2  1  1  0  0  0  0
  3  4  1  0  0  0  0
  5  1  1  0  0  0  0
  6  5  1  0  0  0  0
  7  8  1  0  0  0  0
  9 11  1  0  0  0  0
 10  9  1  0  0  0  0
 12  9  1  0  0  0  0
 13  9  1  1  0  0  0
 13 14  1  0  0  0  0
 13  1  1  0  0  0  0
 14 17  1  0  0  0  0
 15 14  1  0  0  0  0
 16 14  1  0  0  0  0
 17 19  1  0  0  0  0
 17 18  1  0  0  0  0
 17 20  1  0  0  0  0
 20 21  1  6  0  0  0
 21 24  1  0  0  0  0
 21 22  1  0  0  0  0
 23 21  1  0  0  0  0
 24 25  3  0  0  0  0
 25 26  1  0  0  0  0
M  END
$$$$
