CSD_code = XEKBUL | q = 0 | S = 0 | Stoichiometry = C17H10BrN2O3Re | MND = 6
 OpenBabel04212202123D

 34 36  0  0  0  0  0  0  0  0999 V2000
    2.9332    1.4095    2.6209 Re  0  0  0  0  0  0  0  0  0  0  0  0
    2.4374    1.9747    0.1541 Br  0  0  0  0  0  0  0  0  0  0  0  0
    4.9317    2.0440    2.1149 N   0  0  0  0  0  0  0  0  0  0  0  0
    2.8889    3.5295    2.8782 N   0  0  0  0  0  0  0  0  0  0  0  0
    3.3793    1.0452    4.4736 C   0  0  0  0  0  2  0  0  0  0  0  0
    3.6474    0.8524    5.5724 O   0  0  0  0  0  1  0  0  0  0  0  0
    1.0134    1.1533    2.8902 C   0  0  0  0  0  2  0  0  0  0  0  0
   -0.1248    1.0829    2.9679 O   0  0  0  0  0  1  0  0  0  0  0  0
    3.1606   -0.4576    2.0877 C   0  0  0  0  0  2  0  0  0  0  0  0
    3.3253   -1.5139    1.6820 O   0  0  0  0  0  1  0  0  0  0  0  0
   -1.7184    6.3790    4.2748 C   0  0  0  0  0  0  0  0  0  0  0  0
   -2.7047    6.9960    4.5723 C   0  0  0  0  0  0  0  0  0  0  0  0
   -3.5698    7.5253    4.8411 H   0  0  0  0  0  0  0  0  0  0  0  0
    5.9444    1.2796    1.7190 C   0  0  0  0  0  3  0  0  0  0  0  0
    5.7964    0.2094    1.7872 H   0  0  0  0  0  0  0  0  0  0  0  0
    7.1330    1.7945    1.2345 C   0  0  0  0  0  0  0  0  0  0  0  0
    7.9167    1.1254    0.9188 H   0  0  0  0  0  0  0  0  0  0  0  0
    7.2915    3.1735    1.1562 C   0  0  0  0  0  0  0  0  0  0  0  0
    8.2049    3.6035    0.7757 H   0  0  0  0  0  0  0  0  0  0  0  0
    6.2521    3.9791    1.5715 C   0  0  0  0  0  0  0  0  0  0  0  0
    6.3197    5.0549    1.5274 H   0  0  0  0  0  0  0  0  0  0  0  0
    5.0796    3.3854    2.0438 C   0  0  0  0  0  0  0  0  0  0  0  0
    3.9407    4.1549    2.4681 C   0  0  0  0  0  3  0  0  0  0  0  0
    3.9929    5.2400    2.4366 H   0  0  0  0  0  0  0  0  0  0  0  0
    1.7488    4.2614    3.2238 C   0  0  0  0  0  0  0  0  0  0  0  0
    1.0179    3.8935    4.3563 C   0  0  0  0  0  0  0  0  0  0  0  0
    1.3618    3.0652    4.9615 H   0  0  0  0  0  0  0  0  0  0  0  0
   -0.1129    4.5955    4.7075 C   0  0  0  0  0  0  0  0  0  0  0  0
   -0.6719    4.3189    5.5885 H   0  0  0  0  0  0  0  0  0  0  0  0
   -0.5513    5.6639    3.9208 C   0  0  0  0  0  0  0  0  0  0  0  0
    0.1660    6.0147    2.7763 C   0  0  0  0  0  0  0  0  0  0  0  0
   -0.1850    6.8247    2.1549 H   0  0  0  0  0  0  0  0  0  0  0  0
    1.3112    5.3277    2.4358 C   0  0  0  0  0  0  0  0  0  0  0  0
    1.8394    5.5744    1.5258 H   0  0  0  0  0  0  0  0  0  0  0  0
  1  4  1  0  0  0  0
  1  7  1  0  0  0  0
  1  5  1  0  0  0  0
  2  1  1  0  0  0  0
  3  1  1  0  0  0  0
  4 25  1  0  0  0  0
  5  6  1  0  0  0  0
  7  8  1  0  0  0  0
  9  1  1  0  0  0  0
 10  9  1  0  0  0  0
 11 12  3  0  0  0  0
 12 13  1  0  0  0  0
 14 15  1  0  0  0  0
 14  3  1  0  0  0  0
 16 14  1  0  0  0  0
 17 16  1  0  0  0  0
 18 16  2  0  0  0  0
 18 20  1  0  0  0  0
 19 18  1  0  0  0  0
 20 22  2  0  0  0  0
 21 20  1  0  0  0  0
 22  3  1  0  0  0  0
 22 23  1  0  0  0  0
 23  4  1  0  0  0  0
 24 23  1  0  0  0  0
 25 26  1  0  0  0  0
 26 28  2  0  0  0  0
 26 27  1  0  0  0  0
 28 29  1  0  0  0  0
 30 11  1  0  0  0  0
 30 28  1  0  0  0  0
 31 30  2  0  0  0  0
 32 31  1  0  0  0  0
 33 31  1  0  0  0  0
 33 25  2  0  0  0  0
 34 33  1  0  0  0  0
M  END
$$$$
