CSD_code = XEKCOI | q = 0 | S = 0 | Stoichiometry = C14H18I2N2O2Zn | MND = 4
 OpenBabel04212202123D

 39 39  0  0  0  0  0  0  0  0999 V2000
   10.0696    8.9269    8.8355 C   0  0  0  0  0  0  0  0  0  0  0  0
    9.9962   10.1259    9.5178 C   0  0  0  0  0  0  0  0  0  0  0  0
   10.0118   11.0523    8.9598 H   0  0  0  0  0  0  0  0  0  0  0  0
    9.8971   10.1308   10.9007 C   0  0  0  0  0  0  0  0  0  0  0  0
    9.8344   11.0685   11.4307 H   0  0  0  0  0  0  0  0  0  0  0  0
    9.8786    8.9359   11.5932 C   0  0  0  0  0  0  0  0  0  0  0  0
    9.7982    8.9356   12.6688 H   0  0  0  0  0  0  0  0  0  0  0  0
    9.9514    7.7249   10.9211 C   0  0  0  0  0  0  0  0  0  0  0  0
    9.9161    6.8036   11.4789 H   0  0  0  0  0  0  0  0  0  0  0  0
   10.0429    7.7146    9.5401 C   0  0  0  0  0  0  0  0  0  0  0  0
   10.0625    5.3321    9.3632 C   0  0  0  0  0  0  0  0  0  0  0  0
    9.1328    5.1763    9.9178 H   0  0  0  0  0  0  0  0  0  0  0  0
   10.9198    5.2126   10.0307 H   0  0  0  0  0  0  0  0  0  0  0  0
   10.1297    4.6045    8.5554 H   0  0  0  0  0  0  0  0  0  0  0  0
    8.0771   10.2081    5.4938 C   0  0  0  0  0  0  0  0  0  0  0  0
    9.0064   10.6773    4.5832 C   0  0  0  0  0  0  0  0  0  0  0  0
    9.2512   10.0779    3.7184 H   0  0  0  0  0  0  0  0  0  0  0  0
    9.6269   11.9013    4.7877 C   0  0  0  0  0  0  0  0  0  0  0  0
   10.3509   12.2595    4.0731 H   0  0  0  0  0  0  0  0  0  0  0  0
    9.3098   12.6565    5.8999 C   0  0  0  0  0  0  0  0  0  0  0  0
    9.7852   13.6119    6.0603 H   0  0  0  0  0  0  0  0  0  0  0  0
    8.3793   12.1984    6.8235 C   0  0  0  0  0  0  0  0  0  0  0  0
    8.1420   12.8015    7.6856 H   0  0  0  0  0  0  0  0  0  0  0  0
    7.7611   10.9729    6.6329 C   0  0  0  0  0  0  0  0  0  0  0  0
    6.4795   11.0639    8.6468 C   0  0  0  0  0  0  0  0  0  0  0  0
    5.9981   12.0198    8.4192 H   0  0  0  0  0  0  0  0  0  0  0  0
    7.3355   11.2270    9.3082 H   0  0  0  0  0  0  0  0  0  0  0  0
    5.7696   10.4022    9.1397 H   0  0  0  0  0  0  0  0  0  0  0  0
   10.0970    8.8476    7.4147 N   0  0  0  0  0  4  0  0  0  0  0  0
   10.9184    8.3295    7.1034 H   0  0  0  0  0  0  0  0  0  0  0  0
   10.1255    9.7749    6.9978 H   0  0  0  0  0  0  0  0  0  0  0  0
    7.4855    8.9267    5.3749 N   0  0  0  0  0  0  0  0  0  0  0  0
    7.5013    8.6003    4.4120 H   0  0  0  0  0  0  0  0  0  0  0  0
    6.5267    8.9555    5.7164 H   0  0  0  0  0  0  0  0  0  0  0  0
   10.0820    6.6018    8.7421 O   0  0  0  0  0  0  0  0  0  0  0  0
    6.8611   10.3903    7.4715 O   0  0  0  0  0  0  0  0  0  0  0  0
    8.4757    7.3232    6.8322 Zn  0  0  0  0  0  0  0  0  0  0  0  0
    6.6044    7.0490    8.4936 I   0  0  0  0  0  0  0  0  0  0  0  0
    9.7105    5.9939    5.0773 I   0  0  0  0  0  0  0  0  0  0  0  0
  1  2  2  0  0  0  0
  1 10  1  0  0  0  0
  2  4  1  0  0  0  0
  3  2  1  0  0  0  0
  4  5  1  0  0  0  0
  4  6  2  0  0  0  0
  6  7  1  0  0  0  0
  8  9  1  0  0  0  0
  8  6  1  0  0  0  0
 10  8  2  0  0  0  0
 11 12  1  0  0  0  0
 11 13  1  0  0  0  0
 14 11  1  0  0  0  0
 15 24  1  0  0  0  0
 16 18  1  0  0  0  0
 16 15  2  0  0  0  0
 17 16  1  0  0  0  0
 18 20  2  0  0  0  0
 19 18  1  0  0  0  0
 20 21  1  0  0  0  0
 20 22  1  0  0  0  0
 22 23  1  0  0  0  0
 24 22  2  0  0  0  0
 24 36  1  0  0  0  0
 25 28  1  0  0  0  0
 25 27  1  0  0  0  0
 26 25  1  0  0  0  0
 29  1  1  0  0  0  0
 30 29  1  0  0  0  0
 31 29  1  0  0  0  0
 32 15  1  0  0  0  0
 32 34  1  0  0  0  0
 33 32  1  0  0  0  0
 35 11  1  0  0  0  0
 35 10  1  0  0  0  0
 36 25  1  0  0  0  0
 37 29  1  0  0  0  0
 37 38  1  0  0  0  0
 39 37  1  0  0  0  0
M  END
$$$$
