CSD_code = XEKFEZ | q = 0 | S = 0 | Stoichiometry = C21H16Cl2F3N3Pd | MND = 4
 OpenBabel04212202123D

 46 49  0  0  0  0  0  0  0  0999 V2000
    2.2995    6.6991   20.3449 Pd  0  0  0  0  0  0  0  0  0  0  0  0
    0.0219    6.7204   20.1174 Cl  0  0  0  0  0  0  0  0  0  0  0  0
    4.6092    6.6933   20.3859 Cl  0  0  0  0  0  0  0  0  0  0  0  0
    2.1505    8.4850   21.0744 C   0  0  0  0  0  0  0  0  0  0  0  0
    2.0375    8.8707   22.3596 N   0  0  0  0  0  0  0  0  0  0  0  0
    1.8207   10.2291   22.4164 C   0  0  0  0  0  0  0  0  0  0  0  0
    1.7383   10.7593   23.3423 H   0  0  0  0  0  0  0  0  0  0  0  0
    1.7843   10.6803   21.1436 C   0  0  0  0  0  0  0  0  0  0  0  0
    1.6600   11.6726   20.7623 H   0  0  0  0  0  0  0  0  0  0  0  0
    1.9833    9.5938   20.3249 N   0  0  0  0  0  0  0  0  0  0  0  0
    1.8195    9.5644   18.9224 C   0  0  0  0  0  0  0  0  0  0  0  0
    2.6267    8.7378   18.1376 C   0  0  0  0  0  0  0  0  0  0  0  0
    3.4737    8.2113   18.5753 H   0  0  0  0  0  0  0  0  0  0  0  0
    2.3977    8.6562   16.7745 C   0  0  0  0  0  0  0  0  0  0  0  0
    3.0084    8.0287   16.1447 H   0  0  0  0  0  0  0  0  0  0  0  0
    1.1526    9.3194   14.8914 F   0  0  0  0  0  0  0  0  0  0  0  0
    1.3735    9.4016   16.2160 C   0  0  0  0  0  0  0  0  0  0  0  0
    0.5799   10.2401   16.9779 C   0  0  0  0  0  0  0  0  0  0  0  0
   -0.2078   10.8078   16.5095 H   0  0  0  0  0  0  0  0  0  0  0  0
    0.8040   10.3153   18.3400 C   0  0  0  0  0  0  0  0  0  0  0  0
    0.1701   10.9364   18.9538 H   0  0  0  0  0  0  0  0  0  0  0  0
    1.9810    7.9822   23.4543 C   0  0  0  0  0  0  0  0  0  0  0  0
    2.8021    6.8563   23.4925 C   0  0  0  0  0  0  0  0  0  0  0  0
    3.5377    6.6805   22.7133 H   0  0  0  0  0  0  0  0  0  0  0  0
    2.7249    5.9902   24.5690 C   0  0  0  0  0  0  0  0  0  0  0  0
    3.3662    5.1266   24.6331 H   0  0  0  0  0  0  0  0  0  0  0  0
    1.7365    5.4049   26.6233 F   0  0  0  0  0  0  0  0  0  0  0  0
    1.8170    6.2500   25.5805 C   0  0  0  0  0  0  0  0  0  0  0  0
    0.9895    7.3589   25.5531 C   0  0  0  0  0  0  0  0  0  0  0  0
    0.2899    7.5286   26.3558 H   0  0  0  0  0  0  0  0  0  0  0  0
    1.0759    8.2283   24.4828 C   0  0  0  0  0  0  0  0  0  0  0  0
    0.4232    9.0862   24.4370 H   0  0  0  0  0  0  0  0  0  0  0  0
    2.3090    4.7318   19.5408 N   0  0  0  0  0  4  0  0  0  0  0  0
    2.9662    4.5419   18.7839 H   0  0  0  0  0  0  0  0  0  0  0  0
    1.3385    4.6038   19.2410 H   0  0  0  0  0  0  0  0  0  0  0  0
    2.6222    4.0116   20.7239 C   0  0  0  0  0  0  0  0  0  0  0  0
    3.8457    3.3599   20.8570 C   0  0  0  0  0  0  0  0  0  0  0  0
    4.5681    3.3997   20.0550 H   0  0  0  0  0  0  0  0  0  0  0  0
    4.1541    2.6897   22.0267 C   0  0  0  0  0  0  0  0  0  0  0  0
    5.1013    2.1896   22.1489 H   0  0  0  0  0  0  0  0  0  0  0  0
    3.5167    2.0013   24.1871 F   0  0  0  0  0  0  0  0  0  0  0  0
    3.2222    2.6627   23.0473 C   0  0  0  0  0  0  0  0  0  0  0  0
    1.9978    3.3007   22.9388 C   0  0  0  0  0  0  0  0  0  0  0  0
    1.2969    3.2612   23.7573 H   0  0  0  0  0  0  0  0  0  0  0  0
    1.6998    3.9837   21.7749 C   0  0  0  0  0  0  0  0  0  0  0  0
    0.7481    4.4953   21.6717 H   0  0  0  0  0  0  0  0  0  0  0  0
  1  3  1  0  0  0  0
  1  4  2  0  0  0  0
  2  1  1  0  0  0  0
  4  5  1  0  0  0  0
  5  6  1  0  0  0  0
  5 22  1  0  0  0  0
  6  7  1  0  0  0  0
  8  6  2  0  0  0  0
  9  8  1  0  0  0  0
 10  4  1  0  0  0  0
 10  8  1  0  0  0  0
 11 10  1  0  0  0  0
 12 13  1  0  0  0  0
 12 11  2  0  0  0  0
 14 12  1  0  0  0  0
 15 14  1  0  0  0  0
 16 17  1  0  0  0  0
 17 14  2  0  0  0  0
 17 18  1  0  0  0  0
 18 20  2  0  0  0  0
 19 18  1  0  0  0  0
 20 11  1  0  0  0  0
 20 21  1  0  0  0  0
 22 23  2  0  0  0  0
 22 31  1  0  0  0  0
 23 25  1  0  0  0  0
 24 23  1  0  0  0  0
 25 26  1  0  0  0  0
 25 28  2  0  0  0  0
 28 27  1  0  0  0  0
 29 28  1  0  0  0  0
 29 30  1  0  0  0  0
 31 29  2  0  0  0  0
 32 31  1  0  0  0  0
 33  1  1  0  0  0  0
 33 36  1  0  0  0  0
 34 33  1  0  0  0  0
 35 33  1  0  0  0  0
 36 37  2  0  0  0  0
 36 45  1  0  0  0  0
 37 39  1  0  0  0  0
 38 37  1  0  0  0  0
 39 40  1  0  0  0  0
 39 42  2  0  0  0  0
 42 41  1  0  0  0  0
 43 42  1  0  0  0  0
 43 44  1  0  0  0  0
 45 43  2  0  0  0  0
 46 45  1  0  0  0  0
M  END
$$$$
