CSD_code = XEKJII | q = 0 | S = 0 | Stoichiometry = C29H27Cl2N4PRuS | MND = 6
 OpenBabel04212202123D

 65 71  0  0  0  0  0  0  0  0999 V2000
    9.0382    3.1350   17.7959 Ru  0  0  0  0  0  0  0  0  0  0  0  0
    7.0878    1.8607   18.0399 Cl  0  0  0  0  0  0  0  0  0  0  0  0
    9.3003    2.2457   15.6131 Cl  0  0  0  0  0  0  0  0  0  0  0  0
   10.4930    1.4831   18.7354 S   0  0  1  0  0  3  0  0  0  0  0  0
    8.7191    4.0760   19.8916 P   0  0  0  0  0  4  0  0  0  0  0  0
   10.5935    4.1290   17.4311 N   0  0  0  0  0  0  0  0  0  0  0  0
   10.5259    5.2646   16.7859 N   0  0  0  0  0  0  0  0  0  0  0  0
    8.2258    4.7779   16.8872 N   0  0  0  0  0  0  0  0  0  0  0  0
    8.7902    6.6336   15.8274 N   0  0  0  0  0  0  0  0  0  0  0  0
    7.2780    5.1476   20.1818 C   0  0  0  0  0  0  0  0  0  0  0  0
    6.0699    4.7609   19.6088 C   0  0  0  0  0  0  0  0  0  0  0  0
    4.9296    5.5116   19.8315 C   0  0  0  0  0  0  0  0  0  0  0  0
    4.9872    6.6423   20.6298 C   0  0  0  0  0  0  0  0  0  0  0  0
    4.0973    7.2299   20.8022 H   0  0  0  0  0  0  0  0  0  0  0  0
    6.1856    7.0171   21.2162 C   0  0  0  0  0  0  0  0  0  0  0  0
    6.2279    7.8925   21.8483 H   0  0  0  0  0  0  0  0  0  0  0  0
    7.3305    6.2723   21.0003 C   0  0  0  0  0  0  0  0  0  0  0  0
    8.2621    6.5682   21.4626 H   0  0  0  0  0  0  0  0  0  0  0  0
   10.1626    5.1491   20.1481 C   0  0  0  0  0  0  0  0  0  0  0  0
   10.1870    6.4222   19.5826 C   0  0  0  0  0  0  0  0  0  0  0  0
    9.2864    6.8231   19.1340 H   0  0  0  0  0  0  0  0  0  0  0  0
   11.3540    7.1631   19.5923 C   0  0  0  0  0  0  0  0  0  0  0  0
   11.3667    8.1510   19.1551 H   0  0  0  0  0  0  0  0  0  0  0  0
   12.5074    6.6364   20.1509 C   0  0  0  0  0  0  0  0  0  0  0  0
   13.4193    7.2148   20.1517 H   0  0  0  0  0  0  0  0  0  0  0  0
   12.4942    5.3637   20.6980 C   0  0  0  0  0  0  0  0  0  0  0  0
   13.3960    4.9464   21.1212 H   0  0  0  0  0  0  0  0  0  0  0  0
   11.3306    4.6174   20.6895 C   0  0  0  0  0  0  0  0  0  0  0  0
   11.3186    3.6149   21.0979 H   0  0  0  0  0  0  0  0  0  0  0  0
   10.5843    0.0448   17.6272 C   0  0  0  0  0  0  0  0  0  0  0  0
    9.6961   -0.5434   17.8420 H   0  0  0  0  0  0  0  0  0  0  0  0
   11.4845   -0.5190   17.8510 H   0  0  0  0  0  0  0  0  0  0  0  0
   10.5606    0.3920   16.5963 H   0  0  0  0  0  0  0  0  0  0  0  0
   11.9751    2.3726   18.2763 C   0  0  0  0  0  0  0  0  0  0  0  0
   11.8534    3.6446   17.7019 C   0  0  0  0  0  0  0  0  0  0  0  0
    9.2510    5.5563   16.5051 C   0  0  0  0  0  0  0  0  0  0  0  0
    7.0929    5.3581   16.4267 C   0  0  0  0  0  0  0  0  0  0  0  0
    7.4266    6.5078   15.7686 C   0  0  0  0  0  0  0  0  0  0  0  0
    6.8155    7.2293   15.2673 H   0  0  0  0  0  0  0  0  0  0  0  0
    9.5975    7.6657   15.2433 C   0  0  0  0  0  0  0  0  0  0  0  0
    9.2641    8.6461   15.5879 H   0  0  0  0  0  0  0  0  0  0  0  0
    9.5337    7.6311   14.1538 H   0  0  0  0  0  0  0  0  0  0  0  0
   10.6281    7.4980   15.5488 H   0  0  0  0  0  0  0  0  0  0  0  0
   13.0171    4.3571   17.3915 C   0  0  0  0  0  0  0  0  0  0  0  0
   14.2552    3.8117   17.6548 C   0  0  0  0  0  0  0  0  0  0  0  0
   15.1468    4.3697   17.4114 H   0  0  0  0  0  0  0  0  0  0  0  0
   14.3631    2.5519   18.2276 C   0  0  0  0  0  0  0  0  0  0  0  0
   15.3346    2.1291   18.4324 H   0  0  0  0  0  0  0  0  0  0  0  0
   13.2208    1.8358   18.5432 C   0  0  0  0  0  0  0  0  0  0  0  0
   13.2926    0.8601   18.9992 H   0  0  0  0  0  0  0  0  0  0  0  0
    8.6584    3.0468   21.3906 C   0  0  0  0  0  0  0  0  0  0  0  0
    8.9812    3.5837   22.6342 C   0  0  0  0  0  0  0  0  0  0  0  0
    9.3143    4.6094   22.7114 H   0  0  0  0  0  0  0  0  0  0  0  0
    8.2167    1.7324   21.2933 C   0  0  0  0  0  0  0  0  0  0  0  0
    7.9368    1.3350   20.3259 H   0  0  0  0  0  0  0  0  0  0  0  0
    8.8827    2.7986   23.7669 C   0  0  0  0  0  0  0  0  0  0  0  0
    9.1379    3.2136   24.7313 H   0  0  0  0  0  0  0  0  0  0  0  0
    8.1185    0.9542   22.4336 C   0  0  0  0  0  0  0  0  0  0  0  0
    7.7757   -0.0668   22.3572 H   0  0  0  0  0  0  0  0  0  0  0  0
    8.4546    1.4835   23.6681 C   0  0  0  0  0  0  0  0  0  0  0  0
    8.3791    0.8751   24.5574 H   0  0  0  0  0  0  0  0  0  0  0  0
    6.1298    4.9149   16.5853 H   0  0  0  0  0  0  0  0  0  0  0  0
   12.9090    5.3320   16.9437 H   0  0  0  0  0  0  0  0  0  0  0  0
    6.0394    3.8645   19.0021 H   0  0  0  0  0  0  0  0  0  0  0  0
    3.9933    5.2121   19.3843 H   0  0  0  0  0  0  0  0  0  0  0  0
  1  2  1  0  0  0  0
  1  4  1  0  0  0  0
  1  5  1  0  0  0  0
  3  1  1  0  0  0  0
  4 30  1  6  0  0  0
  5 19  1  0  0  0  0
  5 10  1  0  0  0  0
  5 51  1  0  0  0  0
  6 35  1  0  0  0  0
  6  1  1  0  0  0  0
  7  6  1  0  0  0  0
  8  1  1  0  0  0  0
  9 36  1  0  0  0  0
 10 17  1  0  0  0  0
 11 12  1  0  0  0  0
 11 10  2  0  0  0  0
 12 13  2  0  0  0  0
 13 14  1  0  0  0  0
 13 15  1  0  0  0  0
 15 16  1  0  0  0  0
 17 15  2  0  0  0  0
 17 18  1  0  0  0  0
 19 28  1  0  0  0  0
 20 22  1  0  0  0  0
 20 19  2  0  0  0  0
 21 20  1  0  0  0  0
 22 24  2  0  0  0  0
 23 22  1  0  0  0  0
 24 25  1  0  0  0  0
 24 26  1  0  0  0  0
 26 27  1  0  0  0  0
 28 26  2  0  0  0  0
 28 29  1  0  0  0  0
 30 31  1  0  0  0  0
 30 32  1  0  0  0  0
 33 30  1  0  0  0  0
 34 49  1  0  0  0  0
 34  4  1  0  0  0  0
 35 34  2  0  0  0  0
 36  7  2  0  0  0  0
 36  8  1  0  0  0  0
 37 62  1  0  0  0  0
 37  8  1  0  0  0  0
 38  9  1  0  0  0  0
 38 37  2  0  0  0  0
 39 38  1  0  0  0  0
 40 43  1  0  0  0  0
 40 41  1  0  0  0  0
 40  9  1  0  0  0  0
 42 40  1  0  0  0  0
 44 45  2  0  0  0  0
 44 35  1  0  0  0  0
 45 47  1  0  0  0  0
 46 45  1  0  0  0  0
 47 48  1  0  0  0  0
 47 49  2  0  0  0  0
 49 50  1  0  0  0  0
 51 52  1  0  0  0  0
 52 53  1  0  0  0  0
 52 56  2  0  0  0  0
 54 51  2  0  0  0  0
 54 58  1  0  0  0  0
 55 54  1  0  0  0  0
 56 57  1  0  0  0  0
 58 60  2  0  0  0  0
 59 58  1  0  0  0  0
 60 56  1  0  0  0  0
 60 61  1  0  0  0  0
 63 44  1  0  0  0  0
 64 11  1  0  0  0  0
 65 12  1  0  0  0  0
M  END
$$$$
