CSD_code = XEKJOO | q = 0 | S = 0 | Stoichiometry = C29H27I2N4PRuS | MND = 6
 OpenBabel04212202123D

 65 71  0  0  0  0  0  0  0  0999 V2000
    9.2255    3.0417    2.5839 Ru  0  0  0  0  0  0  0  0  0  0  0  0
    9.6583    2.0884    0.0565 I   0  0  0  0  0  0  0  0  0  0  0  0
    6.8993    1.6759    2.7539 I   0  0  0  0  0  0  0  0  0  0  0  0
   10.5253    1.3260    3.5876 S   0  0  2  0  0  3  0  0  0  0  0  0
    8.9002    3.9888    4.6982 P   0  0  0  0  0  4  0  0  0  0  0  0
    8.5620    4.8188    1.7346 N   0  0  0  0  0  0  0  0  0  0  0  0
    9.3247    6.7197    0.8988 N   0  0  0  0  0  0  0  0  0  0  0  0
   10.8923    5.1429    1.8141 N   0  0  0  0  0  0  0  0  0  0  0  0
   10.8521    3.9528    2.3427 N   0  0  0  0  0  0  0  0  0  0  0  0
   12.0665    3.3416    2.5800 C   0  0  0  0  0  0  0  0  0  0  0  0
   12.0785    2.0414    3.1022 C   0  0  0  0  0  0  0  0  0  0  0  0
   13.2689    1.3642    3.2916 C   0  0  0  0  0  0  0  0  0  0  0  0
   13.2567    0.3634    3.6955 H   0  0  0  0  0  0  0  0  0  0  0  0
   14.4645    1.9747    2.9552 C   0  0  0  0  0  0  0  0  0  0  0  0
   15.3930    1.4429    3.0939 H   0  0  0  0  0  0  0  0  0  0  0  0
   14.4675    3.2663    2.4465 C   0  0  0  0  0  0  0  0  0  0  0  0
   15.4021    3.7403    2.1881 H   0  0  0  0  0  0  0  0  0  0  0  0
   13.2843    3.9480    2.2578 C   0  0  0  0  0  0  0  0  0  0  0  0
   13.2620    4.9459    1.8493 H   0  0  0  0  0  0  0  0  0  0  0  0
    9.6594    5.5576    1.5046 C   0  0  0  0  0  0  0  0  0  0  0  0
    7.5091    5.5155    1.2404 C   0  0  0  0  0  0  0  0  0  0  0  0
    6.5095    5.1271    1.2623 H   0  0  0  0  0  0  0  0  0  0  0  0
    7.9666    6.6939    0.7240 C   0  0  0  0  0  0  0  0  0  0  0  0
    7.4448    7.4967    0.2464 H   0  0  0  0  0  0  0  0  0  0  0  0
   10.2384    7.7455    0.4867 C   0  0  0  0  0  0  0  0  0  0  0  0
   11.2327    7.4703    0.8328 H   0  0  0  0  0  0  0  0  0  0  0  0
    9.9493    8.7048    0.9200 H   0  0  0  0  0  0  0  0  0  0  0  0
   10.2455    7.8343   -0.6017 H   0  0  0  0  0  0  0  0  0  0  0  0
   10.5454   -0.2627    2.6988 C   0  0  0  0  0  0  0  0  0  0  0  0
    9.5054   -0.5430    2.5445 H   0  0  0  0  0  0  0  0  0  0  0  0
   11.0428   -0.9999    3.3228 H   0  0  0  0  0  0  0  0  0  0  0  0
   11.0465   -0.1481    1.7429 H   0  0  0  0  0  0  0  0  0  0  0  0
    7.4772    5.0639    5.0906 C   0  0  0  0  0  0  0  0  0  0  0  0
    7.5660    5.9472    6.1661 C   0  0  0  0  0  0  0  0  0  0  0  0
    8.4734    6.0035    6.7502 H   0  0  0  0  0  0  0  0  0  0  0  0
    6.4975    6.7625    6.4823 C   0  0  0  0  0  0  0  0  0  0  0  0
    6.5747    7.4448    7.3165 H   0  0  0  0  0  0  0  0  0  0  0  0
    5.3307    6.7064    5.7349 C   0  0  0  0  0  0  0  0  0  0  0  0
    4.4977    7.3455    5.9874 H   0  0  0  0  0  0  0  0  0  0  0  0
    5.2367    5.8285    4.6702 C   0  0  0  0  0  0  0  0  0  0  0  0
    4.3293    5.7737    4.0877 H   0  0  0  0  0  0  0  0  0  0  0  0
    6.3046    5.0080    4.3490 C   0  0  0  0  0  0  0  0  0  0  0  0
    6.2161    4.3151    3.5278 H   0  0  0  0  0  0  0  0  0  0  0  0
    9.0118    2.9883    6.2233 C   0  0  0  0  0  0  0  0  0  0  0  0
    8.4800    1.7028    6.2342 C   0  0  0  0  0  0  0  0  0  0  0  0
    8.0385    1.2890    5.3398 H   0  0  0  0  0  0  0  0  0  0  0  0
    8.5067    0.9441    7.3905 C   0  0  0  0  0  0  0  0  0  0  0  0
    8.0894   -0.0514    7.3833 H   0  0  0  0  0  0  0  0  0  0  0  0
    9.0617    1.4616    8.5478 C   0  0  0  0  0  0  0  0  0  0  0  0
    9.0824    0.8717    9.4520 H   0  0  0  0  0  0  0  0  0  0  0  0
    9.5928    2.7414    8.5438 C   0  0  0  0  0  0  0  0  0  0  0  0
   10.0287    3.1503    9.4440 H   0  0  0  0  0  0  0  0  0  0  0  0
    9.5695    3.5041    7.3917 C   0  0  0  0  0  0  0  0  0  0  0  0
   10.0017    4.4949    7.4038 H   0  0  0  0  0  0  0  0  0  0  0  0
   10.2958    5.1453    4.8742 C   0  0  0  0  0  0  0  0  0  0  0  0
   10.1811    6.4585    4.4265 C   0  0  0  0  0  0  0  0  0  0  0  0
    9.2145    6.8361    4.1151 H   0  0  0  0  0  0  0  0  0  0  0  0
   11.2953    7.2771    4.3839 C   0  0  0  0  0  0  0  0  0  0  0  0
   11.1990    8.2955    4.0363 H   0  0  0  0  0  0  0  0  0  0  0  0
   12.5314    6.7916    4.7762 C   0  0  0  0  0  0  0  0  0  0  0  0
   13.4006    7.4309    4.7365 H   0  0  0  0  0  0  0  0  0  0  0  0
   12.6549    5.4822    5.2130 C   0  0  0  0  0  0  0  0  0  0  0  0
   13.6190    5.0967    5.5112 H   0  0  0  0  0  0  0  0  0  0  0  0
   11.5461    4.6589    5.2530 C   0  0  0  0  0  0  0  0  0  0  0  0
   11.6434    3.6294    5.5783 H   0  0  0  0  0  0  0  0  0  0  0  0
  1  3  1  0  0  0  0
  1  4  1  0  0  0  0
  1  5  1  0  0  0  0
  2  1  1  0  0  0  0
  4 29  1  6  0  0  0
  5 55  1  0  0  0  0
  5 33  1  0  0  0  0
  5 44  1  0  0  0  0
  6  1  1  0  0  0  0
  7 20  1  0  0  0  0
  8  9  1  0  0  0  0
  9 10  1  0  0  0  0
  9  1  1  0  0  0  0
 10 11  1  0  0  0  0
 11 12  2  0  0  0  0
 11  4  1  0  0  0  0
 12 13  1  0  0  0  0
 14 15  1  0  0  0  0
 14 12  1  0  0  0  0
 16 14  2  0  0  0  0
 17 16  1  0  0  0  0
 18 16  1  0  0  0  0
 18 10  2  0  0  0  0
 19 18  1  0  0  0  0
 20  6  1  0  0  0  0
 20  8  2  0  0  0  0
 21 22  1  0  0  0  0
 21  6  1  0  0  0  0
 23  7  1  0  0  0  0
 23 21  2  0  0  0  0
 24 23  1  0  0  0  0
 25 26  1  0  0  0  0
 25  7  1  0  0  0  0
 25 27  1  0  0  0  0
 28 25  1  0  0  0  0
 29 31  1  0  0  0  0
 30 29  1  0  0  0  0
 32 29  1  0  0  0  0
 33 34  1  0  0  0  0
 34 36  2  0  0  0  0
 34 35  1  0  0  0  0
 36 37  1  0  0  0  0
 38 39  1  0  0  0  0
 38 36  1  0  0  0  0
 40 38  2  0  0  0  0
 41 40  1  0  0  0  0
 42 40  1  0  0  0  0
 42 33  2  0  0  0  0
 43 42  1  0  0  0  0
 44 45  2  0  0  0  0
 44 53  1  0  0  0  0
 45 47  1  0  0  0  0
 46 45  1  0  0  0  0
 47 49  2  0  0  0  0
 48 47  1  0  0  0  0
 49 50  1  0  0  0  0
 51 49  1  0  0  0  0
 51 52  1  0  0  0  0
 53 54  1  0  0  0  0
 53 51  2  0  0  0  0
 55 64  1  0  0  0  0
 56 55  2  0  0  0  0
 57 56  1  0  0  0  0
 58 56  1  0  0  0  0
 58 60  2  0  0  0  0
 59 58  1  0  0  0  0
 60 62  1  0  0  0  0
 61 60  1  0  0  0  0
 62 64  2  0  0  0  0
 62 63  1  0  0  0  0
 64 65  1  0  0  0  0
M  END
$$$$
