CSD_code = XEKYAN | q = 0 | S = 0 | Stoichiometry = C30H32Cl2N2Zr | MND = 12
 OpenBabel04212202123D

 67 72  0  0  1  0  0  0  0  0999 V2000
   10.6428    4.6385    3.1987 Zr  0  0  0  0  0  0  0  0  0  0  0  0
   12.8286    4.6400    4.0804 Cl  0  0  0  0  0  0  0  0  0  0  0  0
    9.8039    4.6383    5.3957 Cl  0  0  0  0  0  0  0  0  0  0  0  0
   11.3682    2.1917    2.9826 C   0  0  0  0  0  0  0  0  0  0  0  0
   12.3518    1.5499    3.6901 N   0  0  0  0  0  0  0  0  0  0  0  0
   13.7250    1.5273    3.2185 C   0  0  0  0  0  0  0  0  0  0  0  0
   14.4875    0.9337    4.3977 C   0  0  0  0  0  0  0  0  0  0  0  0
   13.7588    1.5508    5.5889 C   0  0  0  0  0  0  0  0  0  0  0  0
   12.2950    1.5209    5.1463 C   0  0  0  0  0  0  0  0  0  0  0  0
   10.0142    2.2908    3.3860 C   0  0  0  0  0  0  0  0  0  0  0  0
    9.2588    2.8695    2.3085 C   0  0  1  0  0  0  0  0  0  0  0  0
    7.8022    2.9695    2.2737 C   0  0  0  0  0  0  0  0  0  0  0  0
    7.0707    3.0361    3.4645 C   0  0  0  0  0  0  0  0  0  0  0  0
    5.6904    3.0352    3.4420 C   0  0  0  0  0  0  0  0  0  0  0  0
    5.0085    2.9823    2.2375 C   0  0  0  0  0  0  0  0  0  0  0  0
    5.7203    2.9402    1.0510 C   0  0  0  0  0  0  0  0  0  0  0  0
    7.1011    2.9300    1.0660 C   0  0  0  0  0  0  0  0  0  0  0  0
   10.1783    3.1527    1.2649 C   0  0  0  0  0  0  0  0  0  0  0  0
   11.4801    2.7956    1.6941 C   0  0  0  0  0  0  0  0  0  0  0  0
   14.0917    2.5399    2.9979 H   0  0  0  0  0  0  0  0  0  0  0  0
   13.7965    0.9160    2.3142 H   0  0  0  0  0  0  0  0  0  0  0  0
   14.3770   -0.1515    4.4081 H   0  0  0  0  0  0  0  0  0  0  0  0
   15.5461    1.1824    4.3744 H   0  0  0  0  0  0  0  0  0  0  0  0
   14.0784    2.5849    5.7176 H   0  0  0  0  0  0  0  0  0  0  0  0
   13.9237    1.0086    6.5174 H   0  0  0  0  0  0  0  0  0  0  0  0
   11.8002    0.5980    5.4738 H   0  0  0  0  0  0  0  0  0  0  0  0
   11.7321    2.3807    5.5384 H   0  0  0  0  0  0  0  0  0  0  0  0
    9.5907    1.8032    4.2545 H   0  0  0  0  0  0  0  0  0  0  0  0
    7.5919    3.1030    4.4110 H   0  0  0  0  0  0  0  0  0  0  0  0
    5.1409    3.0798    4.3706 H   0  0  0  0  0  0  0  0  0  0  0  0
    3.9291    2.9776    2.2236 H   0  0  0  0  0  0  0  0  0  0  0  0
    5.1955    2.9040    0.1074 H   0  0  0  0  0  0  0  0  0  0  0  0
    7.6442    2.8675    0.1343 H   0  0  0  0  0  0  0  0  0  0  0  0
    9.9234    3.4609    0.2601 H   0  0  0  0  0  0  0  0  0  0  0  0
   12.3659    2.7931    1.0712 H   0  0  0  0  0  0  0  0  0  0  0  0
   11.3683    7.0851    2.9826 C   0  0  0  0  0  0  0  0  0  0  0  0
   12.3519    7.7270    3.6902 N   0  0  0  0  0  0  0  0  0  0  0  0
   13.7251    7.7496    3.2186 C   0  0  0  0  0  0  0  0  0  0  0  0
   14.4875    8.3433    4.3978 C   0  0  0  0  0  0  0  0  0  0  0  0
   13.7588    7.7262    5.5891 C   0  0  0  0  0  0  0  0  0  0  0  0
   12.2950    7.7561    5.1463 C   0  0  0  0  0  0  0  0  0  0  0  0
   11.8001    8.6789    5.4738 H   0  0  0  0  0  0  0  0  0  0  0  0
   11.7321    6.8962    5.5384 H   0  0  0  0  0  0  0  0  0  0  0  0
   14.0785    6.6921    5.7177 H   0  0  0  0  0  0  0  0  0  0  0  0
   13.9236    8.2684    6.5176 H   0  0  0  0  0  0  0  0  0  0  0  0
   14.3769    9.4284    4.4081 H   0  0  0  0  0  0  0  0  0  0  0  0
   15.5461    8.0946    4.3745 H   0  0  0  0  0  0  0  0  0  0  0  0
   14.0917    6.7369    2.9981 H   0  0  0  0  0  0  0  0  0  0  0  0
   13.7966    8.3608    2.3143 H   0  0  0  0  0  0  0  0  0  0  0  0
   10.0143    6.9862    3.3860 C   0  0  0  0  0  0  0  0  0  0  0  0
    9.2589    6.4075    2.3084 C   0  0  2  0  0  0  0  0  0  0  0  0
    9.5908    7.4738    4.2543 H   0  0  0  0  0  0  0  0  0  0  0  0
    7.8023    6.3076    2.2736 C   0  0  0  0  0  0  0  0  0  0  0  0
    7.0707    6.2410    3.4643 C   0  0  0  0  0  0  0  0  0  0  0  0
    5.6904    6.2418    3.4419 C   0  0  0  0  0  0  0  0  0  0  0  0
    5.0085    6.2946    2.2373 C   0  0  0  0  0  0  0  0  0  0  0  0
    5.7204    6.3367    1.0508 C   0  0  0  0  0  0  0  0  0  0  0  0
    7.1011    6.3471    1.0658 C   0  0  0  0  0  0  0  0  0  0  0  0
    7.6443    6.4096    0.1342 H   0  0  0  0  0  0  0  0  0  0  0  0
    5.1956    6.3730    0.1072 H   0  0  0  0  0  0  0  0  0  0  0  0
    3.9291    6.2993    2.2234 H   0  0  0  0  0  0  0  0  0  0  0  0
    5.1409    6.1971    4.3704 H   0  0  0  0  0  0  0  0  0  0  0  0
    7.5919    6.1740    4.4109 H   0  0  0  0  0  0  0  0  0  0  0  0
   10.1784    6.1242    1.2648 C   0  0  0  0  0  0  0  0  0  0  0  0
   11.4802    6.4813    1.6942 C   0  0  0  0  0  0  0  0  0  0  0  0
    9.9235    5.8161    0.2600 H   0  0  0  0  0  0  0  0  0  0  0  0
   12.3660    6.4838    1.0712 H   0  0  0  0  0  0  0  0  0  0  0  0
  1  2  1  0  0  0  0
  1  3  1  0  0  0  0
  4 10  2  0  0  0  0
  4  5  1  0  0  0  0
  5  9  1  0  0  0  0
  6  5  1  0  0  0  0
  6  7  1  0  0  0  0
  7 22  1  0  0  0  0
  7  8  1  0  0  0  0
  8 24  1  0  0  0  0
  8 25  1  0  0  0  0
  9 26  1  0  0  0  0
  9 27  1  0  0  0  0
  9  8  1  0  0  0  0
 10 28  1  0  0  0  0
 11  1  1  1  0  0  0
 11 10  1  0  0  0  0
 12 11  1  0  0  0  0
 12 13  1  0  0  0  0
 13 29  1  0  0  0  0
 14 13  2  0  0  0  0
 14 30  1  0  0  0  0
 15 14  1  0  0  0  0
 16 17  1  0  0  0  0
 16 15  2  0  0  0  0
 17 12  2  0  0  0  0
 18 19  2  0  0  0  0
 18 11  1  0  0  0  0
 19  4  1  0  0  0  0
 20  6  1  0  0  0  0
 21  6  1  0  0  0  0
 23  7  1  0  0  0  0
 31 15  1  0  0  0  0
 32 16  1  0  0  0  0
 33 17  1  0  0  0  0
 34 18  1  0  0  0  0
 35 19  1  0  0  0  0
 36 50  2  0  0  0  0
 36 37  1  0  0  0  0
 37 41  1  0  0  0  0
 38 37  1  0  0  0  0
 38 39  1  0  0  0  0
 39 46  1  0  0  0  0
 39 40  1  0  0  0  0
 40 44  1  0  0  0  0
 40 45  1  0  0  0  0
 41 42  1  0  0  0  0
 41 43  1  0  0  0  0
 41 40  1  0  0  0  0
 47 39  1  0  0  0  0
 48 38  1  0  0  0  0
 49 38  1  0  0  0  0
 50 52  1  0  0  0  0
 51  1  1  1  0  0  0
 51 50  1  0  0  0  0
 53 51  1  0  0  0  0
 53 54  1  0  0  0  0
 54 63  1  0  0  0  0
 55 54  2  0  0  0  0
 55 62  1  0  0  0  0
 56 55  1  0  0  0  0
 57 58  1  0  0  0  0
 57 56  2  0  0  0  0
 58 53  2  0  0  0  0
 59 58  1  0  0  0  0
 60 57  1  0  0  0  0
 61 56  1  0  0  0  0
 64 65  2  0  0  0  0
 64 51  1  0  0  0  0
 65 36  1  0  0  0  0
 66 64  1  0  0  0  0
 67 65  1  0  0  0  0
M  END
$$$$
