CSD_code = XELLIK | q = 0 | S = 0 | Stoichiometry = C7H8Cl2N4SZn | MND = 5
 OpenBabel04212202123D

 23 25  0  0  1  0  0  0  0  0999 V2000
    7.5721    1.9861    0.4673 Zn  0  0  0  0  0  0  0  0  0  0  0  0
    9.0154    1.7299    2.2101 Cl  0  0  0  0  0  0  0  0  0  0  0  0
    8.2305    2.7295   -1.4977 Cl  0  0  0  0  0  0  0  0  0  0  0  0
    5.9850    3.8547    1.6059 S   0  0  0  0  0  0  0  0  0  0  0  0
    5.9336    1.6741    3.1150 N   0  0  0  0  0  0  0  0  0  0  0  0
    5.9594    1.2275    4.0349 H   0  0  0  0  0  0  0  0  0  0  0  0
    6.2114    0.9652    2.0346 N   0  0  0  0  0  0  0  0  0  0  0  0
    6.7805   -0.9280    0.8078 C   0  0  0  0  0  0  0  0  0  0  0  0
    5.9038    3.0371    3.0442 C   0  0  2  0  0  3  0  0  0  0  0  0
    7.2020   -0.1034   -0.1574 N   0  0  0  0  0  0  0  0  0  0  0  0
    7.2470   -2.8381   -0.5534 C   0  0  0  0  0  0  0  0  0  0  0  0
    7.2715   -3.9066   -0.7059 H   0  0  0  0  0  0  0  0  0  0  0  0
    6.7984   -2.3133    0.6462 C   0  0  0  0  0  0  0  0  0  0  0  0
    6.4640   -2.9545    1.4471 H   0  0  0  0  0  0  0  0  0  0  0  0
    6.3489   -0.2997    2.0385 C   0  0  0  0  0  0  0  0  0  0  0  0
    6.2222   -0.9141    2.9305 H   0  0  0  0  0  0  0  0  0  0  0  0
    5.7037    3.6907    4.2025 N   0  0  0  0  0  0  0  0  0  0  0  0
    5.8513    3.2416    5.0921 H   0  0  0  0  0  0  0  0  0  0  0  0
    5.7616    4.6952    4.1682 H   0  0  0  0  0  0  0  0  0  0  0  0
    7.6651   -1.9697   -1.5504 C   0  0  0  0  0  0  0  0  0  0  0  0
    8.0226   -2.3397   -2.4976 H   0  0  0  0  0  0  0  0  0  0  0  0
    7.6289   -0.6041   -1.3018 C   0  0  0  0  0  0  0  0  0  0  0  0
    7.9570    0.1206   -2.0345 H   0  0  0  0  0  0  0  0  0  0  0  0
  1  4  1  0  0  0  0
  1  7  1  0  0  0  0
  1  2  1  0  0  0  0
  3  1  1  0  0  0  0
  4  9  1  0  0  0  0
  5  6  1  0  0  0  0
  7 15  1  0  0  0  0
  7  5  1  0  0  0  0
  8 15  2  0  0  0  0
  9  5  1  0  0  0  0
  9 17  1  6  0  0  0
 10  1  1  0  0  0  0
 10  8  1  0  0  0  0
 11 13  2  0  0  0  0
 12 11  1  0  0  0  0
 13  8  1  0  0  0  0
 13 14  1  0  0  0  0
 15 16  1  0  0  0  0
 17 18  1  0  0  0  0
 19 17  1  0  0  0  0
 20 22  2  0  0  0  0
 20 11  1  0  0  0  0
 21 20  1  0  0  0  0
 22 10  1  0  0  0  0
 23 22  1  0  0  0  0
M  END
$$$$
