CSD_code = XELQAH | q = 0 | S = 0 | Stoichiometry = C21H17ClN3O2PPd | MND = 4
 OpenBabel04212202123D

 46 50  0  0  0  0  0  0  0  0999 V2000
    5.2629    1.9758    7.0439 Pd  0  0  1  0  0  0  0  0  0  0  0  0
    6.1376    0.4783    5.7026 P   0  0  0  0  0  4  0  0  0  0  0  0
    5.1597    3.4717    5.3978 Cl  0  0  0  0  0  0  0  0  0  0  0  0
    5.2741    0.7365    8.5725 N   0  0  0  0  0  0  0  0  0  0  0  0
    5.0370    1.3645    9.7435 N   0  0  0  0  0  0  0  0  0  0  0  0
    4.0669    4.6478   10.6784 N   0  0  0  0  0  0  0  0  0  0  0  0
    4.6849    3.2986    8.5584 O   0  0  0  0  0  0  0  0  0  0  0  0
    4.4500    2.8689   12.0313 O   0  0  0  0  0  0  0  0  0  0  0  0
    5.8511   -1.2304    6.2424 C   0  0  0  0  0  0  0  0  0  0  0  0
    5.9494   -2.2644    5.3178 C   0  0  0  0  0  0  0  0  0  0  0  0
    5.8130   -3.5848    5.7051 C   0  0  0  0  0  0  0  0  0  0  0  0
    5.5864   -3.8825    7.0409 C   0  0  0  0  0  0  0  0  0  0  0  0
    5.4773   -2.8665    7.9666 C   0  0  0  0  0  0  0  0  0  0  0  0
    5.5892   -1.5166    7.5983 C   0  0  0  0  0  0  0  0  0  0  0  0
    5.3936   -0.5517    8.6527 C   0  0  0  0  0  3  0  0  0  0  0  0
    4.7395    2.6346    9.6389 C   0  0  0  0  0  0  0  0  0  0  0  0
    4.4083    3.3703   10.9327 C   0  0  0  0  0  0  0  0  0  0  0  0
    7.9435    0.6542    5.8514 C   0  0  0  0  0  0  0  0  0  0  0  0
    8.8362   -0.3093    5.3907 C   0  0  0  0  0  0  0  0  0  0  0  0
   10.1972   -0.1173    5.5475 C   0  0  0  0  0  0  0  0  0  0  0  0
   10.6720    1.0275    6.1676 C   0  0  0  0  0  0  0  0  0  0  0  0
    9.7864    1.9841    6.6385 C   0  0  0  0  0  0  0  0  0  0  0  0
    8.4237    1.8002    6.4852 C   0  0  0  0  0  0  0  0  0  0  0  0
    5.7181    0.4917    3.9436 C   0  0  0  0  0  0  0  0  0  0  0  0
    6.6416    0.5659    2.9097 C   0  0  0  0  0  0  0  0  0  0  0  0
    6.1926    0.6167    1.6006 C   0  0  0  0  0  0  0  0  0  0  0  0
    4.8355    0.6011    1.3261 C   0  0  0  0  0  0  0  0  0  0  0  0
    3.9124    0.5440    2.3603 C   0  0  0  0  0  0  0  0  0  0  0  0
    4.3519    0.4954    3.6679 C   0  0  0  0  0  0  0  0  0  0  0  0
    5.8850   -4.3747    4.9731 H   0  0  0  0  0  0  0  0  0  0  0  0
    5.2826   -0.9652    9.6545 H   0  0  0  0  0  0  0  0  0  0  0  0
    5.4873   -4.9099    7.3568 H   0  0  0  0  0  0  0  0  0  0  0  0
    5.2885   -3.1078    9.0023 H   0  0  0  0  0  0  0  0  0  0  0  0
   10.8896   -0.8640    5.1877 H   0  0  0  0  0  0  0  0  0  0  0  0
    6.1220   -2.0219    4.2778 H   0  0  0  0  0  0  0  0  0  0  0  0
    8.4632   -1.2084    4.9201 H   0  0  0  0  0  0  0  0  0  0  0  0
    2.8549    0.5507    2.1430 H   0  0  0  0  0  0  0  0  0  0  0  0
    4.0727    4.9689    9.7222 H   0  0  0  0  0  0  0  0  0  0  0  0
    3.6504    0.4812    4.4978 H   0  0  0  0  0  0  0  0  0  0  0  0
    7.7152    2.5576    6.8478 H   0  0  0  0  0  0  0  0  0  0  0  0
   10.1595    2.8723    7.1254 H   0  0  0  0  0  0  0  0  0  0  0  0
    7.6997    0.5953    3.1275 H   0  0  0  0  0  0  0  0  0  0  0  0
    3.8228    5.2713   11.4281 H   0  0  0  0  0  0  0  0  0  0  0  0
   11.7351    1.1722    6.2880 H   0  0  0  0  0  0  0  0  0  0  0  0
    4.4937    0.6482    0.3030 H   0  0  0  0  0  0  0  0  0  0  0  0
    6.9063    0.6781    0.7924 H   0  0  0  0  0  0  0  0  0  0  0  0
  1  3  1  6  0  0  0
  1  7  1  0  0  0  0
  1  4  1  0  0  0  0
  2 18  1  0  0  0  0
  2  9  1  0  0  0  0
  2  1  1  0  0  0  0
  4 15  1  0  0  0  0
  4  5  1  0  0  0  0
  6 17  1  0  0  0  0
  6 43  1  0  0  0  0
  7 16  1  0  0  0  0
  9 14  1  0  0  0  0
 10 11  1  0  0  0  0
 10  9  2  0  0  0  0
 11 12  2  0  0  0  0
 12 32  1  0  0  0  0
 12 13  1  0  0  0  0
 13 33  1  0  0  0  0
 14 13  2  0  0  0  0
 14 15  1  0  0  0  0
 15 31  1  0  0  0  0
 16  5  2  0  0  0  0
 16 17  1  0  0  0  0
 17  8  2  0  0  0  0
 18 23  1  0  0  0  0
 19 20  1  0  0  0  0
 19 18  2  0  0  0  0
 20 21  2  0  0  0  0
 21 44  1  0  0  0  0
 21 22  1  0  0  0  0
 22 41  1  0  0  0  0
 23 22  2  0  0  0  0
 23 40  1  0  0  0  0
 24  2  1  0  0  0  0
 25 42  1  0  0  0  0
 25 24  2  0  0  0  0
 26 25  1  0  0  0  0
 27 26  2  0  0  0  0
 27 28  1  0  0  0  0
 28 29  2  0  0  0  0
 29 24  1  0  0  0  0
 29 39  1  0  0  0  0
 30 11  1  0  0  0  0
 34 20  1  0  0  0  0
 35 10  1  0  0  0  0
 36 19  1  0  0  0  0
 37 28  1  0  0  0  0
 38  6  1  0  0  0  0
 45 27  1  0  0  0  0
 46 26  1  0  0  0  0
M  END
$$$$
