CSD_code = XEMCOI | q = 0 | S = 0 | Stoichiometry = C6H12Cl2N4Ru | MND = 6
 OpenBabel04212202123D

 25 26  0  0  0  0  0  0  0  0999 V2000
    2.9469    2.1986    6.5210 Ru  0  0  0  0  0  0  0  0  0  0  0  0
    4.8817    2.1984    7.8078 Cl  0  0  0  0  0  0  0  0  0  0  0  0
    1.5289    2.1981    4.6789 Cl  0  0  0  0  0  0  0  0  0  0  0  0
    1.9316    0.9445    7.6075 N   0  0  0  0  0  0  0  0  0  0  0  0
    4.0016    0.6322    5.3898 N   0  0  0  0  0  4  0  0  0  0  0  0
    1.1038    1.4775    8.4935 C   0  0  0  0  0  0  0  0  0  0  0  0
    0.2622    0.7870    9.3934 C   0  0  0  0  0  0  0  0  0  0  0  0
   -0.5371    1.4940   10.2483 C   0  0  0  0  0  0  0  0  0  0  0  0
    1.9369   -0.0779    7.6006 H   0  0  0  0  0  0  0  0  0  0  0  0
    3.7040   -0.2792    5.7311 H   0  0  0  0  0  0  0  0  0  0  0  0
    3.7698    0.6850    4.3970 H   0  0  0  0  0  0  0  0  0  0  0  0
    5.0111    0.7005    5.5237 H   0  0  0  0  0  0  0  0  0  0  0  0
    0.2633   -0.2939    9.3922 H   0  0  0  0  0  0  0  0  0  0  0  0
   -1.1825    0.9717   10.9385 H   0  0  0  0  0  0  0  0  0  0  0  0
    1.9315    3.4526    7.6075 N   0  0  0  0  0  0  0  0  0  0  0  0
    4.0018    3.7649    5.3898 N   0  0  0  0  0  4  0  0  0  0  0  0
    1.1037    2.9196    8.4935 C   0  0  0  0  0  0  0  0  0  0  0  0
    0.2621    3.6100    9.3934 C   0  0  0  0  0  0  0  0  0  0  0  0
   -0.5372    2.9030   10.2483 C   0  0  0  0  0  0  0  0  0  0  0  0
    1.9367    4.4750    7.6005 H   0  0  0  0  0  0  0  0  0  0  0  0
    3.7043    4.6762    5.7314 H   0  0  0  0  0  0  0  0  0  0  0  0
    3.7696    3.7122    4.3971 H   0  0  0  0  0  0  0  0  0  0  0  0
    5.0113    3.6964    5.5233 H   0  0  0  0  0  0  0  0  0  0  0  0
    0.2632    4.6910    9.3922 H   0  0  0  0  0  0  0  0  0  0  0  0
   -1.1825    3.4253   10.9385 H   0  0  0  0  0  0  0  0  0  0  0  0
  1  4  1  0  0  0  0
  1 15  1  0  0  0  0
  1  2  1  0  0  0  0
  3  1  1  0  0  0  0
  4  6  1  0  0  0  0
  5 12  1  0  0  0  0
  5 10  1  0  0  0  0
  5  1  1  0  0  0  0
  6 17  2  0  0  0  0
  6  7  1  0  0  0  0
  7  8  2  0  0  0  0
  8 14  1  0  0  0  0
  9  4  1  0  0  0  0
 11  5  1  0  0  0  0
 13  7  1  0  0  0  0
 15 17  1  0  0  0  0
 16 23  1  0  0  0  0
 16 21  1  0  0  0  0
 16  1  1  0  0  0  0
 17 18  1  0  0  0  0
 18 19  2  0  0  0  0
 19  8  1  0  0  0  0
 19 25  1  0  0  0  0
 20 15  1  0  0  0  0
 22 16  1  0  0  0  0
 24 18  1  0  0  0  0
M  END
$$$$
