CSD_code = XEMSAK | q = 0 | S = 0 | Stoichiometry = C20H39Cl2CrNOS2 | MND = 4
 OpenBabel04212202123D

 66 69  0  0  1  0  0  0  0  0999 V2000
    3.0521   11.6708    0.8066 Cr  0  0  0  0  0  0  0  0  0  0  0  0
    5.3527   11.6512    0.8408 Cl  0  0  0  0  0  0  0  0  0  0  0  0
    0.7708   11.5594    0.6739 Cl  0  0  0  0  0  0  0  0  0  0  0  0
    3.1852    9.9915   -0.4417 N   0  0  2  0  0  4  0  0  0  0  0  0
    4.1974    9.8553   -0.5331 H   0  0  0  0  0  0  0  0  0  0  0  0
    2.9695   13.3984    2.0671 O   0  0  0  0  0  0  0  0  0  0  0  0
    3.0123   12.9191   -1.2346 S   0  0  1  0  0  3  0  0  0  0  0  0
    3.1249   10.0753    2.6172 S   0  0  2  0  0  3  0  0  0  0  0  0
    4.6060   13.8092   -1.5097 C   0  0  0  0  0  0  0  0  0  0  0  0
    5.3951   13.0716   -1.3481 H   0  0  0  0  0  0  0  0  0  0  0  0
    4.6638   14.3935   -2.9119 C   0  0  0  0  0  0  0  0  0  0  0  0
    3.8197   15.0735   -3.0494 H   0  0  0  0  0  0  0  0  0  0  0  0
    4.5846   13.6034   -3.6611 H   0  0  0  0  0  0  0  0  0  0  0  0
    5.9760   15.1530   -3.1023 C   0  0  0  0  0  0  0  0  0  0  0  0
    6.8115   14.4558   -3.0065 H   0  0  0  0  0  0  0  0  0  0  0  0
    6.0091   15.5824   -4.1058 H   0  0  0  0  0  0  0  0  0  0  0  0
    6.1162   16.2535   -2.0554 C   0  0  0  0  0  0  0  0  0  0  0  0
    5.3129   16.9826   -2.1867 H   0  0  0  0  0  0  0  0  0  0  0  0
    7.0666   16.7740   -2.1893 H   0  0  0  0  0  0  0  0  0  0  0  0
    6.0396   15.6613   -0.6517 C   0  0  0  0  0  0  0  0  0  0  0  0
    6.1186   16.4549    0.0942 H   0  0  0  0  0  0  0  0  0  0  0  0
    6.8715   14.9712   -0.4985 H   0  0  0  0  0  0  0  0  0  0  0  0
    4.7276   14.9048   -0.4625 C   0  0  0  0  0  0  0  0  0  0  0  0
    4.7007   14.4473    0.5278 H   0  0  0  0  0  0  0  0  0  0  0  0
    3.8846   15.5950   -0.5572 H   0  0  0  0  0  0  0  0  0  0  0  0
    3.2919   11.4830   -2.3581 C   0  0  0  0  0  0  0  0  0  0  0  0
    2.8663   11.7232   -3.3313 H   0  0  0  0  0  0  0  0  0  0  0  0
    4.3708   11.3443   -2.4385 H   0  0  0  0  0  0  0  0  0  0  0  0
    2.6308   10.2518   -1.7654 C   0  0  0  0  0  0  0  0  0  0  0  0
    1.5571   10.4326   -1.6470 H   0  0  0  0  0  0  0  0  0  0  0  0
    2.7748    9.3915   -2.4388 H   0  0  0  0  0  0  0  0  0  0  0  0
    2.6159    8.8119    0.1988 C   0  0  0  0  0  0  0  0  0  0  0  0
    2.7436    7.9126   -0.4259 H   0  0  0  0  0  0  0  0  0  0  0  0
    1.5444    8.9968    0.3331 H   0  0  0  0  0  0  0  0  0  0  0  0
    3.2845    8.5957    1.5450 C   0  0  0  0  0  0  0  0  0  0  0  0
    4.3616    8.4644    1.4264 H   0  0  0  0  0  0  0  0  0  0  0  0
    2.8698    7.7374    2.0680 H   0  0  0  0  0  0  0  0  0  0  0  0
    1.4610    9.7763    3.3674 C   0  0  0  0  0  0  0  0  0  0  0  0
    0.7859    9.5439    2.5423 H   0  0  0  0  0  0  0  0  0  0  0  0
    1.5154    8.6465    4.3836 C   0  0  0  0  0  0  0  0  0  0  0  0
    1.8378    7.7132    3.9175 H   0  0  0  0  0  0  0  0  0  0  0  0
    2.2421    8.9007    5.1588 H   0  0  0  0  0  0  0  0  0  0  0  0
    0.1363    8.4485    5.0115 C   0  0  0  0  0  0  0  0  0  0  0  0
    0.1802    7.6401    5.7443 H   0  0  0  0  0  0  0  0  0  0  0  0
   -0.5744    8.1598    4.2337 H   0  0  0  0  0  0  0  0  0  0  0  0
   -0.3404    9.7351    5.6774 C   0  0  0  0  0  0  0  0  0  0  0  0
   -1.3362    9.5874    6.0997 H   0  0  0  0  0  0  0  0  0  0  0  0
    0.3365    9.9910    6.4962 H   0  0  0  0  0  0  0  0  0  0  0  0
   -0.3665   10.8758    4.6651 C   0  0  0  0  0  0  0  0  0  0  0  0
   -0.6798   11.8014    5.1523 H   0  0  0  0  0  0  0  0  0  0  0  0
   -1.0860   10.6520    3.8755 H   0  0  0  0  0  0  0  0  0  0  0  0
    1.0115   11.0657    4.0377 C   0  0  0  0  0  0  0  0  0  0  0  0
    0.9699   11.8552    3.2869 H   0  0  0  0  0  0  0  0  0  0  0  0
    1.7350   11.3440    4.8093 H   0  0  0  0  0  0  0  0  0  0  0  0
    3.6604   13.5331    3.3089 C   0  0  0  0  0  0  0  0  0  0  0  0
    4.7021   13.7997    3.0870 H   0  0  0  0  0  0  0  0  0  0  0  0
    3.6529   12.5657    3.8204 H   0  0  0  0  0  0  0  0  0  0  0  0
    2.9477   14.6400    4.0810 C   0  0  0  0  0  0  0  0  0  0  0  0
    2.1336   14.2236    4.6752 H   0  0  0  0  0  0  0  0  0  0  0  0
    3.6230   15.1849    4.7361 H   0  0  0  0  0  0  0  0  0  0  0  0
    2.3859   15.4973    2.9483 C   0  0  0  0  0  0  0  0  0  0  0  0
    1.5403   16.1085    3.2530 H   0  0  0  0  0  0  0  0  0  0  0  0
    3.1649   16.1412    2.5382 H   0  0  0  0  0  0  0  0  0  0  0  0
    1.9950   14.4291    1.9349 C   0  0  0  0  0  0  0  0  0  0  0  0
    1.0029   14.0124    2.1562 H   0  0  0  0  0  0  0  0  0  0  0  0
    2.0040   14.7691    0.8958 H   0  0  0  0  0  0  0  0  0  0  0  0
  1  2  1  0  0  0  0
  1  8  1  0  0  0  0
  3  1  1  0  0  0  0
  4  5  1  6  0  0  0
  4 32  1  0  0  0  0
  4  1  1  0  0  0  0
  6 55  1  0  0  0  0
  7  9  1  1  0  0  0
  7  1  1  0  0  0  0
  8 38  1  6  0  0  0
  9 10  1  0  0  0  0
  9 23  1  0  0  0  0
 11  9  1  0  0  0  0
 12 11  1  0  0  0  0
 13 11  1  0  0  0  0
 14 15  1  0  0  0  0
 14 11  1  0  0  0  0
 14 17  1  0  0  0  0
 16 14  1  0  0  0  0
 17 20  1  0  0  0  0
 18 17  1  0  0  0  0
 19 17  1  0  0  0  0
 20 22  1  0  0  0  0
 20 23  1  0  0  0  0
 20 21  1  0  0  0  0
 23 24  1  0  0  0  0
 25 23  1  0  0  0  0
 26 29  1  0  0  0  0
 26  7  1  0  0  0  0
 27 26  1  0  0  0  0
 28 26  1  0  0  0  0
 29 30  1  0  0  0  0
 29  4  1  0  0  0  0
 31 29  1  0  0  0  0
 32 34  1  0  0  0  0
 32 35  1  0  0  0  0
 33 32  1  0  0  0  0
 35 37  1  0  0  0  0
 35  8  1  0  0  0  0
 36 35  1  0  0  0  0
 38 52  1  0  0  0  0
 38 40  1  0  0  0  0
 39 38  1  0  0  0  0
 40 43  1  0  0  0  0
 40 42  1  0  0  0  0
 41 40  1  0  0  0  0
 43 46  1  0  0  0  0
 43 44  1  0  0  0  0
 45 43  1  0  0  0  0
 46 47  1  0  0  0  0
 46 48  1  0  0  0  0
 49 50  1  0  0  0  0
 49 46  1  0  0  0  0
 51 49  1  0  0  0  0
 52 49  1  0  0  0  0
 52 54  1  0  0  0  0
 53 52  1  0  0  0  0
 55 57  1  0  0  0  0
 55 58  1  0  0  0  0
 56 55  1  0  0  0  0
 58 59  1  0  0  0  0
 58 60  1  0  0  0  0
 61 62  1  0  0  0  0
 61 58  1  0  0  0  0
 63 61  1  0  0  0  0
 64  6  1  0  0  0  0
 64 65  1  0  0  0  0
 64 61  1  0  0  0  0
 66 64  1  0  0  0  0
M  END
$$$$
