CSD_code = XEMWAO | q = 0 | S = 0 | Stoichiometry = C19H31ClP2Pt | MND = 4
 OpenBabel04212202123D

 54 57  0  0  1  0  0  0  0  0999 V2000
   10.2479   -5.7889    4.6082 Pt  0  0  1  0  0  0  0  0  0  0  0  0
   10.6132   -7.4893    6.0870 Cl  0  0  0  0  0  0  0  0  0  0  0  0
    9.7809   -3.9738    3.3607 P   0  0  1  0  0  4  0  0  0  0  0  0
   11.1319   -4.2734    6.1469 P   0  0  2  0  0  4  0  0  0  0  0  0
   10.3400   -2.4563    4.2194 C   0  0  0  0  0  0  0  0  0  0  0  0
   10.1561   -1.1901    3.6730 C   0  0  0  0  0  0  0  0  0  0  0  0
    9.6452   -1.0782    2.7275 H   0  0  0  0  0  0  0  0  0  0  0  0
   10.6148   -0.0652    4.3342 C   0  0  0  0  0  0  0  0  0  0  0  0
   10.4655    0.9132    3.9016 H   0  0  0  0  0  0  0  0  0  0  0  0
   11.2722   -0.1950    5.5470 C   0  0  0  0  0  0  0  0  0  0  0  0
   11.6430    0.6817    6.0576 H   0  0  0  0  0  0  0  0  0  0  0  0
   11.4482   -1.4475    6.1064 C   0  0  0  0  0  0  0  0  0  0  0  0
   11.9660   -1.5414    7.0499 H   0  0  0  0  0  0  0  0  0  0  0  0
   10.9737   -2.5843    5.4614 C   0  0  0  0  0  0  0  0  0  0  0  0
   10.2983   -3.8340    1.5735 C   0  0  1  0  0  0  0  0  0  0  0  0
   10.4408   -4.8813    1.2749 H   0  0  0  0  0  0  0  0  0  0  0  0
    9.0860   -3.2811    0.8189 C   0  0  0  0  0  0  0  0  0  0  0  0
    9.0642   -2.1907    0.8776 H   0  0  0  0  0  0  0  0  0  0  0  0
    9.1302   -3.5548   -0.2366 H   0  0  0  0  0  0  0  0  0  0  0  0
    7.8472   -3.8638    1.4933 C   0  0  0  0  0  0  0  0  0  0  0  0
    7.8059   -4.9394    1.3102 H   0  0  0  0  0  0  0  0  0  0  0  0
    6.9299   -3.4166    1.1067 H   0  0  0  0  0  0  0  0  0  0  0  0
    7.9920   -3.6121    2.9961 C   0  0  1  0  0  0  0  0  0  0  0  0
    7.8031   -2.5526    3.2090 H   0  0  0  0  0  0  0  0  0  0  0  0
   11.6078   -3.0951    1.3387 C   0  0  0  0  0  0  0  0  0  0  0  0
   11.8929   -3.1623    0.2901 H   0  0  0  0  0  0  0  0  0  0  0  0
   12.3986   -3.5429    1.9388 H   0  0  0  0  0  0  0  0  0  0  0  0
   11.5300   -2.0437    1.6063 H   0  0  0  0  0  0  0  0  0  0  0  0
    7.0903   -4.4738    3.8694 C   0  0  0  0  0  0  0  0  0  0  0  0
    6.0433   -4.3394    3.6024 H   0  0  0  0  0  0  0  0  0  0  0  0
    7.2185   -4.2049    4.9176 H   0  0  0  0  0  0  0  0  0  0  0  0
    7.3518   -5.5259    3.7556 H   0  0  0  0  0  0  0  0  0  0  0  0
   12.9719   -4.4250    6.3846 C   0  0  1  0  0  0  0  0  0  0  0  0
   13.4183   -3.4285    6.2665 H   0  0  0  0  0  0  0  0  0  0  0  0
   13.1275   -4.8946    7.8323 C   0  0  0  0  0  0  0  0  0  0  0  0
   12.8619   -5.9524    7.8927 H   0  0  0  0  0  0  0  0  0  0  0  0
   14.1557   -4.7745    8.1780 H   0  0  0  0  0  0  0  0  0  0  0  0
   12.1453   -4.0806    8.6687 C   0  0  0  0  0  0  0  0  0  0  0  0
   12.4584   -3.0339    8.7031 H   0  0  0  0  0  0  0  0  0  0  0  0
   12.0941   -4.4473    9.6953 H   0  0  0  0  0  0  0  0  0  0  0  0
   10.7866   -4.2161    7.9770 C   0  0  1  0  0  0  0  0  0  0  0  0
   10.4099   -5.2309    8.1730 H   0  0  0  0  0  0  0  0  0  0  0  0
   13.5600   -5.3782    5.3528 C   0  0  0  0  0  0  0  0  0  0  0  0
   14.6303   -5.5091    5.5058 H   0  0  0  0  0  0  0  0  0  0  0  0
   13.3978   -4.9899    4.3455 H   0  0  0  0  0  0  0  0  0  0  0  0
   13.0758   -6.3523    5.4293 H   0  0  0  0  0  0  0  0  0  0  0  0
    9.7210   -3.2186    8.4062 C   0  0  0  0  0  0  0  0  0  0  0  0
    9.4972   -3.3431    9.4646 H   0  0  0  0  0  0  0  0  0  0  0  0
    8.8045   -3.3846    7.8411 H   0  0  0  0  0  0  0  0  0  0  0  0
   10.0409   -2.1916    8.2423 H   0  0  0  0  0  0  0  0  0  0  0  0
    9.7011   -7.1875    3.1962 C   0  0  0  0  0  0  0  0  0  0  0  0
    9.2166   -6.7986    2.2959 H   0  0  0  0  0  0  0  0  0  0  0  0
    9.0375   -7.9388    3.6322 H   0  0  0  0  0  0  0  0  0  0  0  0
   10.6138   -7.7090    2.8813 H   0  0  0  0  0  0  0  0  0  0  0  0
  1  2  1  1  0  0  0
  1  4  1  0  0  0  0
  3  5  1  1  0  0  0
  3  1  1  0  0  0  0
  4 14  1  6  0  0  0
  4 33  1  0  0  0  0
  4 41  1  0  0  0  0
  5 14  1  0  0  0  0
  6  5  2  0  0  0  0
  6  8  1  0  0  0  0
  7  6  1  0  0  0  0
  8 10  2  0  0  0  0
  9  8  1  0  0  0  0
 10 11  1  0  0  0  0
 10 12  1  0  0  0  0
 12 13  1  0  0  0  0
 14 12  2  0  0  0  0
 15 16  1  6  0  0  0
 15  3  1  0  0  0  0
 17 18  1  0  0  0  0
 17 20  1  0  0  0  0
 17 15  1  0  0  0  0
 19 17  1  0  0  0  0
 20 23  1  0  0  0  0
 21 20  1  0  0  0  0
 22 20  1  0  0  0  0
 23 24  1  1  0  0  0
 23  3  1  0  0  0  0
 23 29  1  0  0  0  0
 25 15  1  0  0  0  0
 25 28  1  0  0  0  0
 25 27  1  0  0  0  0
 26 25  1  0  0  0  0
 29 31  1  0  0  0  0
 30 29  1  0  0  0  0
 32 29  1  0  0  0  0
 33 34  1  6  0  0  0
 33 35  1  0  0  0  0
 35 36  1  0  0  0  0
 35 37  1  0  0  0  0
 35 38  1  0  0  0  0
 38 39  1  0  0  0  0
 38 40  1  0  0  0  0
 41 42  1  1  0  0  0
 41 47  1  0  0  0  0
 41 38  1  0  0  0  0
 43 46  1  0  0  0  0
 43 44  1  0  0  0  0
 43 33  1  0  0  0  0
 45 43  1  0  0  0  0
 47 48  1  0  0  0  0
 49 47  1  0  0  0  0
 50 47  1  0  0  0  0
 51 53  1  0  0  0  0
 51  1  1  0  0  0  0
 52 51  1  0  0  0  0
 54 51  1  0  0  0  0
M  END
$$$$
