CSD_code = XEMZEX | q = 0 | S = 0 | Stoichiometry = C15H11Br2CdN3 | MND = 5
 OpenBabel04212202123D

 32 36  0  0  1  0  0  0  0  0999 V2000
   -1.7510    2.5726    2.3187 Cd  0  0  0  0  0  0  0  0  0  0  0  0
   -1.0922    3.6388    4.4703 Br  0  0  0  0  0  0  0  0  0  0  0  0
   -1.7511    0.1327    2.3185 N   0  0  0  0  0  0  0  0  0  0  0  0
   -0.6455   -0.5197    1.9694 C   0  0  0  0  0  0  0  0  0  0  0  0
   -0.6109   -1.9161    1.9586 C   0  0  0  0  0  0  0  0  0  0  0  0
    0.2777   -2.4559    1.6786 H   0  0  0  0  0  0  0  0  0  0  0  0
   -1.7511   -2.6116    2.3185 C   0  0  0  0  0  0  0  0  0  0  0  0
   -1.7511   -3.6914    2.3185 H   0  0  0  0  0  0  0  0  0  0  0  0
    0.3538    1.6334    1.6697 N   0  0  0  0  0  0  0  0  0  0  0  0
    0.5229    0.3101    1.6014 C   0  0  0  0  0  0  0  0  0  0  0  0
    1.7433   -0.2357    1.2027 C   0  0  0  0  0  0  0  0  0  0  0  0
    1.8886   -1.3016    1.1428 H   0  0  0  0  0  0  0  0  0  0  0  0
    2.7882    0.6129    0.8764 C   0  0  0  0  0  0  0  0  0  0  0  0
    3.7392    0.2063    0.5659 H   0  0  0  0  0  0  0  0  0  0  0  0
    2.5952    1.9817    0.9541 C   0  0  0  0  0  0  0  0  0  0  0  0
    3.3832    2.6751    0.7091 H   0  0  0  0  0  0  0  0  0  0  0  0
    1.3505    2.4430    1.3585 C   0  0  0  0  0  0  0  0  0  0  0  0
    1.1450    3.5060    1.4360 H   0  0  0  0  0  0  0  0  0  0  0  0
   -2.8566   -0.5197    2.6677 C   0  0  0  0  0  0  0  0  0  0  0  0
   -2.8913   -1.9161    2.6785 C   0  0  0  0  0  0  0  0  0  0  0  0
   -3.7799   -2.4559    2.9585 H   0  0  0  0  0  0  0  0  0  0  0  0
   -3.8560    1.6334    2.9673 N   0  0  0  0  0  0  0  0  0  0  0  0
   -4.0251    0.3101    3.0356 C   0  0  1  0  0  3  0  0  0  0  0  0
   -5.2455   -0.2357    3.4344 C   0  0  0  0  0  0  0  0  0  0  0  0
   -5.3907   -1.3016    3.4943 H   0  0  0  0  0  0  0  0  0  0  0  0
   -6.2904    0.6129    3.7607 C   0  0  0  0  0  0  0  0  0  0  0  0
   -7.2413    0.2063    4.0711 H   0  0  0  0  0  0  0  0  0  0  0  0
   -6.0974    1.9817    3.6829 C   0  0  0  0  0  0  0  0  0  0  0  0
   -6.8854    2.6751    3.9279 H   0  0  0  0  0  0  0  0  0  0  0  0
   -4.8527    2.4430    3.2786 C   0  0  0  0  0  0  0  0  0  0  0  0
   -4.6472    3.5060    3.2011 H   0  0  0  0  0  0  0  0  0  0  0  0
   -2.4100    3.6388    0.1668 Br  0  0  0  0  0  0  0  0  0  0  0  0
  1 22  1  0  0  0  0
  1  2  1  0  0  0  0
  3  1  1  0  0  0  0
  3 19  1  0  0  0  0
  4  3  1  0  0  0  0
  5  4  1  0  0  0  0
  5  7  2  0  0  0  0
  6  5  1  0  0  0  0
  7  8  1  0  0  0  0
  7 20  1  0  0  0  0
  9  1  1  0  0  0  0
 10  9  1  0  0  0  0
 10  4  2  0  0  0  0
 11 10  1  0  0  0  0
 12 11  1  0  0  0  0
 13 15  1  0  0  0  0
 13 11  2  0  0  0  0
 14 13  1  0  0  0  0
 15 17  2  0  0  0  0
 16 15  1  0  0  0  0
 17 18  1  0  0  0  0
 17  9  1  0  0  0  0
 19 20  2  0  0  0  0
 20 21  1  0  0  0  0
 22 23  1  0  0  0  0
 22 30  1  0  0  0  0
 23 19  1  6  0  0  0
 23 24  1  0  0  0  0
 24 25  1  0  0  0  0
 24 26  2  0  0  0  0
 26 27  1  0  0  0  0
 28 26  1  0  0  0  0
 28 29  1  0  0  0  0
 30 28  2  0  0  0  0
 31 30  1  0  0  0  0
 32  1  1  0  0  0  0
M  END
$$$$
