CSD_code = XENMUY | q = 1 | S = 0 | Stoichiometry = C18H39INPdS3(1+) | MND = 4
 OpenBabel04212202123D

 63 64  0  0  1  0  0  0  0  0999 V2000
    0.5362    3.2009   -6.5464 I   0  0  0  0  0  0  0  0  0  0  0  0
   -1.2332    2.3441   -4.8851 Pd  0  0  2  0  0  0  0  0  0  0  0  0
   -1.3122    0.2997   -5.9986 S   0  0  1  0  0  3  0  0  0  0  0  0
   -0.9299    4.2194   -3.5508 S   0  0  2  0  0  3  0  0  0  0  0  0
   -6.1134    1.2910   -1.8674 S   0  0  0  0  0  0  0  0  0  0  0  0
   -2.2204    1.3765   -3.1808 N   0  0  1  0  0  4  0  0  0  0  0  0
   -1.7843   -0.0254   -3.3270 C   0  0  0  0  0  0  0  0  0  0  0  0
   -2.1998   -0.6109   -4.6684 C   0  0  0  0  0  0  0  0  0  0  0  0
   -2.5316    0.5200   -7.4061 C   0  0  0  0  0  0  0  0  0  0  0  0
   -3.4240   -0.7064   -7.5214 C   0  0  0  0  0  0  0  0  0  0  0  0
   -1.6519    0.6500   -8.6435 C   0  0  0  0  0  0  0  0  0  0  0  0
   -3.3332    1.7921   -7.1623 C   0  0  0  0  0  0  0  0  0  0  0  0
   -1.5355    2.0060   -2.0333 C   0  0  0  0  0  0  0  0  0  0  0  0
   -1.6780    3.5215   -2.0218 C   0  0  0  0  0  0  0  0  0  0  0  0
   -2.1471    5.5111   -4.1303 C   0  0  0  0  0  0  0  0  0  0  0  0
   -3.4681    4.8522   -4.5025 C   0  0  0  0  0  0  0  0  0  0  0  0
   -1.5019    6.1331   -5.3627 C   0  0  0  0  0  0  0  0  0  0  0  0
   -2.2930    6.5422   -3.0226 C   0  0  0  0  0  0  0  0  0  0  0  0
   -3.6871    1.4882   -3.0863 C   0  0  0  0  0  0  0  0  0  0  0  0
   -4.3824    0.6932   -1.9776 C   0  0  0  0  0  0  0  0  0  0  0  0
   -7.1391   -0.0744   -2.6067 C   0  0  0  0  0  0  0  0  0  0  0  0
   -6.6511   -0.4024   -4.0109 C   0  0  0  0  0  0  0  0  0  0  0  0
   -8.5450    0.5139   -2.6535 C   0  0  0  0  0  0  0  0  0  0  0  0
   -7.0948   -1.2894   -1.6932 C   0  0  0  0  0  0  0  0  0  0  0  0
   -2.1790   -0.6427   -2.5088 H   0  0  0  0  0  0  0  0  0  0  0  0
   -0.6865   -0.0566   -3.2687 H   0  0  0  0  0  0  0  0  0  0  0  0
   -1.8906   -1.6545   -4.7336 H   0  0  0  0  0  0  0  0  0  0  0  0
   -3.2716   -0.5484   -4.8352 H   0  0  0  0  0  0  0  0  0  0  0  0
   -3.9454   -0.6682   -8.4756 H   0  0  0  0  0  0  0  0  0  0  0  0
   -4.1812   -0.7512   -6.7414 H   0  0  0  0  0  0  0  0  0  0  0  0
   -2.8373   -1.6217   -7.5012 H   0  0  0  0  0  0  0  0  0  0  0  0
   -2.2728    0.8334   -9.5170 H   0  0  0  0  0  0  0  0  0  0  0  0
   -1.0864   -0.2634   -8.8099 H   0  0  0  0  0  0  0  0  0  0  0  0
   -0.9499    1.4748   -8.5472 H   0  0  0  0  0  0  0  0  0  0  0  0
   -2.6629    2.6632   -7.1104 H   0  0  0  0  0  0  0  0  0  0  0  0
   -3.9341    1.7174   -6.2511 H   0  0  0  0  0  0  0  0  0  0  0  0
   -4.0179    1.9537   -7.9935 H   0  0  0  0  0  0  0  0  0  0  0  0
   -0.4642    1.7670   -2.1045 H   0  0  0  0  0  0  0  0  0  0  0  0
   -1.9076    1.5982   -1.0838 H   0  0  0  0  0  0  0  0  0  0  0  0
   -2.7135    3.8432   -1.9458 H   0  0  0  0  0  0  0  0  0  0  0  0
   -1.1191    3.9339   -1.1810 H   0  0  0  0  0  0  0  0  0  0  0  0
   -4.0452    5.5327   -5.1257 H   0  0  0  0  0  0  0  0  0  0  0  0
   -4.0749    4.6210   -3.6291 H   0  0  0  0  0  0  0  0  0  0  0  0
   -3.2824    3.9343   -5.0838 H   0  0  0  0  0  0  0  0  0  0  0  0
   -1.5022    5.4348   -6.1981 H   0  0  0  0  0  0  0  0  0  0  0  0
   -0.4747    6.4285   -5.1626 H   0  0  0  0  0  0  0  0  0  0  0  0
   -2.0589    7.0190   -5.6580 H   0  0  0  0  0  0  0  0  0  0  0  0
   -1.3276    6.9795   -2.7792 H   0  0  0  0  0  0  0  0  0  0  0  0
   -2.7228    6.1205   -2.1167 H   0  0  0  0  0  0  0  0  0  0  0  0
   -2.9497    7.3408   -3.3613 H   0  0  0  0  0  0  0  0  0  0  0  0
   -4.1248    1.1942   -4.0438 H   0  0  0  0  0  0  0  0  0  0  0  0
   -3.9436    2.5368   -2.9350 H   0  0  0  0  0  0  0  0  0  0  0  0
   -4.3999   -0.3773   -2.1634 H   0  0  0  0  0  0  0  0  0  0  0  0
   -3.9391    0.8816   -1.0010 H   0  0  0  0  0  0  0  0  0  0  0  0
   -7.3470   -1.0955   -4.4794 H   0  0  0  0  0  0  0  0  0  0  0  0
   -5.6718   -0.8800   -3.9941 H   0  0  0  0  0  0  0  0  0  0  0  0
   -6.6064    0.4985   -4.6206 H   0  0  0  0  0  0  0  0  0  0  0  0
   -8.5744    1.3906   -3.2967 H   0  0  0  0  0  0  0  0  0  0  0  0
   -8.8679    0.8088   -1.6578 H   0  0  0  0  0  0  0  0  0  0  0  0
   -9.2431   -0.2255   -3.0387 H   0  0  0  0  0  0  0  0  0  0  0  0
   -7.7605   -2.0598   -2.0770 H   0  0  0  0  0  0  0  0  0  0  0  0
   -7.4212   -1.0213   -0.6913 H   0  0  0  0  0  0  0  0  0  0  0  0
   -6.0941   -1.7136   -1.6268 H   0  0  0  0  0  0  0  0  0  0  0  0
  2  1  1  1  0  0  0
  2  4  1  0  0  0  0
  2  6  1  0  0  0  0
  3  9  1  6  0  0  0
  3  2  1  0  0  0  0
  3  8  1  0  0  0  0
  4 15  1  6  0  0  0
  4 14  1  0  0  0  0
  6 19  1  1  0  0  0
  6 13  1  0  0  0  0
  7 26  1  0  0  0  0
  7  6  1  0  0  0  0
  7 25  1  0  0  0  0
  8  7  1  0  0  0  0
  9 12  1  0  0  0  0
 10 31  1  0  0  0  0
 10  9  1  0  0  0  0
 10 30  1  0  0  0  0
 11 34  1  0  0  0  0
 11  9  1  0  0  0  0
 12 35  1  0  0  0  0
 12 36  1  0  0  0  0
 13 14  1  0  0  0  0
 13 39  1  0  0  0  0
 14 40  1  0  0  0  0
 14 41  1  0  0  0  0
 15 18  1  0  0  0  0
 16 15  1  0  0  0  0
 16 43  1  0  0  0  0
 17 46  1  0  0  0  0
 17 15  1  0  0  0  0
 18 48  1  0  0  0  0
 18 49  1  0  0  0  0
 19 52  1  0  0  0  0
 19 20  1  0  0  0  0
 20  5  1  0  0  0  0
 20 54  1  0  0  0  0
 21  5  1  0  0  0  0
 21 24  1  0  0  0  0
 22 56  1  0  0  0  0
 22 21  1  0  0  0  0
 23 21  1  0  0  0  0
 23 59  1  0  0  0  0
 24 63  1  0  0  0  0
 24 62  1  0  0  0  0
 27  8  1  0  0  0  0
 28  8  1  0  0  0  0
 29 10  1  0  0  0  0
 32 11  1  0  0  0  0
 33 11  1  0  0  0  0
 37 12  1  0  0  0  0
 38 13  1  0  0  0  0
 42 16  1  0  0  0  0
 44 16  1  0  0  0  0
 45 17  1  0  0  0  0
 47 17  1  0  0  0  0
 50 18  1  0  0  0  0
 51 19  1  0  0  0  0
 53 20  1  0  0  0  0
 55 22  1  0  0  0  0
 57 22  1  0  0  0  0
 58 23  1  0  0  0  0
 60 23  1  0  0  0  0
 61 24  1  0  0  0  0
M  END
$$$$
