CSD_code = XENNAF | q = 1 | S = 0 | Stoichiometry = C18H39ClNPtS3(1+) | MND = 4
 OpenBabel04212202123D

 63 64  0  0  1  0  0  0  0  0999 V2000
    0.7327    1.0613    1.6284 Pt  0  0  1  0  0  0  0  0  0  0  0  0
    1.3247    1.6642   -0.4598 Cl  0  0  0  0  0  0  0  0  0  0  0  0
   -1.1756    2.4676    1.5786 S   0  0  1  0  0  3  0  0  0  0  0  0
    2.1603   -0.8242    1.5722 S   0  0  2  0  0  3  0  0  0  0  0  0
    1.8349    1.7215    7.0972 S   0  0  0  0  0  0  0  0  0  0  0  0
    0.1248    0.4451    3.5794 N   0  0  1  0  0  4  0  0  0  0  0  0
   -1.3227    0.7050    3.6782 C   0  0  0  0  0  0  0  0  0  0  0  0
   -1.6774    2.1412    3.3245 C   0  0  0  0  0  0  0  0  0  0  0  0
   -0.6552    4.2674    1.5585 C   0  0  0  0  0  0  0  0  0  0  0  0
   -1.7572    5.0976    2.1970 C   0  0  0  0  0  0  0  0  0  0  0  0
   -0.5270    4.5903    0.0762 C   0  0  0  0  0  0  0  0  0  0  0  0
    0.6781    4.4180    2.2709 C   0  0  0  0  0  0  0  0  0  0  0  0
    0.3799   -1.0053    3.6660 C   0  0  0  0  0  0  0  0  0  0  0  0
    1.8084   -1.3752    3.2973 C   0  0  0  0  0  0  0  0  0  0  0  0
    3.9502   -0.2707    1.6031 C   0  0  0  0  0  0  0  0  0  0  0  0
    4.0645    1.0391    2.3644 C   0  0  0  0  0  0  0  0  0  0  0  0
    4.2977   -0.0847    0.1323 C   0  0  0  0  0  0  0  0  0  0  0  0
    4.7875   -1.3814    2.2164 C   0  0  0  0  0  0  0  0  0  0  0  0
    0.8899    1.2052    4.5878 C   0  0  0  0  0  0  0  0  0  0  0  0
    0.5073    1.0007    6.0552 C   0  0  0  0  0  0  0  0  0  0  0  0
    1.1125    3.3020    7.7607 C   0  0  0  0  0  0  0  0  0  0  0  0
    0.6461    4.1905    6.6160 C   0  0  0  0  0  0  0  0  0  0  0  0
    2.2767    3.9521    8.5000 C   0  0  0  0  0  0  0  0  0  0  0  0
   -0.0192    2.9767    8.7235 C   0  0  0  0  0  0  0  0  0  0  0  0
   -1.8355    0.0443    2.9722 H   0  0  0  0  0  0  0  0  0  0  0  0
   -1.6892    0.4678    4.6847 H   0  0  0  0  0  0  0  0  0  0  0  0
   -1.1910    2.8605    3.9781 H   0  0  0  0  0  0  0  0  0  0  0  0
   -2.7566    2.2812    3.3822 H   0  0  0  0  0  0  0  0  0  0  0  0
   -1.8430    4.9249    3.2673 H   0  0  0  0  0  0  0  0  0  0  0  0
   -1.5329    6.1520    2.0499 H   0  0  0  0  0  0  0  0  0  0  0  0
   -2.7173    4.8918    1.7300 H   0  0  0  0  0  0  0  0  0  0  0  0
   -1.4768    4.4477   -0.4335 H   0  0  0  0  0  0  0  0  0  0  0  0
   -0.2227    5.6264   -0.0495 H   0  0  0  0  0  0  0  0  0  0  0  0
    0.2190    3.9534   -0.3936 H   0  0  0  0  0  0  0  0  0  0  0  0
    1.3967    3.6912    1.8796 H   0  0  0  0  0  0  0  0  0  0  0  0
    1.0750    5.4145    2.0892 H   0  0  0  0  0  0  0  0  0  0  0  0
    0.5793    4.2978    3.3481 H   0  0  0  0  0  0  0  0  0  0  0  0
    0.1562   -1.3810    4.6718 H   0  0  0  0  0  0  0  0  0  0  0  0
   -0.2952   -1.5056    2.9647 H   0  0  0  0  0  0  0  0  0  0  0  0
    1.9214   -2.4590    3.3162 H   0  0  0  0  0  0  0  0  0  0  0  0
    2.5370   -0.9357    3.9736 H   0  0  0  0  0  0  0  0  0  0  0  0
    3.9376    0.9029    3.4366 H   0  0  0  0  0  0  0  0  0  0  0  0
    5.0534    1.4636    2.2052 H   0  0  0  0  0  0  0  0  0  0  0  0
    3.3252    1.7552    1.9915 H   0  0  0  0  0  0  0  0  0  0  0  0
    3.6592    0.6686   -0.3232 H   0  0  0  0  0  0  0  0  0  0  0  0
    5.3315    0.2380    0.0372 H   0  0  0  0  0  0  0  0  0  0  0  0
    4.1785   -1.0174   -0.4137 H   0  0  0  0  0  0  0  0  0  0  0  0
    4.6066   -2.3269    1.7105 H   0  0  0  0  0  0  0  0  0  0  0  0
    5.8403   -1.1344    2.0970 H   0  0  0  0  0  0  0  0  0  0  0  0
    4.5979   -1.5097    3.2793 H   0  0  0  0  0  0  0  0  0  0  0  0
    1.9427    0.9423    4.4880 H   0  0  0  0  0  0  0  0  0  0  0  0
    0.8146    2.2679    4.3530 H   0  0  0  0  0  0  0  0  0  0  0  0
    0.4654   -0.0537    6.3233 H   0  0  0  0  0  0  0  0  0  0  0  0
   -0.4335    1.4746    6.3217 H   0  0  0  0  0  0  0  0  0  0  0  0
    0.3623    5.1646    7.0091 H   0  0  0  0  0  0  0  0  0  0  0  0
    1.4483    4.3344    5.8945 H   0  0  0  0  0  0  0  0  0  0  0  0
   -0.2251    3.7704    6.1143 H   0  0  0  0  0  0  0  0  0  0  0  0
    2.6491    3.2920    9.2797 H   0  0  0  0  0  0  0  0  0  0  0  0
    3.0938    4.1694    7.8157 H   0  0  0  0  0  0  0  0  0  0  0  0
    1.9503    4.8817    8.9605 H   0  0  0  0  0  0  0  0  0  0  0  0
    0.3320    2.3113    9.5084 H   0  0  0  0  0  0  0  0  0  0  0  0
   -0.3810    3.8928    9.1857 H   0  0  0  0  0  0  0  0  0  0  0  0
   -0.8595    2.5011    8.2201 H   0  0  0  0  0  0  0  0  0  0  0  0
  1  2  1  1  0  0  0
  1  6  1  0  0  0  0
  3  9  1  1  0  0  0
  3  1  1  0  0  0  0
  3  8  1  0  0  0  0
  4 15  1  1  0  0  0
  4  1  1  0  0  0  0
  4 14  1  0  0  0  0
  5 21  1  0  0  0  0
  6 13  1  0  0  0  0
  6  7  1  0  0  0  0
  6 19  1  1  0  0  0
  7 26  1  0  0  0  0
  8 28  1  0  0  0  0
  8  7  1  0  0  0  0
  8 27  1  0  0  0  0
  9 10  1  0  0  0  0
  9 12  1  0  0  0  0
 10 29  1  0  0  0  0
 11  9  1  0  0  0  0
 12 37  1  0  0  0  0
 13 38  1  0  0  0  0
 14 40  1  0  0  0  0
 14 13  1  0  0  0  0
 14 41  1  0  0  0  0
 15 18  1  0  0  0  0
 15 16  1  0  0  0  0
 16 42  1  0  0  0  0
 17 15  1  0  0  0  0
 18 50  1  0  0  0  0
 19 20  1  0  0  0  0
 20 54  1  0  0  0  0
 20 53  1  0  0  0  0
 20  5  1  0  0  0  0
 21 23  1  0  0  0  0
 21 24  1  0  0  0  0
 22 55  1  0  0  0  0
 22 21  1  0  0  0  0
 23 60  1  0  0  0  0
 23 58  1  0  0  0  0
 24 62  1  0  0  0  0
 24 61  1  0  0  0  0
 25  7  1  0  0  0  0
 30 10  1  0  0  0  0
 31 10  1  0  0  0  0
 32 11  1  0  0  0  0
 33 11  1  0  0  0  0
 34 11  1  0  0  0  0
 35 12  1  0  0  0  0
 36 12  1  0  0  0  0
 39 13  1  0  0  0  0
 43 16  1  0  0  0  0
 44 16  1  0  0  0  0
 45 17  1  0  0  0  0
 46 17  1  0  0  0  0
 47 17  1  0  0  0  0
 48 18  1  0  0  0  0
 49 18  1  0  0  0  0
 51 19  1  0  0  0  0
 52 19  1  0  0  0  0
 56 22  1  0  0  0  0
 57 22  1  0  0  0  0
 59 23  1  0  0  0  0
 63 24  1  0  0  0  0
M  END
$$$$
