CSD_code = XENXIY | q = 0 | S = 0 | Stoichiometry = C24H40AuBClP | MND = 2
 OpenBabel04212202123D

 68 70  0  0  0  0  0  0  0  0999 V2000
    4.5686    5.5793    5.9564 Au  0  0  0  0  0  0  0  0  0  0  0  0
    2.8674    7.0367    6.0823 P   0  0  0  0  0  4  0  0  0  0  0  0
    6.3177    4.1244    5.8126 Cl  0  0  0  0  0  0  0  0  0  0  0  0
    2.9126    7.4004    3.3464 C   0  0  0  0  0  0  0  0  0  0  0  0
    2.8362    4.6998    3.1833 C   0  0  0  0  0  0  0  0  0  0  0  0
    2.2458    4.6850    4.1129 H   0  0  0  0  0  0  0  0  0  0  0  0
    3.6913    6.0455    3.1728 B   0  0  0  0  0  0  0  0  0  0  0  0
    1.8881    9.2134    4.6055 C   0  0  0  0  0  0  0  0  0  0  0  0
    1.6301    9.6657    5.5522 H   0  0  0  0  0  0  0  0  0  0  0  0
    2.5795    8.1005    2.1823 C   0  0  0  0  0  0  0  0  0  0  0  0
    2.8448    7.6727    1.2268 H   0  0  0  0  0  0  0  0  0  0  0  0
    6.8592    5.8990    0.8465 C   0  0  0  0  0  0  0  0  0  0  0  0
    7.2955    5.0094    1.3052 H   0  0  0  0  0  0  0  0  0  0  0  0
    6.9626    5.8051   -0.2377 H   0  0  0  0  0  0  0  0  0  0  0  0
    5.9549    7.3713    3.2040 C   0  0  0  0  0  0  0  0  0  0  0  0
    5.5028    8.2513    2.7369 H   0  0  0  0  0  0  0  0  0  0  0  0
    5.8509    7.4817    4.2883 H   0  0  0  0  0  0  0  0  0  0  0  0
    1.1950    6.2802    6.4261 C   0  0  0  0  0  0  0  0  0  0  0  0
    0.8599    5.9627    5.4272 H   0  0  0  0  0  0  0  0  0  0  0  0
    7.4341    7.2974    2.8416 C   0  0  0  0  0  0  0  0  0  0  0  0
    7.9480    8.2002    3.1806 H   0  0  0  0  0  0  0  0  0  0  0  0
    7.8817    6.4436    3.3542 H   0  0  0  0  0  0  0  0  0  0  0  0
    1.8072    4.6951    2.0350 C   0  0  0  0  0  0  0  0  0  0  0  0
    1.2092    5.6096    2.0664 H   0  0  0  0  0  0  0  0  0  0  0  0
    2.3360    4.6759    1.0797 H   0  0  0  0  0  0  0  0  0  0  0  0
    2.5326    7.9773    4.5666 C   0  0  0  0  0  0  0  0  0  0  0  0
    5.3815    5.9821    1.2177 C   0  0  0  0  0  0  0  0  0  0  0  0
    4.8606    5.0959    0.8518 H   0  0  0  0  0  0  0  0  0  0  0  0
    4.9400    6.8566    0.7336 H   0  0  0  0  0  0  0  0  0  0  0  0
    1.9218    9.3140    2.2188 C   0  0  0  0  0  0  0  0  0  0  0  0
    1.6800    9.8251    1.2984 H   0  0  0  0  0  0  0  0  0  0  0  0
    3.6371    3.3941    3.1417 C   0  0  0  0  0  0  0  0  0  0  0  0
    4.1953    3.3346    2.2061 H   0  0  0  0  0  0  0  0  0  0  0  0
    4.3588    3.3736    3.9595 H   0  0  0  0  0  0  0  0  0  0  0  0
    5.2213    6.1035    2.7464 C   0  0  0  0  0  0  0  0  0  0  0  0
    5.7540    5.2488    3.1762 H   0  0  0  0  0  0  0  0  0  0  0  0
    3.2086    8.3085    7.3862 C   0  0  0  0  0  0  0  0  0  0  0  0
    2.3635    9.0013    7.4680 H   0  0  0  0  0  0  0  0  0  0  0  0
    1.5848    9.8826    3.4368 C   0  0  0  0  0  0  0  0  0  0  0  0
    1.0873   10.8404    3.4751 H   0  0  0  0  0  0  0  0  0  0  0  0
    1.3394    5.0376    7.3000 C   0  0  0  0  0  0  0  0  0  0  0  0
    1.6336    5.2965    8.3142 H   0  0  0  0  0  0  0  0  0  0  0  0
    2.0944    4.3666    6.8900 H   0  0  0  0  0  0  0  0  0  0  0  0
    0.3922    4.5029    7.3477 H   0  0  0  0  0  0  0  0  0  0  0  0
    4.4596    9.0669    6.9483 C   0  0  0  0  0  0  0  0  0  0  0  0
    4.7120    9.8353    7.6768 H   0  0  0  0  0  0  0  0  0  0  0  0
    4.3140    9.5431    5.9795 H   0  0  0  0  0  0  0  0  0  0  0  0
    5.3033    8.3809    6.8687 H   0  0  0  0  0  0  0  0  0  0  0  0
    7.6052    7.1363    1.3346 C   0  0  0  0  0  0  0  0  0  0  0  0
    7.2097    8.0214    0.8284 H   0  0  0  0  0  0  0  0  0  0  0  0
    8.6653    7.0546    1.0852 H   0  0  0  0  0  0  0  0  0  0  0  0
    0.8896    3.4788    2.1267 C   0  0  0  0  0  0  0  0  0  0  0  0
    0.1827    3.4890    1.2932 H   0  0  0  0  0  0  0  0  0  0  0  0
    0.3121    3.5294    3.0537 H   0  0  0  0  0  0  0  0  0  0  0  0
    0.1663    7.2568    6.9860 C   0  0  0  0  0  0  0  0  0  0  0  0
   -0.8016    6.7627    7.0544 H   0  0  0  0  0  0  0  0  0  0  0  0
    0.0556    8.1215    6.3349 H   0  0  0  0  0  0  0  0  0  0  0  0
    0.4412    7.5939    7.9829 H   0  0  0  0  0  0  0  0  0  0  0  0
    3.4392    7.6245    8.7302 C   0  0  0  0  0  0  0  0  0  0  0  0
    4.1803    6.8309    8.6275 H   0  0  0  0  0  0  0  0  0  0  0  0
    2.5218    7.1922    9.1234 H   0  0  0  0  0  0  0  0  0  0  0  0
    3.8102    8.3456    9.4567 H   0  0  0  0  0  0  0  0  0  0  0  0
    1.6994    2.1867    2.1080 C   0  0  0  0  0  0  0  0  0  0  0  0
    2.2269    2.1045    1.1547 H   0  0  0  0  0  0  0  0  0  0  0  0
    1.0313    1.3268    2.1953 H   0  0  0  0  0  0  0  0  0  0  0  0
    2.7134    2.1845    3.2471 C   0  0  0  0  0  0  0  0  0  0  0  0
    3.3037    1.2667    3.2197 H   0  0  0  0  0  0  0  0  0  0  0  0
    2.1852    2.2102    4.2042 H   0  0  0  0  0  0  0  0  0  0  0  0
  1  2  1  0  0  0  0
  2 18  1  0  0  0  0
  2 37  1  0  0  0  0
  3  1  1  0  0  0  0
  4 26  1  0  0  0  0
  5  6  1  0  0  0  0
  7  5  1  0  0  0  0
  7  4  1  0  0  0  0
  8  9  1  0  0  0  0
 10 30  1  0  0  0  0
 10  4  2  0  0  0  0
 11 10  1  0  0  0  0
 12 27  1  0  0  0  0
 12 13  1  0  0  0  0
 12 49  1  0  0  0  0
 14 12  1  0  0  0  0
 15 17  1  0  0  0  0
 16 15  1  0  0  0  0
 18 55  1  0  0  0  0
 18 41  1  0  0  0  0
 19 18  1  0  0  0  0
 20 21  1  0  0  0  0
 20 15  1  0  0  0  0
 20 22  1  0  0  0  0
 23 24  1  0  0  0  0
 23 52  1  0  0  0  0
 23  5  1  0  0  0  0
 25 23  1  0  0  0  0
 26  8  2  0  0  0  0
 26  2  1  0  0  0  0
 27 35  1  0  0  0  0
 28 27  1  0  0  0  0
 29 27  1  0  0  0  0
 30 39  2  0  0  0  0
 31 30  1  0  0  0  0
 32  5  1  0  0  0  0
 32 66  1  0  0  0  0
 32 34  1  0  0  0  0
 33 32  1  0  0  0  0
 35  7  1  0  0  0  0
 35 36  1  0  0  0  0
 35 15  1  0  0  0  0
 37 38  1  0  0  0  0
 37 59  1  0  0  0  0
 39 40  1  0  0  0  0
 39  8  1  0  0  0  0
 41 44  1  0  0  0  0
 41 42  1  0  0  0  0
 43 41  1  0  0  0  0
 45 37  1  0  0  0  0
 45 46  1  0  0  0  0
 47 45  1  0  0  0  0
 48 45  1  0  0  0  0
 49 20  1  0  0  0  0
 50 49  1  0  0  0  0
 51 49  1  0  0  0  0
 52 54  1  0  0  0  0
 53 52  1  0  0  0  0
 55 56  1  0  0  0  0
 55 58  1  0  0  0  0
 57 55  1  0  0  0  0
 59 61  1  0  0  0  0
 59 62  1  0  0  0  0
 60 59  1  0  0  0  0
 63 52  1  0  0  0  0
 63 65  1  0  0  0  0
 63 66  1  0  0  0  0
 64 63  1  0  0  0  0
 66 68  1  0  0  0  0
 67 66  1  0  0  0  0
M  END
$$$$
