CSD_code = XEPCAX | q = 0 | S = 0 | Stoichiometry = C15H16Cl2OTi | MND = 8
 OpenBabel04212202123D

 35 38  0  0  1  0  0  0  0  0999 V2000
    2.8404    7.3551    8.2597 Ti  0  0  0  0  0  0  0  0  0  0  0  0
    4.0660    9.1334    8.4040 Cl  0  0  0  0  0  0  0  0  0  0  0  0
    4.0576    6.2096    6.8846 Cl  0  0  0  0  0  0  0  0  0  0  0  0
    3.1251    6.5645    9.7798 O   0  0  0  0  0  0  0  0  0  0  0  0
    0.7165    6.9913    8.9736 C   0  0  2  0  0  3  0  0  0  0  0  0
    0.8877    6.3421    7.7184 C   0  0  1  0  0  0  0  0  0  0  0  0
    1.1237    7.3481    6.7369 C   0  0  0  0  0  0  0  0  0  0  0  0
    1.1267    8.6132    7.3934 C   0  0  0  0  0  0  0  0  0  0  0  0
    0.8934    8.3905    8.7816 C   0  0  2  0  0  0  0  0  0  0  0  0
    0.7673    4.8674    7.4725 C   0  0  0  0  0  0  0  0  0  0  0  0
   -0.1476    4.6461    6.9190 H   0  0  0  0  0  0  0  0  0  0  0  0
    0.7366    4.3298    8.4206 H   0  0  0  0  0  0  0  0  0  0  0  0
    1.6159    4.5043    6.8893 H   0  0  0  0  0  0  0  0  0  0  0  0
    1.2079    7.1101    5.2579 C   0  0  0  0  0  0  0  0  0  0  0  0
    1.6656    6.1435    5.0508 H   0  0  0  0  0  0  0  0  0  0  0  0
    1.8011    7.8824    4.7696 H   0  0  0  0  0  0  0  0  0  0  0  0
    0.2068    7.1181    4.8208 H   0  0  0  0  0  0  0  0  0  0  0  0
    1.2114    9.9605    6.7390 C   0  0  0  0  0  0  0  0  0  0  0  0
    0.2072   10.3441    6.5445 H   0  0  0  0  0  0  0  0  0  0  0  0
    1.7456    9.9033    5.7917 H   0  0  0  0  0  0  0  0  0  0  0  0
    1.7298   10.6689    7.3846 H   0  0  0  0  0  0  0  0  0  0  0  0
    0.7793    9.4423    9.8447 C   0  0  0  0  0  0  0  0  0  0  0  0
    1.6279   10.1278    9.7992 H   0  0  0  0  0  0  0  0  0  0  0  0
    0.7535    8.9787   10.8311 H   0  0  0  0  0  0  0  0  0  0  0  0
   -0.1358   10.0227    9.7103 H   0  0  0  0  0  0  0  0  0  0  0  0
    0.8516    6.3125   10.2807 C   0  0  0  0  0  0  0  0  0  0  0  0
    2.2084    6.1230   10.6371 C   0  0  0  0  0  0  0  0  0  0  0  0
    2.5225    5.4970   11.8414 C   0  0  0  0  0  0  0  0  0  0  0  0
    3.5599    5.3550   12.1080 H   0  0  0  0  0  0  0  0  0  0  0  0
    1.4994    5.0698   12.6716 C   0  0  0  0  0  0  0  0  0  0  0  0
    1.7448    4.5847   13.6045 H   0  0  0  0  0  0  0  0  0  0  0  0
    0.1726    5.2562   12.3214 C   0  0  0  0  0  0  0  0  0  0  0  0
   -0.6120    4.9173   12.9803 H   0  0  0  0  0  0  0  0  0  0  0  0
   -0.1534    5.8786   11.1238 C   0  0  0  0  0  0  0  0  0  0  0  0
   -1.1862    6.0271   10.8440 H   0  0  0  0  0  0  0  0  0  0  0  0
  1  2  1  0  0  0  0
  1  9  1  0  0  0  0
  1  4  1  0  0  0  0
  3  1  1  0  0  0  0
  4 27  1  0  0  0  0
  5 26  1  1  0  0  0
  6 10  1  6  0  0  0
  6  1  1  0  0  0  0
  6  5  1  0  0  0  0
  7  8  2  0  0  0  0
  7  6  1  0  0  0  0
  8  9  1  0  0  0  0
  9  5  1  0  0  0  0
  9 22  1  1  0  0  0
 10 12  1  0  0  0  0
 11 10  1  0  0  0  0
 13 10  1  0  0  0  0
 14  7  1  0  0  0  0
 15 14  1  0  0  0  0
 16 14  1  0  0  0  0
 17 14  1  0  0  0  0
 18 21  1  0  0  0  0
 18  8  1  0  0  0  0
 19 18  1  0  0  0  0
 20 18  1  0  0  0  0
 22 24  1  0  0  0  0
 23 22  1  0  0  0  0
 25 22  1  0  0  0  0
 26 27  2  0  0  0  0
 26 34  1  0  0  0  0
 27 28  1  0  0  0  0
 28 29  1  0  0  0  0
 28 30  2  0  0  0  0
 30 31  1  0  0  0  0
 32 30  1  0  0  0  0
 32 33  1  0  0  0  0
 34 32  2  0  0  0  0
 35 34  1  0  0  0  0
M  END
$$$$
