CSD_code = XEPFII | q = 0 | S = 0 | Stoichiometry = C26H26Cl3N4Ta | MND = 7
 OpenBabel04212202123D

 60 64  0  0  1  0  0  0  0  0999 V2000
   -0.2400    1.9299    4.5496 Ta  0  0  0  0  0  0  0  0  0  0  0  0
    0.2767    3.1242    2.6184 Cl  0  0  0  0  0  0  0  0  0  0  0  0
   -0.8562    0.6624    6.4083 Cl  0  0  0  0  0  0  0  0  0  0  0  0
   -0.2199    3.8439    5.8190 Cl  0  0  0  0  0  0  0  0  0  0  0  0
   -2.5373    2.6465    4.3972 N   0  0  0  0  0  0  0  0  0  0  0  0
   -2.8252    1.6306    3.5592 C   0  0  1  0  0  3  0  0  0  0  0  0
   -4.1114    1.5198    2.9879 C   0  0  0  0  0  0  0  0  0  0  0  0
   -4.3219    0.7250    2.2911 H   0  0  0  0  0  0  0  0  0  0  0  0
   -5.0563    2.4565    3.3260 C   0  0  0  0  0  0  0  0  0  0  0  0
   -6.0471    2.3996    2.9000 H   0  0  0  0  0  0  0  0  0  0  0  0
   -4.7398    3.4890    4.2145 C   0  0  0  0  0  0  0  0  0  0  0  0
   -5.4719    4.2288    4.4908 H   0  0  0  0  0  0  0  0  0  0  0  0
   -3.4590    3.5462    4.7184 C   0  0  0  0  0  0  0  0  0  0  0  0
   -3.1366    4.3252    5.3961 H   0  0  0  0  0  0  0  0  0  0  0  0
   -1.7374    0.8772    3.3631 N   0  0  0  0  0  0  0  0  0  0  0  0
   -1.8161   -0.2577    2.5414 C   0  0  0  0  0  0  0  0  0  0  0  0
   -2.7299   -1.2734    2.8107 C   0  0  0  0  0  0  0  0  0  0  0  0
   -3.3604   -1.1879    3.6848 H   0  0  0  0  0  0  0  0  0  0  0  0
   -2.8415   -2.3791    1.9841 C   0  0  0  0  0  0  0  0  0  0  0  0
   -2.0023   -2.4887    0.8714 C   0  0  0  0  0  0  0  0  0  0  0  0
   -1.0742   -1.4856    0.6249 C   0  0  0  0  0  0  0  0  0  0  0  0
   -0.4223   -1.5702   -0.2323 H   0  0  0  0  0  0  0  0  0  0  0  0
   -0.9781   -0.3737    1.4384 C   0  0  0  0  0  0  0  0  0  0  0  0
   -0.2724    0.4163    1.2293 H   0  0  0  0  0  0  0  0  0  0  0  0
   -3.8708   -3.4287    2.2781 C   0  0  0  0  0  0  0  0  0  0  0  0
   -4.4262   -3.1800    3.1784 H   0  0  0  0  0  0  0  0  0  0  0  0
   -3.4074   -4.4041    2.4192 H   0  0  0  0  0  0  0  0  0  0  0  0
   -4.5733   -3.5159    1.4496 H   0  0  0  0  0  0  0  0  0  0  0  0
   -2.1179   -3.6590   -0.0578 C   0  0  0  0  0  0  0  0  0  0  0  0
   -1.3295   -3.6348   -0.8054 H   0  0  0  0  0  0  0  0  0  0  0  0
   -3.0798   -3.6432   -0.5710 H   0  0  0  0  0  0  0  0  0  0  0  0
   -2.0565   -4.6010    0.4859 H   0  0  0  0  0  0  0  0  0  0  0  0
    2.1157    2.1144    5.1725 N   0  0  0  0  0  0  0  0  0  0  0  0
    2.3555    0.9158    4.6061 C   0  0  0  0  0  0  0  0  0  0  0  0
    3.6414    0.3398    4.6691 C   0  0  0  0  0  0  0  0  0  0  0  0
    3.8149   -0.6348    4.2429 H   0  0  0  0  0  0  0  0  0  0  0  0
    4.6387    1.0441    5.2988 C   0  0  0  0  0  0  0  0  0  0  0  0
    5.6325    0.6264    5.3655 H   0  0  0  0  0  0  0  0  0  0  0  0
    4.3718    2.2963    5.8588 C   0  0  0  0  0  0  0  0  0  0  0  0
    5.1444    2.8613    6.3523 H   0  0  0  0  0  0  0  0  0  0  0  0
    3.0863    2.7874    5.7762 C   0  0  0  0  0  0  0  0  0  0  0  0
    2.8014    3.7405    6.2008 H   0  0  0  0  0  0  0  0  0  0  0  0
    1.2245    0.4229    4.0822 N   0  0  0  0  0  0  0  0  0  0  0  0
    1.2477   -0.8242    3.4354 C   0  0  0  0  0  0  0  0  0  0  0  0
    0.4282   -1.8476    3.8990 C   0  0  0  0  0  0  0  0  0  0  0  0
   -0.2106   -1.6488    4.7480 H   0  0  0  0  0  0  0  0  0  0  0  0
    0.4368   -3.0969    3.3009 C   0  0  0  0  0  0  0  0  0  0  0  0
    1.2766   -3.3312    2.2071 C   0  0  0  0  0  0  0  0  0  0  0  0
    2.0746   -2.2981    1.7369 C   0  0  0  0  0  0  0  0  0  0  0  0
    2.7169   -2.4706    0.8848 H   0  0  0  0  0  0  0  0  0  0  0  0
    2.0708   -1.0543    2.3371 C   0  0  0  0  0  0  0  0  0  0  0  0
    2.6898   -0.2553    1.9563 H   0  0  0  0  0  0  0  0  0  0  0  0
   -0.4288   -4.1911    3.8438 C   0  0  0  0  0  0  0  0  0  0  0  0
   -1.0256   -4.6365    3.0511 H   0  0  0  0  0  0  0  0  0  0  0  0
   -1.0949   -3.8057    4.6100 H   0  0  0  0  0  0  0  0  0  0  0  0
    0.1842   -4.9803    4.2798 H   0  0  0  0  0  0  0  0  0  0  0  0
    1.3239   -4.6767    1.5504 C   0  0  0  0  0  0  0  0  0  0  0  0
    2.0524   -4.6855    0.7437 H   0  0  0  0  0  0  0  0  0  0  0  0
    0.3504   -4.9365    1.1383 H   0  0  0  0  0  0  0  0  0  0  0  0
    1.5953   -5.4472    2.2712 H   0  0  0  0  0  0  0  0  0  0  0  0
  1  4  1  0  0  0  0
  1  3  1  0  0  0  0
  2  1  1  0  0  0  0
  5  1  1  0  0  0  0
  5 13  1  0  0  0  0
  6  7  1  6  0  0  0
  6  5  1  0  0  0  0
  7  9  2  0  0  0  0
  8  7  1  0  0  0  0
  9 11  1  0  0  0  0
 10  9  1  0  0  0  0
 11 12  1  0  0  0  0
 11 13  2  0  0  0  0
 13 14  1  0  0  0  0
 15  6  1  0  0  0  0
 15  1  1  0  0  0  0
 16 17  1  0  0  0  0
 16 15  1  0  0  0  0
 17 18  1  0  0  0  0
 19 25  1  0  0  0  0
 19 17  2  0  0  0  0
 20 19  1  0  0  0  0
 21 20  2  0  0  0  0
 21 23  1  0  0  0  0
 22 21  1  0  0  0  0
 23 16  2  0  0  0  0
 24 23  1  0  0  0  0
 25 27  1  0  0  0  0
 25 26  1  0  0  0  0
 28 25  1  0  0  0  0
 29 32  1  0  0  0  0
 29 20  1  0  0  0  0
 30 29  1  0  0  0  0
 31 29  1  0  0  0  0
 33 41  1  0  0  0  0
 34 35  1  0  0  0  0
 34 33  2  0  0  0  0
 35 37  2  0  0  0  0
 36 35  1  0  0  0  0
 37 38  1  0  0  0  0
 37 39  1  0  0  0  0
 39 40  1  0  0  0  0
 41 39  2  0  0  0  0
 41 42  1  0  0  0  0
 43  1  1  0  0  0  0
 43 34  1  0  0  0  0
 44 45  1  0  0  0  0
 44 43  1  0  0  0  0
 45 46  1  0  0  0  0
 47 53  1  0  0  0  0
 47 45  2  0  0  0  0
 48 47  1  0  0  0  0
 49 48  2  0  0  0  0
 49 51  1  0  0  0  0
 50 49  1  0  0  0  0
 51 44  2  0  0  0  0
 52 51  1  0  0  0  0
 53 56  1  0  0  0  0
 53 55  1  0  0  0  0
 54 53  1  0  0  0  0
 57 48  1  0  0  0  0
 57 60  1  0  0  0  0
 58 57  1  0  0  0  0
 59 57  1  0  0  0  0
M  END
$$$$
