CSD_code = XEPFEE | q = 0 | S = 0 | Stoichiometry = C16H26ClN3O4Zn | MND = 5
 OpenBabel04212202123D

 51 55  0  0  1  0  0  0  0  0999 V2000
    4.2971    9.0936    3.0489 Zn  0  0  0  0  0  0  0  0  0  0  0  0
    5.7489   10.2870    4.0984 Cl  0  0  0  0  0  0  0  0  0  0  0  0
    2.0438    6.5111    5.4894 O   0  0  0  0  0  0  0  0  0  0  0  0
    1.3288   11.0155    0.8671 O   0  0  0  0  0  0  0  0  0  0  0  0
    4.8254    6.8958   -0.2051 O   0  0  0  0  0  0  0  0  0  0  0  0
    5.0740    8.2746    1.5197 O   0  0  0  0  0  0  0  0  0  0  0  0
    2.5082    7.8469    2.1847 N   0  0  1  0  0  4  0  0  0  0  0  0
    3.5840    7.8901    4.6742 N   0  0  2  0  0  0  0  0  0  0  0  0
    2.9615   10.5394    2.2968 N   0  0  2  0  0  0  0  0  0  0  0  0
    1.6449    7.4438    3.2767 C   0  0  0  0  0  0  0  0  0  0  0  0
    1.1050    6.5053    3.0788 H   0  0  0  0  0  0  0  0  0  0  0  0
    0.9072    8.2286    3.4737 H   0  0  0  0  0  0  0  0  0  0  0  0
    2.4761    7.2941    4.5063 C   0  0  2  0  0  3  0  0  0  0  0  0
    3.0358    6.5630    6.5228 C   0  0  0  0  0  0  0  0  0  0  0  0
    3.4410    5.5577    6.6584 H   0  0  0  0  0  0  0  0  0  0  0  0
    2.5491    6.8825    7.4453 H   0  0  0  0  0  0  0  0  0  0  0  0
    4.0878    7.5754    6.0016 C   0  0  2  0  0  0  0  0  0  0  0  0
    5.0733    7.1121    5.8938 H   0  0  0  0  0  0  0  0  0  0  0  0
    4.2521    8.8485    6.8522 C   0  0  0  0  0  0  0  0  0  0  0  0
    4.9731    9.4767    6.3208 H   0  0  0  0  0  0  0  0  0  0  0  0
    2.9501    9.6356    6.9732 C   0  0  0  0  0  0  0  0  0  0  0  0
    3.1292   10.5413    7.5456 H   0  0  0  0  0  0  0  0  0  0  0  0
    2.1711    9.0652    7.4771 H   0  0  0  0  0  0  0  0  0  0  0  0
    2.5946    9.9255    5.9865 H   0  0  0  0  0  0  0  0  0  0  0  0
    4.8222    8.4970    8.2231 C   0  0  0  0  0  0  0  0  0  0  0  0
    5.0235    9.4085    8.7787 H   0  0  0  0  0  0  0  0  0  0  0  0
    5.7554    7.9496    8.1199 H   0  0  0  0  0  0  0  0  0  0  0  0
    4.1284    7.8909    8.8027 H   0  0  0  0  0  0  0  0  0  0  0  0
    1.8590    8.6700    1.1821 C   0  0  0  0  0  0  0  0  0  0  0  0
    0.7837    8.4692    1.0813 H   0  0  0  0  0  0  0  0  0  0  0  0
    2.3222    8.4800    0.2074 H   0  0  0  0  0  0  0  0  0  0  0  0
    2.0803   10.1122    1.4872 C   0  0  2  0  0  3  0  0  0  0  0  0
    1.7889   12.3023    1.2962 C   0  0  0  0  0  0  0  0  0  0  0  0
    0.9562   12.8218    1.7757 H   0  0  0  0  0  0  0  0  0  0  0  0
    2.1027   12.8617    0.4135 H   0  0  0  0  0  0  0  0  0  0  0  0
    2.9565   11.9943    2.2673 C   0  0  2  0  0  0  0  0  0  0  0  0
    2.7433   12.3545    3.2796 H   0  0  0  0  0  0  0  0  0  0  0  0
    4.3256   12.5572    1.8414 C   0  0  0  0  0  0  0  0  0  0  0  0
    5.0359   12.2410    2.6103 H   0  0  0  0  0  0  0  0  0  0  0  0
    4.7973   11.9919    0.5046 C   0  0  0  0  0  0  0  0  0  0  0  0
    4.9281   10.9135    0.5713 H   0  0  0  0  0  0  0  0  0  0  0  0
    5.7597   12.4267    0.2496 H   0  0  0  0  0  0  0  0  0  0  0  0
    4.1012   12.2147   -0.3028 H   0  0  0  0  0  0  0  0  0  0  0  0
    4.2812   14.0831    1.8229 C   0  0  0  0  0  0  0  0  0  0  0  0
    5.2778   14.4728    1.6364 H   0  0  0  0  0  0  0  0  0  0  0  0
    3.9386   14.4695    2.7798 H   0  0  0  0  0  0  0  0  0  0  0  0
    3.6203   14.4557    1.0427 H   0  0  0  0  0  0  0  0  0  0  0  0
    3.2468    6.7436    1.5941 C   0  0  0  0  0  0  0  0  0  0  0  0
    2.6478    6.1571    0.8866 H   0  0  0  0  0  0  0  0  0  0  0  0
    3.6113    6.0878    2.3869 H   0  0  0  0  0  0  0  0  0  0  0  0
    4.5061    7.3403    0.8753 C   0  0  0  0  0  0  0  0  0  0  0  0
  1  2  1  0  0  0  0
  3 14  1  0  0  0  0
  4 33  1  0  0  0  0
  5 51  2  0  0  0  0
  6  1  1  0  0  0  0
  7 29  1  6  0  0  0
  7  1  1  0  0  0  0
  7 10  1  0  0  0  0
  8  1  1  1  0  0  0
  8 17  1  0  0  0  0
  9  1  1  6  0  0  0
 10 12  1  0  0  0  0
 10 13  1  0  0  0  0
 11 10  1  0  0  0  0
 13  8  1  0  0  0  0
 13  3  1  1  0  0  0
 14 15  1  0  0  0  0
 14 16  1  0  0  0  0
 17 18  1  6  0  0  0
 17 14  1  0  0  0  0
 17 19  1  0  0  0  0
 19 21  1  0  0  0  0
 19 25  1  0  0  0  0
 20 19  1  0  0  0  0
 21 23  1  0  0  0  0
 21 22  1  0  0  0  0
 24 21  1  0  0  0  0
 25 26  1  0  0  0  0
 25 28  1  0  0  0  0
 27 25  1  0  0  0  0
 29 32  1  0  0  0  0
 30 29  1  0  0  0  0
 31 29  1  0  0  0  0
 32  4  1  6  0  0  0
 32  9  1  0  0  0  0
 33 34  1  0  0  0  0
 33 36  1  0  0  0  0
 35 33  1  0  0  0  0
 36  9  1  0  0  0  0
 36 37  1  1  0  0  0
 38 36  1  0  0  0  0
 38 39  1  0  0  0  0
 40 41  1  0  0  0  0
 40 38  1  0  0  0  0
 42 40  1  0  0  0  0
 43 40  1  0  0  0  0
 44 38  1  0  0  0  0
 44 46  1  0  0  0  0
 45 44  1  0  0  0  0
 47 44  1  0  0  0  0
 48  7  1  0  0  0  0
 48 50  1  0  0  0  0
 49 48  1  0  0  0  0
 51  6  1  0  0  0  0
 51 48  1  0  0  0  0
M  END
$$$$
