CSD_code = XEQMUD | q = 1 | S = 0 | Stoichiometry = C24H16Cl2N4Rh(1+) | MND = 6
 OpenBabel04212202123D

 47 54  0  0  0  0  0  0  0  0999 V2000
    7.7124   -4.8981   11.3665 Rh  0  0  0  0  0  0  0  0  0  0  0  0
    6.9581   -5.0485   13.5047 Cl  0  0  0  0  0  0  0  0  0  0  0  0
    5.7291   -4.0705   10.6294 Cl  0  0  0  0  0  0  0  0  0  0  0  0
    8.2837   -4.8405    9.3848 N   0  0  0  0  0  0  0  0  0  0  0  0
    6.9732   -6.6658   10.8066 N   0  0  0  0  0  0  0  0  0  0  0  0
    9.5169   -5.5419   12.1335 N   0  0  0  0  0  0  0  0  0  0  0  0
    8.4270   -3.1240   11.9378 N   0  0  0  0  0  0  0  0  0  0  0  0
    8.9190   -3.9031    8.7079 C   0  0  0  0  0  0  0  0  0  0  0  0
    9.3547   -3.0913    9.2758 H   0  0  0  0  0  0  0  0  0  0  0  0
    9.0364   -3.9316    7.3167 C   0  0  0  0  0  0  0  0  0  0  0  0
    9.5642   -3.1364    6.8155 H   0  0  0  0  0  0  0  0  0  0  0  0
    8.4713   -4.9648    6.6052 C   0  0  0  0  0  0  0  0  0  0  0  0
    8.5405   -5.0048    5.5289 H   0  0  0  0  0  0  0  0  0  0  0  0
    7.7867   -5.9752    7.3001 C   0  0  0  0  0  0  0  0  0  0  0  0
    7.1496   -7.0849    6.6717 C   0  0  0  0  0  0  0  0  0  0  0  0
    7.2040   -7.1590    5.5966 H   0  0  0  0  0  0  0  0  0  0  0  0
    6.4845   -8.0177    7.3975 C   0  0  0  0  0  0  0  0  0  0  0  0
    5.9987   -8.8498    6.9117 H   0  0  0  0  0  0  0  0  0  0  0  0
    6.3948   -7.9265    8.8176 C   0  0  0  0  0  0  0  0  0  0  0  0
    5.7003   -8.8462    9.6220 C   0  0  0  0  0  0  0  0  0  0  0  0
    5.1957   -9.6842    9.1662 H   0  0  0  0  0  0  0  0  0  0  0  0
    5.6685   -8.6489   10.9825 C   0  0  0  0  0  0  0  0  0  0  0  0
    5.1391   -9.3287   11.6304 H   0  0  0  0  0  0  0  0  0  0  0  0
    6.3145   -7.5432   11.5420 C   0  0  0  0  0  0  0  0  0  0  0  0
    6.2819   -7.3600   12.6090 H   0  0  0  0  0  0  0  0  0  0  0  0
    7.0193   -6.8428    9.4663 C   0  0  0  0  0  0  0  0  0  0  0  0
    7.7206   -5.8619    8.7040 C   0  0  0  0  0  0  0  0  0  0  0  0
   10.0148   -6.7595   12.2326 C   0  0  0  0  0  0  0  0  0  0  0  0
    9.4960   -7.5510   11.7075 H   0  0  0  0  0  0  0  0  0  0  0  0
   11.1602   -7.0430   12.9794 C   0  0  0  0  0  0  0  0  0  0  0  0
   11.5202   -8.0580   13.0282 H   0  0  0  0  0  0  0  0  0  0  0  0
   11.8068   -6.0295   13.6484 C   0  0  0  0  0  0  0  0  0  0  0  0
   12.6885   -6.2244   14.2394 H   0  0  0  0  0  0  0  0  0  0  0  0
   11.2971   -4.7235   13.5623 C   0  0  0  0  0  0  0  0  0  0  0  0
   11.8712   -3.5978   14.2223 C   0  0  0  0  0  0  0  0  0  0  0  0
   12.7579   -3.7561   14.8166 H   0  0  0  0  0  0  0  0  0  0  0  0
   11.3182   -2.3640   14.1183 C   0  0  0  0  0  0  0  0  0  0  0  0
   11.7558   -1.5195   14.6279 H   0  0  0  0  0  0  0  0  0  0  0  0
   10.1400   -2.1425   13.3459 C   0  0  0  0  0  0  0  0  0  0  0  0
    9.5058   -0.8947   13.2203 C   0  0  0  0  0  0  0  0  0  0  0  0
    9.9129   -0.0324   13.7255 H   0  0  0  0  0  0  0  0  0  0  0  0
    8.3634   -0.8026   12.4603 C   0  0  0  0  0  0  0  0  0  0  0  0
    7.8448    0.1358   12.3479 H   0  0  0  0  0  0  0  0  0  0  0  0
    7.8486   -1.9412   11.8344 C   0  0  0  0  0  0  0  0  0  0  0  0
    6.9378   -1.8919   11.2502 H   0  0  0  0  0  0  0  0  0  0  0  0
    9.5536   -3.2361   12.6784 C   0  0  0  0  0  0  0  0  0  0  0  0
   10.1360   -4.5340   12.7852 C   0  0  0  0  0  0  0  0  0  0  0  0
  1  7  1  0  0  0  0
  1  6  1  0  0  0  0
  1  2  1  0  0  0  0
  3  1  1  0  0  0  0
  4  1  1  0  0  0  0
  5  1  1  0  0  0  0
  5 24  1  0  0  0  0
  6 28  1  0  0  0  0
  6 47  1  0  0  0  0
  7 46  1  0  0  0  0
  8  9  1  0  0  0  0
  8  4  1  0  0  0  0
 10  8  2  0  0  0  0
 11 10  1  0  0  0  0
 12 14  2  0  0  0  0
 12 10  1  0  0  0  0
 13 12  1  0  0  0  0
 14 27  1  0  0  0  0
 15 14  1  0  0  0  0
 15 17  2  0  0  0  0
 16 15  1  0  0  0  0
 17 19  1  0  0  0  0
 18 17  1  0  0  0  0
 19 26  1  0  0  0  0
 19 20  2  0  0  0  0
 20 22  1  0  0  0  0
 21 20  1  0  0  0  0
 22 24  2  0  0  0  0
 22 23  1  0  0  0  0
 24 25  1  0  0  0  0
 26  5  1  0  0  0  0
 27  4  1  0  0  0  0
 27 26  2  0  0  0  0
 28 30  2  0  0  0  0
 29 28  1  0  0  0  0
 30 31  1  0  0  0  0
 30 32  1  0  0  0  0
 32 33  1  0  0  0  0
 34 32  2  0  0  0  0
 34 35  1  0  0  0  0
 35 36  1  0  0  0  0
 37 35  2  0  0  0  0
 37 38  1  0  0  0  0
 39 37  1  0  0  0  0
 40 39  2  0  0  0  0
 40 41  1  0  0  0  0
 42 40  1  0  0  0  0
 43 42  1  0  0  0  0
 44  7  1  0  0  0  0
 44 42  2  0  0  0  0
 45 44  1  0  0  0  0
 46 47  2  0  0  0  0
 46 39  1  0  0  0  0
 47 34  1  0  0  0  0
M  END
$$$$
