CSD_code = XEQXUN | q = 0 | S = 0 | Stoichiometry = C16H12Cl2N2Zn | MND = 4
 OpenBabel04212202123D

 33 36  0  0  1  0  0  0  0  0999 V2000
    1.9199    4.5420    6.8307 Zn  0  0  0  0  0  0  0  0  0  0  0  0
    0.1366    3.7747    5.7915 Cl  0  0  0  0  0  0  0  0  0  0  0  0
    3.9360    5.1596    6.2361 Cl  0  0  0  0  0  0  0  0  0  0  0  0
    0.9018    5.6749    8.3512 N   0  0  0  0  0  0  0  0  0  0  0  0
    3.4226    1.7321    9.8712 C   0  0  0  0  0  0  0  0  0  0  0  0
    2.2561    3.3561    8.5643 N   0  0  0  0  0  0  0  0  0  0  0  0
    0.7068    4.9402    9.4496 C   0  0  2  0  0  3  0  0  0  0  0  0
    3.1156    2.3618    8.6629 C   0  0  0  0  0  3  0  0  0  0  0  0
    3.5757    2.0425    7.7382 H   0  0  0  0  0  0  0  0  0  0  0  0
    1.6246    3.8091    9.6499 C   0  0  0  0  0  0  0  0  0  0  0  0
    4.4025    0.6440    9.9270 C   0  0  0  0  0  0  0  0  0  0  0  0
    1.8621    3.2396   10.9003 C   0  0  0  0  0  0  0  0  0  0  0  0
    1.3747    3.6252   11.7814 H   0  0  0  0  0  0  0  0  0  0  0  0
    5.1227   -1.4802   10.8050 C   0  0  0  0  0  0  0  0  0  0  0  0
    4.9486   -2.3316   11.4460 H   0  0  0  0  0  0  0  0  0  0  0  0
    2.7640    2.1988   11.0090 C   0  0  0  0  0  0  0  0  0  0  0  0
    2.9785    1.7661   11.9749 H   0  0  0  0  0  0  0  0  0  0  0  0
   -0.9073    7.0910    8.9620 C   0  0  0  0  0  0  0  0  0  0  0  0
   -1.5179    7.9488    8.7320 H   0  0  0  0  0  0  0  0  0  0  0  0
    0.1235    6.7177    8.1145 C   0  0  0  0  0  0  0  0  0  0  0  0
    0.3364    7.2717    7.2109 H   0  0  0  0  0  0  0  0  0  0  0  0
    5.5570    0.6970    9.1467 C   0  0  0  0  0  0  0  0  0  0  0  0
    5.7381    1.5545    8.5163 H   0  0  0  0  0  0  0  0  0  0  0  0
   -0.3203    5.2369   10.3442 C   0  0  0  0  0  0  0  0  0  0  0  0
   -0.4951    4.6130   11.2055 H   0  0  0  0  0  0  0  0  0  0  0  0
    4.1969   -0.4547   10.7597 C   0  0  0  0  0  0  0  0  0  0  0  0
    3.2949   -0.5181   11.3507 H   0  0  0  0  0  0  0  0  0  0  0  0
   -1.1387    6.3243   10.0929 C   0  0  0  0  0  0  0  0  0  0  0  0
   -1.9467    6.5652   10.7671 H   0  0  0  0  0  0  0  0  0  0  0  0
    6.2690   -1.4177   10.0298 C   0  0  0  0  0  0  0  0  0  0  0  0
    6.9923   -2.2181   10.0689 H   0  0  0  0  0  0  0  0  0  0  0  0
    6.4843   -0.3263    9.2040 C   0  0  0  0  0  0  0  0  0  0  0  0
    7.3784   -0.2720    8.6016 H   0  0  0  0  0  0  0  0  0  0  0  0
  1  4  1  0  0  0  0
  1  6  1  0  0  0  0
  2  1  1  0  0  0  0
  3  1  1  0  0  0  0
  4  7  1  0  0  0  0
  5 11  1  0  0  0  0
  5 16  2  0  0  0  0
  6  8  1  0  0  0  0
  6 10  1  0  0  0  0
  7 10  1  6  0  0  0
  7 24  1  0  0  0  0
  8  5  1  0  0  0  0
  9  8  1  0  0  0  0
 10 12  2  0  0  0  0
 11 26  1  0  0  0  0
 12 16  1  0  0  0  0
 12 13  1  0  0  0  0
 14 15  1  0  0  0  0
 16 17  1  0  0  0  0
 18 28  1  0  0  0  0
 19 18  1  0  0  0  0
 20  4  1  0  0  0  0
 20 18  2  0  0  0  0
 21 20  1  0  0  0  0
 22 32  1  0  0  0  0
 22 11  2  0  0  0  0
 23 22  1  0  0  0  0
 24 25  1  0  0  0  0
 26 14  2  0  0  0  0
 26 27  1  0  0  0  0
 28 24  2  0  0  0  0
 28 29  1  0  0  0  0
 30 31  1  0  0  0  0
 30 14  1  0  0  0  0
 32 30  2  0  0  0  0
 33 32  1  0  0  0  0
M  END
$$$$
