CSD_code = XERBEE | q = 0 | S = 0 | Stoichiometry = C34H29ClNOPPd | MND = 4
 OpenBabel04212202123D

 68 74  0  0  1  0  0  0  0  0999 V2000
    6.8559    7.0782    5.1965 Pd  0  0  1  0  0  0  0  0  0  0  0  0
    7.5562    7.7158    7.1739 O   0  0  0  0  0  0  0  0  0  0  0  0
    6.5389    6.5141    3.1008 P   0  0  0  0  0  4  0  0  0  0  0  0
    7.1635    4.8367    5.6830 Cl  0  0  0  0  0  0  0  0  0  0  0  0
    6.5404    9.0996    5.0069 C   0  0  0  0  0  0  0  0  0  0  0  0
    7.4684    9.6818    5.1093 H   0  0  0  0  0  0  0  0  0  0  0  0
    5.9454    9.5432    4.2034 H   0  0  0  0  0  0  0  0  0  0  0  0
    5.7580    9.1065    6.3354 C   0  0  1  0  0  0  0  0  0  0  0  0
    6.8111    8.6774    7.3263 C   0  0  2  0  0  3  0  0  0  0  0  0
    6.8837    9.5705    8.3386 N   0  0  0  0  0  0  0  0  0  0  0  0
    7.8218    9.4873    9.4262 C   0  0  0  0  0  0  0  0  0  0  0  0
    8.4054    8.5776    9.2889 H   0  0  0  0  0  0  0  0  0  0  0  0
    7.2944    9.4424   10.3810 H   0  0  0  0  0  0  0  0  0  0  0  0
    8.4896   10.3513    9.4229 H   0  0  0  0  0  0  0  0  0  0  0  0
    5.9996   10.6268    8.1114 C   0  0  0  0  0  0  0  0  0  0  0  0
    5.7952   11.7521    8.8843 C   0  0  0  0  0  0  0  0  0  0  0  0
    6.3377   11.9109    9.8032 H   0  0  0  0  0  0  0  0  0  0  0  0
    4.8632   12.6788    8.4369 C   0  0  0  0  0  0  0  0  0  0  0  0
    4.6825   13.5686    9.0210 H   0  0  0  0  0  0  0  0  0  0  0  0
    4.1661   12.4803    7.2572 C   0  0  0  0  0  0  0  0  0  0  0  0
    3.4486   13.2181    6.9316 H   0  0  0  0  0  0  0  0  0  0  0  0
    4.3775   11.3443    6.4852 C   0  0  0  0  0  0  0  0  0  0  0  0
    3.8304   11.1968    5.5671 H   0  0  0  0  0  0  0  0  0  0  0  0
    5.3005   10.4166    6.9149 C   0  0  0  0  0  0  0  0  0  0  0  0
    4.6343    8.0778    6.2149 C   0  0  0  0  0  0  0  0  0  0  0  0
    4.4930    7.0350    7.1375 C   0  0  0  0  0  0  0  0  0  0  0  0
    5.1874    6.9262    7.9624 H   0  0  0  0  0  0  0  0  0  0  0  0
    3.4428    6.1376    7.0243 C   0  0  0  0  0  0  0  0  0  0  0  0
    3.3577    5.3293    7.7350 H   0  0  0  0  0  0  0  0  0  0  0  0
    2.5075    6.2762    6.0123 C   0  0  0  0  0  0  0  0  0  0  0  0
    1.6883    5.5774    5.9311 H   0  0  0  0  0  0  0  0  0  0  0  0
    2.6300    7.3149    5.1042 C   0  0  0  0  0  0  0  0  0  0  0  0
    1.9044    7.4325    4.3125 H   0  0  0  0  0  0  0  0  0  0  0  0
    3.6834    8.2074    5.2000 C   0  0  0  0  0  0  0  0  0  0  0  0
    3.7615    9.0119    4.4832 H   0  0  0  0  0  0  0  0  0  0  0  0
    5.7479    4.9025    2.8374 C   0  0  0  0  0  0  0  0  0  0  0  0
    4.6832    4.6055    3.6845 C   0  0  0  0  0  0  0  0  0  0  0  0
    4.4195    5.3161    4.4610 H   0  0  0  0  0  0  0  0  0  0  0  0
    4.0092    3.4076    3.5564 C   0  0  0  0  0  0  0  0  0  0  0  0
    3.1889    3.1759    4.2196 H   0  0  0  0  0  0  0  0  0  0  0  0
    4.4012    2.4955    2.5882 C   0  0  0  0  0  0  0  0  0  0  0  0
    3.8824    1.5528    2.4931 H   0  0  0  0  0  0  0  0  0  0  0  0
    5.4690    2.7829    1.7558 C   0  0  0  0  0  0  0  0  0  0  0  0
    5.7840    2.0638    1.0135 H   0  0  0  0  0  0  0  0  0  0  0  0
    6.1459    3.9853    1.8754 C   0  0  0  0  0  0  0  0  0  0  0  0
    6.9912    4.1968    1.2370 H   0  0  0  0  0  0  0  0  0  0  0  0
    5.5920    7.6183    2.0064 C   0  0  0  0  0  0  0  0  0  0  0  0
    4.2648    7.3661    1.6792 C   0  0  0  0  0  0  0  0  0  0  0  0
    3.7938    6.4549    2.0204 H   0  0  0  0  0  0  0  0  0  0  0  0
    3.5540    8.2769    0.9166 C   0  0  0  0  0  0  0  0  0  0  0  0
    2.5237    8.0754    0.6617 H   0  0  0  0  0  0  0  0  0  0  0  0
    4.1589    9.4438    0.4805 C   0  0  0  0  0  0  0  0  0  0  0  0
    3.6018   10.1524   -0.1146 H   0  0  0  0  0  0  0  0  0  0  0  0
    5.4802    9.7038    0.8113 C   0  0  0  0  0  0  0  0  0  0  0  0
    5.9523   10.6156    0.4753 H   0  0  0  0  0  0  0  0  0  0  0  0
    6.1918    8.7995    1.5760 C   0  0  0  0  0  0  0  0  0  0  0  0
    7.2202    8.9974    1.8494 H   0  0  0  0  0  0  0  0  0  0  0  0
    8.1735    6.4391    2.3150 C   0  0  0  0  0  0  0  0  0  0  0  0
    9.2868    6.4610    3.1528 C   0  0  0  0  0  0  0  0  0  0  0  0
    9.1414    6.5241    4.2387 H   0  0  0  0  0  0  0  0  0  0  0  0
   10.5586    6.3934    2.6120 C   0  0  0  0  0  0  0  0  0  0  0  0
   11.4226    6.4037    3.2599 H   0  0  0  0  0  0  0  0  0  0  0  0
   10.7244    6.3134    1.2384 C   0  0  0  0  0  0  0  0  0  0  0  0
   11.7173    6.2596    0.8166 H   0  0  0  0  0  0  0  0  0  0  0  0
    9.6194    6.3102    0.4017 C   0  0  0  0  0  0  0  0  0  0  0  0
    9.7525    6.2584   -0.6692 H   0  0  0  0  0  0  0  0  0  0  0  0
    8.3445    6.3747    0.9346 C   0  0  0  0  0  0  0  0  0  0  0  0
    7.4800    6.3913    0.2840 H   0  0  0  0  0  0  0  0  0  0  0  0
  1  4  1  1  0  0  0
  1  2  1  0  0  0  0
  3  1  1  0  0  0  0
  5  6  1  0  0  0  0
  5  1  1  0  0  0  0
  5  8  1  0  0  0  0
  7  5  1  0  0  0  0
  8 25  1  6  0  0  0
  8 24  1  0  0  0  0
  8  9  1  0  0  0  0
  9  2  1  6  0  0  0
  9 10  1  0  0  0  0
 10 11  1  0  0  0  0
 11 13  1  0  0  0  0
 12 11  1  0  0  0  0
 14 11  1  0  0  0  0
 15 10  1  0  0  0  0
 15 16  1  0  0  0  0
 16 17  1  0  0  0  0
 18 16  2  0  0  0  0
 18 19  1  0  0  0  0
 20 18  1  0  0  0  0
 21 20  1  0  0  0  0
 22 24  1  0  0  0  0
 22 20  2  0  0  0  0
 23 22  1  0  0  0  0
 24 15  2  0  0  0  0
 25 26  1  0  0  0  0
 26 27  1  0  0  0  0
 28 26  2  0  0  0  0
 28 29  1  0  0  0  0
 30 28  1  0  0  0  0
 31 30  1  0  0  0  0
 32 34  1  0  0  0  0
 32 30  2  0  0  0  0
 33 32  1  0  0  0  0
 34 25  2  0  0  0  0
 35 34  1  0  0  0  0
 36  3  1  0  0  0  0
 36 37  1  0  0  0  0
 37 38  1  0  0  0  0
 39 37  2  0  0  0  0
 39 40  1  0  0  0  0
 41 39  1  0  0  0  0
 42 41  1  0  0  0  0
 43 45  1  0  0  0  0
 43 41  2  0  0  0  0
 44 43  1  0  0  0  0
 45 36  2  0  0  0  0
 46 45  1  0  0  0  0
 47  3  1  0  0  0  0
 48 47  1  0  0  0  0
 48 49  1  0  0  0  0
 50 48  2  0  0  0  0
 51 50  1  0  0  0  0
 52 54  2  0  0  0  0
 52 50  1  0  0  0  0
 53 52  1  0  0  0  0
 54 56  1  0  0  0  0
 55 54  1  0  0  0  0
 56 57  1  0  0  0  0
 56 47  2  0  0  0  0
 58  3  1  0  0  0  0
 58 59  1  0  0  0  0
 59 60  1  0  0  0  0
 61 59  2  0  0  0  0
 61 62  1  0  0  0  0
 63 61  1  0  0  0  0
 64 63  1  0  0  0  0
 65 67  1  0  0  0  0
 65 63  2  0  0  0  0
 66 65  1  0  0  0  0
 67 58  2  0  0  0  0
 68 67  1  0  0  0  0
M  END
$$$$
