CSD_code = XERGEG | q = 0 | S = 0 | Stoichiometry = C26H23ClO2Zr | MND = 13
 OpenBabel04212202123D

 53 56  0  0  1  0  0  0  0  0999 V2000
    6.6958    4.9685   15.8359 Zr  0  0  1  0  0  0  0  0  0  0  0  0
    7.2620    7.3557   16.0799 Cl  0  0  0  0  0  0  0  0  0  0  0  0
    6.0318    5.8998   14.1176 O   0  0  0  0  0  0  0  0  0  0  0  0
    4.3887    6.0657   12.6109 O   0  0  0  0  0  0  0  0  0  0  0  0
    5.1524    5.3409   13.4110 C   0  0  0  0  0  0  0  0  0  0  0  0
    4.9821    3.9201   13.4655 C   0  0  0  0  0  0  0  0  0  0  0  0
    5.7321    3.3233   14.4587 C   0  0  1  0  0  3  0  0  0  0  0  0
    4.6182    7.4718   12.6280 C   0  0  0  0  0  0  0  0  0  0  0  0
    5.8612    1.8696   14.4196 C   0  0  0  0  0  0  0  0  0  0  0  0
    6.3185    1.2845   13.2291 C   0  0  0  0  0  0  0  0  0  0  0  0
    6.5663   -0.0701   13.1477 C   0  0  0  0  0  0  0  0  0  0  0  0
    6.3467   -0.8895   14.2431 C   0  0  0  0  0  0  0  0  0  0  0  0
    5.8924   -0.3307   15.4263 C   0  0  0  0  0  0  0  0  0  0  0  0
    5.6674    1.0292   15.5213 C   0  0  0  0  0  0  0  0  0  0  0  0
    4.0768    3.2396   12.5142 C   0  0  0  0  0  0  0  0  0  0  0  0
    4.1004    3.5444   11.1559 C   0  0  0  0  0  0  0  0  0  0  0  0
    3.2718    2.8771   10.2731 C   0  0  0  0  0  0  0  0  0  0  0  0
    2.4076    1.8973   10.7318 C   0  0  0  0  0  0  0  0  0  0  0  0
    2.3760    1.5883   12.0812 C   0  0  0  0  0  0  0  0  0  0  0  0
    3.2041    2.2528   12.9656 C   0  0  0  0  0  0  0  0  0  0  0  0
    9.0908    5.0013   15.1529 C   0  0  0  0  0  0  0  0  0  0  0  0
    8.6181    3.7158   14.8052 C   0  0  0  0  0  0  0  0  0  0  0  0
    8.3471    3.0153   16.0045 C   0  0  0  0  0  0  0  0  0  0  0  0
    8.6414    3.8689   17.0859 C   0  0  0  0  0  0  0  0  0  0  0  0
    9.1120    5.0897   16.5625 C   0  0  0  0  0  3  0  0  0  0  0  0
    4.2115    5.3640   16.5940 C   0  0  0  0  0  0  0  0  0  0  0  0
    4.4908    3.9889   16.7682 C   0  0  0  0  0  0  0  0  0  0  0  0
    5.5196    3.8716   17.7337 C   0  0  0  0  0  0  0  0  0  0  0  0
    5.8670    5.1771   18.1556 C   0  0  2  0  0  0  0  0  0  0  0  0
    5.0338    6.0892   17.4681 C   0  0  0  0  0  0  0  0  0  0  0  0
    5.5890    7.7018   12.1838 H   0  0  0  0  0  0  0  0  0  0  0  0
    3.8153    7.9126   12.0429 H   0  0  0  0  0  0  0  0  0  0  0  0
    4.6083    7.8480   13.6543 H   0  0  0  0  0  0  0  0  0  0  0  0
    6.4937    1.9157   12.3692 H   0  0  0  0  0  0  0  0  0  0  0  0
    6.9234   -0.4920   12.2196 H   0  0  0  0  0  0  0  0  0  0  0  0
    6.5284   -1.9513   14.1758 H   0  0  0  0  0  0  0  0  0  0  0  0
    5.7171   -0.9604   16.2868 H   0  0  0  0  0  0  0  0  0  0  0  0
    5.3145    1.4395   16.4554 H   0  0  0  0  0  0  0  0  0  0  0  0
    4.7811    4.2985   10.7889 H   0  0  0  0  0  0  0  0  0  0  0  0
    3.3036    3.1197    9.2208 H   0  0  0  0  0  0  0  0  0  0  0  0
    1.7623    1.3763   10.0402 H   0  0  0  0  0  0  0  0  0  0  0  0
    1.7030    0.8264   12.4462 H   0  0  0  0  0  0  0  0  0  0  0  0
    3.1738    2.0101   14.0177 H   0  0  0  0  0  0  0  0  0  0  0  0
    9.4694    5.7524   14.4684 H   0  0  0  0  0  0  0  0  0  0  0  0
    8.6085    3.2903   13.8080 H   0  0  0  0  0  0  0  0  0  0  0  0
    8.0909    1.9674   16.0765 H   0  0  0  0  0  0  0  0  0  0  0  0
    8.6590    3.5831   18.1308 H   0  0  0  0  0  0  0  0  0  0  0  0
    9.5063    5.9196   17.1353 H   0  0  0  0  0  0  0  0  0  0  0  0
    3.4109    5.7706   15.9869 H   0  0  0  0  0  0  0  0  0  0  0  0
    3.8832    3.1858   16.3751 H   0  0  0  0  0  0  0  0  0  0  0  0
    5.8593    2.9519   18.1957 H   0  0  0  0  0  0  0  0  0  0  0  0
    6.5369    5.4339   18.9701 H   0  0  0  0  0  0  0  0  0  0  0  0
    4.9933    7.1558   17.6412 H   0  0  0  0  0  0  0  0  0  0  0  0
  1  2  1  6  0  0  0
  1 29  1  0  0  0  0
  3  1  1  0  0  0  0
  4  8  1  0  0  0  0
  4  5  1  0  0  0  0
  5  6  2  0  0  0  0
  5  3  1  0  0  0  0
  6  7  1  0  0  0  0
  7  9  1  6  0  0  0
  7  1  1  0  0  0  0
  8 33  1  0  0  0  0
  9 14  1  0  0  0  0
 10  9  2  0  0  0  0
 11 10  1  0  0  0  0
 11 12  2  0  0  0  0
 12 13  1  0  0  0  0
 13 14  2  0  0  0  0
 13 37  1  0  0  0  0
 14 38  1  0  0  0  0
 15 20  1  0  0  0  0
 15  6  1  0  0  0  0
 16 15  2  0  0  0  0
 17 18  2  0  0  0  0
 17 16  1  0  0  0  0
 18 19  1  0  0  0  0
 19 42  1  0  0  0  0
 19 20  2  0  0  0  0
 20 43  1  0  0  0  0
 21 25  1  0  0  0  0
 22 21  2  0  0  0  0
 22 23  1  0  0  0  0
 23 46  1  0  0  0  0
 23 24  2  0  0  0  0
 24 47  1  0  0  0  0
 25 24  1  0  0  0  0
 25 48  1  0  0  0  0
 26 27  1  0  0  0  0
 26 30  2  0  0  0  0
 27 28  2  0  0  0  0
 28 29  1  0  0  0  0
 28 51  1  0  0  0  0
 29 52  1  1  0  0  0
 30 53  1  0  0  0  0
 30 29  1  0  0  0  0
 31  8  1  0  0  0  0
 32  8  1  0  0  0  0
 34 10  1  0  0  0  0
 35 11  1  0  0  0  0
 36 12  1  0  0  0  0
 39 16  1  0  0  0  0
 40 17  1  0  0  0  0
 41 18  1  0  0  0  0
 44 21  1  0  0  0  0
 45 22  1  0  0  0  0
 49 26  1  0  0  0  0
 50 27  1  0  0  0  0
M  END
$$$$
