CSD_code = XERKOW | q = 0 | S = 0 | Stoichiometry = C19H17IN2OPtS | MND = 4
 OpenBabel04212202123D

 42 46  0  0  1  0  0  0  0  0999 V2000
    3.0561    1.5016   12.5752 Pt  0  0  2  0  0  0  0  0  0  0  0  0
    4.1196    0.9760   10.2804 I   0  0  0  0  0  0  0  0  0  0  0  0
    4.8892    2.7081   13.2476 S   0  0  2  0  0  3  0  0  0  0  0  0
    1.4030    0.4180   12.0692 O   0  0  0  0  0  0  0  0  0  0  0  0
    2.2416    1.9624   14.3099 N   0  0  0  0  0  0  0  0  0  0  0  0
    1.1301    1.5342   14.7744 N   0  0  0  0  0  0  0  0  0  0  0  0
    2.9122    2.8647   15.1345 C   0  0  0  0  0  0  0  0  0  0  0  0
    2.3631    3.3413   16.3304 C   0  0  0  0  0  0  0  0  0  0  0  0
    1.3869    2.9926   16.6251 H   0  0  0  0  0  0  0  0  0  0  0  0
    0.2826    0.7119   14.1820 C   0  0  0  0  0  0  0  0  0  0  0  0
   -0.8845    0.3601   14.9618 C   0  0  1  0  0  3  0  0  0  0  0  0
    0.4240    0.1897   12.8430 C   0  0  0  0  0  0  0  0  0  0  0  0
   -1.8856   -0.4612   14.4022 C   0  0  0  0  0  0  0  0  0  0  0  0
    4.1722    3.3376   14.7548 C   0  0  0  0  0  0  0  0  0  0  0  0
   -1.7239   -0.9414   13.0709 C   0  0  0  0  0  0  0  0  0  0  0  0
   -2.4994   -1.5695   12.6560 H   0  0  0  0  0  0  0  0  0  0  0  0
   -0.6334   -0.6342   12.3345 C   0  0  0  0  0  0  0  0  0  0  0  0
   -0.5023   -1.0009   11.3275 H   0  0  0  0  0  0  0  0  0  0  0  0
   -3.1554   -0.3286   16.4500 C   0  0  0  0  0  0  0  0  0  0  0  0
   -4.0279   -0.5870   17.0309 H   0  0  0  0  0  0  0  0  0  0  0  0
   -1.0474    0.8125   16.2769 C   0  0  0  0  0  0  0  0  0  0  0  0
   -0.2766    1.4274   16.7132 H   0  0  0  0  0  0  0  0  0  0  0  0
    3.3726    4.7086   12.0135 C   0  0  0  0  0  0  0  0  0  0  0  0
    2.7411    3.8820   11.6489 H   0  0  0  0  0  0  0  0  0  0  0  0
    2.9722    5.0499   12.9726 H   0  0  0  0  0  0  0  0  0  0  0  0
    3.0574    4.2459   17.1052 C   0  0  0  0  0  0  0  0  0  0  0  0
    2.6176    4.6051   18.0230 H   0  0  0  0  0  0  0  0  0  0  0  0
   -3.0148   -0.7923   15.1648 C   0  0  0  0  0  0  0  0  0  0  0  0
   -3.7738   -1.4214   14.7226 H   0  0  0  0  0  0  0  0  0  0  0  0
    4.7941    4.2033   12.1974 C   0  0  0  0  0  0  0  0  0  0  0  0
    5.4347    4.9557   12.6578 H   0  0  0  0  0  0  0  0  0  0  0  0
    5.2250    3.8956   11.2440 H   0  0  0  0  0  0  0  0  0  0  0  0
    4.8734    4.2322   15.5427 C   0  0  0  0  0  0  0  0  0  0  0  0
    5.8533    4.5603   15.2303 H   0  0  0  0  0  0  0  0  0  0  0  0
    4.3126    4.6965   16.7190 C   0  0  0  0  0  0  0  0  0  0  0  0
    4.8522    5.4008   17.3322 H   0  0  0  0  0  0  0  0  0  0  0  0
   -2.1627    0.4768   17.0073 C   0  0  0  0  0  0  0  0  0  0  0  0
   -2.2716    0.8365   18.0198 H   0  0  0  0  0  0  0  0  0  0  0  0
    3.3320    5.8480   11.0030 C   0  0  0  0  0  0  0  0  0  0  0  0
    3.9546    6.6767   11.3336 H   0  0  0  0  0  0  0  0  0  0  0  0
    2.3134    6.2082   10.8856 H   0  0  0  0  0  0  0  0  0  0  0  0
    3.6908    5.5080   10.0349 H   0  0  0  0  0  0  0  0  0  0  0  0
  1  2  1  6  0  0  0
  1  3  1  0  0  0  0
  1  5  1  0  0  0  0
  3 30  1  6  0  0  0
  3 14  1  0  0  0  0
  4  1  1  0  0  0  0
  4 12  1  0  0  0  0
  5  6  1  0  0  0  0
  5  7  1  0  0  0  0
  7  8  1  0  0  0  0
  8  9  1  0  0  0  0
  8 26  2  0  0  0  0
 10  6  2  0  0  0  0
 11 10  1  1  0  0  0
 11 21  1  0  0  0  0
 12 10  1  0  0  0  0
 13 11  1  0  0  0  0
 13 28  1  0  0  0  0
 14  7  2  0  0  0  0
 14 33  1  0  0  0  0
 15 13  2  0  0  0  0
 16 15  1  0  0  0  0
 17 12  2  0  0  0  0
 17 15  1  0  0  0  0
 18 17  1  0  0  0  0
 19 37  1  0  0  0  0
 19 20  1  0  0  0  0
 21 22  1  0  0  0  0
 21 37  2  0  0  0  0
 23 30  1  0  0  0  0
 23 25  1  0  0  0  0
 24 23  1  0  0  0  0
 26 27  1  0  0  0  0
 28 19  2  0  0  0  0
 29 28  1  0  0  0  0
 30 31  1  0  0  0  0
 32 30  1  0  0  0  0
 33 35  2  0  0  0  0
 34 33  1  0  0  0  0
 35 26  1  0  0  0  0
 35 36  1  0  0  0  0
 37 38  1  0  0  0  0
 39 40  1  0  0  0  0
 39 23  1  0  0  0  0
 41 39  1  0  0  0  0
 42 39  1  0  0  0  0
M  END
$$$$
