CSD_code = XERPOC | q = 0 | S = 0 | Stoichiometry = C19H35INP2Rh | MND = 4
 OpenBabel04212202123D

 59 61  0  0  1  0  0  0  0  0999 V2000
    1.7813   17.2626   11.6771 I   0  0  0  0  0  0  0  0  0  0  0  0
   -0.5019   16.8886   10.4870 Rh  0  0  2  0  0  0  0  0  0  0  0  0
   -1.5528   16.2158   12.3213 P   0  0  0  0  0  4  0  0  0  0  0  0
    0.2395   17.4927    8.4850 P   0  0  0  0  0  4  0  0  0  0  0  0
   -2.2300   16.6168    9.5906 N   0  0  0  0  0  0  0  0  0  0  0  0
   -1.6540   13.6599   11.3921 C   0  0  0  0  0  0  0  0  0  0  0  0
   -0.8558   13.9946   10.7201 H   0  0  0  0  0  0  0  0  0  0  0  0
   -2.6127   13.8514   10.9093 H   0  0  0  0  0  0  0  0  0  0  0  0
   -1.5517   12.5853   11.5363 H   0  0  0  0  0  0  0  0  0  0  0  0
   -1.5426   14.4016   12.7226 C   0  0  0  0  0  0  0  0  0  0  0  0
   -2.4026   14.1534   13.3576 H   0  0  0  0  0  0  0  0  0  0  0  0
   -0.2393   14.0404   13.4282 C   0  0  0  0  0  0  0  0  0  0  0  0
   -0.1513   12.9600   13.5352 H   0  0  0  0  0  0  0  0  0  0  0  0
   -0.1866   14.4857   14.4192 H   0  0  0  0  0  0  0  0  0  0  0  0
    0.6109   14.3977   12.8483 H   0  0  0  0  0  0  0  0  0  0  0  0
   -2.4551   16.6402   14.9965 C   0  0  0  0  0  0  0  0  0  0  0  0
   -2.3111   17.2067   15.9155 H   0  0  0  0  0  0  0  0  0  0  0  0
   -2.3524   15.5838   15.2342 H   0  0  0  0  0  0  0  0  0  0  0  0
   -3.4703   16.8209   14.6462 H   0  0  0  0  0  0  0  0  0  0  0  0
   -1.4301   17.0812   13.9586 C   0  0  0  0  0  0  0  0  0  0  0  0
   -0.4192   16.8485   14.3173 H   0  0  0  0  0  0  0  0  0  0  0  0
   -1.4948   18.5858   13.6976 C   0  0  0  0  0  0  0  0  0  0  0  0
   -2.5158   18.9119   13.5018 H   0  0  0  0  0  0  0  0  0  0  0  0
   -0.8762   18.8422   12.8332 H   0  0  0  0  0  0  0  0  0  0  0  0
   -1.1225   19.1403   14.5564 H   0  0  0  0  0  0  0  0  0  0  0  0
   -3.3056   16.4931   11.7992 C   0  0  0  0  0  0  0  0  0  0  0  0
   -4.0164   15.7911   12.2441 H   0  0  0  0  0  0  0  0  0  0  0  0
   -3.5770   17.5050   12.1213 H   0  0  0  0  0  0  0  0  0  0  0  0
   -3.3667   16.4452   10.3022 C   0  0  1  0  0  3  0  0  0  0  0  0
   -4.5962   16.2535    9.6936 C   0  0  0  0  0  0  0  0  0  0  0  0
   -5.4727   16.1168   10.3087 H   0  0  0  0  0  0  0  0  0  0  0  0
   -4.6967   16.2508    8.3128 C   0  0  0  0  0  0  0  0  0  0  0  0
   -5.6462   16.1113    7.8212 H   0  0  0  0  0  0  0  0  0  0  0  0
   -3.5319   16.4328    7.5872 C   0  0  0  0  0  0  0  0  0  0  0  0
   -3.5513   16.4349    6.5079 H   0  0  0  0  0  0  0  0  0  0  0  0
   -2.3229   16.6017    8.2418 C   0  0  0  0  0  0  0  0  0  0  0  0
   -1.0745   16.7384    7.4237 C   0  0  0  0  0  0  0  0  0  0  0  0
   -1.2679   17.2898    6.4995 H   0  0  0  0  0  0  0  0  0  0  0  0
   -0.7289   15.7331    7.1567 H   0  0  0  0  0  0  0  0  0  0  0  0
    1.9953   17.1291    6.2637 C   0  0  0  0  0  0  0  0  0  0  0  0
    2.9467   16.7206    5.9259 H   0  0  0  0  0  0  0  0  0  0  0  0
    1.9926   18.1954    6.0488 H   0  0  0  0  0  0  0  0  0  0  0  0
    1.2028   16.6560    5.6858 H   0  0  0  0  0  0  0  0  0  0  0  0
    1.8234   16.8596    7.7536 C   0  0  0  0  0  0  0  0  0  0  0  0
    2.6120   17.3768    8.3151 H   0  0  0  0  0  0  0  0  0  0  0  0
    1.9230   15.3694    8.0787 C   0  0  0  0  0  0  0  0  0  0  0  0
    1.2801   14.7768    7.4286 H   0  0  0  0  0  0  0  0  0  0  0  0
    1.6257   15.1927    9.1162 H   0  0  0  0  0  0  0  0  0  0  0  0
    2.9448   15.0170    7.9548 H   0  0  0  0  0  0  0  0  0  0  0  0
    1.3574   20.0303    8.5698 C   0  0  0  0  0  0  0  0  0  0  0  0
    1.2418   21.1038    8.4263 H   0  0  0  0  0  0  0  0  0  0  0  0
    2.2813   19.7203    8.0865 H   0  0  0  0  0  0  0  0  0  0  0  0
    1.4489   19.8353    9.6376 H   0  0  0  0  0  0  0  0  0  0  0  0
    0.1537   19.2848    8.0022 C   0  0  0  0  0  0  0  0  0  0  0  0
    0.1285   19.3769    6.9088 H   0  0  0  0  0  0  0  0  0  0  0  0
   -1.1436   19.8310    8.5951 C   0  0  0  0  0  0  0  0  0  0  0  0
   -1.1622   19.6361    9.6732 H   0  0  0  0  0  0  0  0  0  0  0  0
   -2.0164   19.3569    8.1451 H   0  0  0  0  0  0  0  0  0  0  0  0
   -1.2199   20.9063    8.4404 H   0  0  0  0  0  0  0  0  0  0  0  0
  2  1  1  1  0  0  0
  2  3  1  0  0  0  0
  3 10  1  0  0  0  0
  3 20  1  0  0  0  0
  4  2  1  0  0  0  0
  5 29  1  0  0  0  0
  5  2  1  0  0  0  0
  6  9  1  0  0  0  0
  6 10  1  0  0  0  0
  7  6  1  0  0  0  0
  8  6  1  0  0  0  0
 10 11  1  0  0  0  0
 10 12  1  0  0  0  0
 12 13  1  0  0  0  0
 12 14  1  0  0  0  0
 15 12  1  0  0  0  0
 16 18  1  0  0  0  0
 16 17  1  0  0  0  0
 19 16  1  0  0  0  0
 20 21  1  0  0  0  0
 20 16  1  0  0  0  0
 22 20  1  0  0  0  0
 22 25  1  0  0  0  0
 23 22  1  0  0  0  0
 24 22  1  0  0  0  0
 26 28  1  0  0  0  0
 26 27  1  0  0  0  0
 26  3  1  0  0  0  0
 29 30  1  6  0  0  0
 29 26  1  0  0  0  0
 30 31  1  0  0  0  0
 32 30  2  0  0  0  0
 33 32  1  0  0  0  0
 34 36  2  0  0  0  0
 34 32  1  0  0  0  0
 35 34  1  0  0  0  0
 36  5  1  0  0  0  0
 37 36  1  0  0  0  0
 37  4  1  0  0  0  0
 38 37  1  0  0  0  0
 39 37  1  0  0  0  0
 40 44  1  0  0  0  0
 41 40  1  0  0  0  0
 42 40  1  0  0  0  0
 43 40  1  0  0  0  0
 44 46  1  0  0  0  0
 44 45  1  0  0  0  0
 44  4  1  0  0  0  0
 46 48  1  0  0  0  0
 47 46  1  0  0  0  0
 49 46  1  0  0  0  0
 50 53  1  0  0  0  0
 51 50  1  0  0  0  0
 52 50  1  0  0  0  0
 54  4  1  0  0  0  0
 54 50  1  0  0  0  0
 54 56  1  0  0  0  0
 55 54  1  0  0  0  0
 56 57  1  0  0  0  0
 58 56  1  0  0  0  0
 59 56  1  0  0  0  0
M  END
$$$$
