CSD_code = XERROC | q = 0 | S = 0 | Stoichiometry = C28H26CuIN6S2 | MND = 3
 OpenBabel04212202123D

 64 67  0  0  0  0  0  0  0  0999 V2000
    2.6438    4.4734    1.7673 Cu  0  0  0  0  0  0  0  0  0  0  0  0
    0.4072    4.2900    0.6295 I   0  0  0  0  0  0  0  0  0  0  0  0
    4.4135    5.7699    1.0044 S   0  0  0  0  0  0  0  0  0  0  0  0
    3.2248    3.3823    3.7332 S   0  0  0  0  0  0  0  0  0  0  0  0
    2.4583    7.0361   -0.3213 N   0  0  0  0  0  4  0  0  0  0  0  0
    2.1982    7.7288   -1.0070 H   0  0  0  0  0  0  0  0  0  0  0  0
    1.7816    6.3453   -0.0102 H   0  0  0  0  0  0  0  0  0  0  0  0
    4.6093    7.7733   -0.6142 N   0  0  0  0  0  0  0  0  0  0  0  0
    5.5980    7.6795   -0.3838 H   0  0  0  0  0  0  0  0  0  0  0  0
    4.1587    8.7374   -1.4331 N   0  0  0  0  0  0  0  0  0  0  0  0
    1.1415    1.8266    3.0820 N   0  0  0  0  0  4  0  0  0  0  0  0
    0.5149    1.0811    3.3451 H   0  0  0  0  0  0  0  0  0  0  0  0
    0.9168    2.4314    2.2973 H   0  0  0  0  0  0  0  0  0  0  0  0
    2.2620    1.3653    5.0279 N   0  0  0  0  0  0  0  0  0  0  0  0
    3.0229    1.5941    5.6669 H   0  0  0  0  0  0  0  0  0  0  0  0
    1.4444    0.3217    5.2412 N   0  0  0  0  0  0  0  0  0  0  0  0
    3.7469    6.9053   -0.0317 C   0  0  0  0  0  0  0  0  0  0  0  0
    4.9649    9.5460   -2.0211 C   0  0  0  0  0  0  0  0  0  0  0  0
    4.3737   10.6027   -2.8415 C   0  0  0  0  0  0  0  0  0  0  0  0
    3.0443   10.9843   -2.6510 C   0  0  0  0  0  0  0  0  0  0  0  0
    2.4687   10.4954   -1.8809 H   0  0  0  0  0  0  0  0  0  0  0  0
    2.4844   11.9804   -3.4252 C   0  0  0  0  0  0  0  0  0  0  0  0
    1.4565   12.2709   -3.2660 H   0  0  0  0  0  0  0  0  0  0  0  0
    3.2392   12.6113   -4.4021 C   0  0  0  0  0  0  0  0  0  0  0  0
    2.8010   13.3922   -5.0054 H   0  0  0  0  0  0  0  0  0  0  0  0
    4.5576   12.2366   -4.6022 C   0  0  0  0  0  0  0  0  0  0  0  0
    5.1475   12.7219   -5.3657 H   0  0  0  0  0  0  0  0  0  0  0  0
    5.1243   11.2405   -3.8296 C   0  0  0  0  0  0  0  0  0  0  0  0
    6.1493   10.9450   -4.0001 H   0  0  0  0  0  0  0  0  0  0  0  0
    6.4391    9.4799   -1.9065 C   0  0  0  0  0  0  0  0  0  0  0  0
    7.1534   10.5915   -1.4655 C   0  0  0  0  0  0  0  0  0  0  0  0
    6.6211   11.4990   -1.2190 H   0  0  0  0  0  0  0  0  0  0  0  0
    8.5282   10.5290   -1.3367 C   0  0  0  0  0  0  0  0  0  0  0  0
    9.0741   11.3946   -0.9923 H   0  0  0  0  0  0  0  0  0  0  0  0
    9.2055    9.3616   -1.6517 C   0  0  0  0  0  0  0  0  0  0  0  0
   10.2796    9.3162   -1.5525 H   0  0  0  0  0  0  0  0  0  0  0  0
    8.5036    8.2549   -2.0984 C   0  0  0  0  0  0  0  0  0  0  0  0
    9.0275    7.3451   -2.3508 H   0  0  0  0  0  0  0  0  0  0  0  0
    7.1266    8.3092   -2.2213 C   0  0  0  0  0  0  0  0  0  0  0  0
    6.5831    7.4510   -2.5927 H   0  0  0  0  0  0  0  0  0  0  0  0
    2.1233    2.1339    3.9204 C   0  0  0  0  0  0  0  0  0  0  0  0
    1.5389   -0.3967    6.3015 C   0  0  0  0  0  0  0  0  0  0  0  0
    0.6461   -1.5503    6.4099 C   0  0  0  0  0  0  0  0  0  0  0  0
    0.3646   -2.1181    7.6528 C   0  0  0  0  0  0  0  0  0  0  0  0
    0.8002   -1.6964    8.5469 H   0  0  0  0  0  0  0  0  0  0  0  0
   -0.4818   -3.2066    7.7470 C   0  0  0  0  0  0  0  0  0  0  0  0
   -0.6945   -3.6364    8.7148 H   0  0  0  0  0  0  0  0  0  0  0  0
   -1.0578   -3.7444    6.6079 C   0  0  0  0  0  0  0  0  0  0  0  0
   -1.7161   -4.5969    6.6852 H   0  0  0  0  0  0  0  0  0  0  0  0
   -0.7871   -3.1845    5.3689 C   0  0  0  0  0  0  0  0  0  0  0  0
   -1.2341   -3.6019    4.4788 H   0  0  0  0  0  0  0  0  0  0  0  0
    0.0564   -2.0966    5.2684 C   0  0  0  0  0  0  0  0  0  0  0  0
    0.2821   -1.6610    4.3078 H   0  0  0  0  0  0  0  0  0  0  0  0
    2.4961   -0.1373    7.4002 C   0  0  0  0  0  0  0  0  0  0  0  0
    2.5310    1.1017    8.0374 C   0  0  0  0  0  0  0  0  0  0  0  0
    1.8241    1.8703    7.7557 H   0  0  0  0  0  0  0  0  0  0  0  0
    3.4379    1.3368    9.0555 C   0  0  0  0  0  0  0  0  0  0  0  0
    3.4525    2.2980    9.5472 H   0  0  0  0  0  0  0  0  0  0  0  0
    4.3233    0.3443    9.4403 C   0  0  0  0  0  0  0  0  0  0  0  0
    5.0332    0.5309   10.2320 H   0  0  0  0  0  0  0  0  0  0  0  0
    4.2942   -0.8901    8.8109 C   0  0  0  0  0  0  0  0  0  0  0  0
    4.9813   -1.6668    9.1120 H   0  0  0  0  0  0  0  0  0  0  0  0
    3.3849   -1.1332    7.7986 C   0  0  0  0  0  0  0  0  0  0  0  0
    3.3605   -2.0935    7.3038 H   0  0  0  0  0  0  0  0  0  0  0  0
  1  4  1  0  0  0  0
  2  1  1  0  0  0  0
  3  1  1  0  0  0  0
  4 41  1  0  0  0  0
  5 17  2  0  0  0  0
  5  7  1  0  0  0  0
  6  5  1  0  0  0  0
  8  9  1  0  0  0  0
  8 17  1  0  0  0  0
 10  8  1  0  0  0  0
 11 12  1  0  0  0  0
 11 41  2  0  0  0  0
 13 11  1  0  0  0  0
 14 16  1  0  0  0  0
 14 15  1  0  0  0  0
 16 42  2  0  0  0  0
 17  3  1  0  0  0  0
 18 30  1  0  0  0  0
 18 10  2  0  0  0  0
 19 20  1  0  0  0  0
 19 18  1  0  0  0  0
 20 21  1  0  0  0  0
 22 23  1  0  0  0  0
 22 20  2  0  0  0  0
 24 22  1  0  0  0  0
 25 24  1  0  0  0  0
 26 24  2  0  0  0  0
 26 28  1  0  0  0  0
 27 26  1  0  0  0  0
 28 19  2  0  0  0  0
 29 28  1  0  0  0  0
 30 31  1  0  0  0  0
 31 33  2  0  0  0  0
 31 32  1  0  0  0  0
 33 34  1  0  0  0  0
 35 36  1  0  0  0  0
 35 33  1  0  0  0  0
 37 35  2  0  0  0  0
 38 37  1  0  0  0  0
 39 37  1  0  0  0  0
 39 30  2  0  0  0  0
 40 39  1  0  0  0  0
 41 14  1  0  0  0  0
 42 43  1  0  0  0  0
 42 54  1  0  0  0  0
 43 44  1  0  0  0  0
 44 46  2  0  0  0  0
 44 45  1  0  0  0  0
 46 47  1  0  0  0  0
 48 49  1  0  0  0  0
 48 46  1  0  0  0  0
 50 48  2  0  0  0  0
 51 50  1  0  0  0  0
 52 50  1  0  0  0  0
 52 43  2  0  0  0  0
 53 52  1  0  0  0  0
 54 63  2  0  0  0  0
 54 55  1  0  0  0  0
 55 57  2  0  0  0  0
 56 55  1  0  0  0  0
 57 59  1  0  0  0  0
 57 58  1  0  0  0  0
 59 60  1  0  0  0  0
 61 62  1  0  0  0  0
 61 59  2  0  0  0  0
 63 61  1  0  0  0  0
 64 63  1  0  0  0  0
M  END
$$$$
