CSD_code = XERVOI | q = 0 | S = 0 | Stoichiometry = C26H24AuCl2F8P | MND = 4
 OpenBabel04212202123D

 62 64  0  0  0  0  0  0  0  0999 V2000
    8.5504   12.1080    8.5425 Au  0  0  0  0  0  0  0  0  0  0  0  0
   10.6169   13.0860    9.0742 P   0  0  0  0  0  4  0  0  0  0  0  0
    6.4868   11.2361    8.0027 Cl  0  0  0  0  0  0  0  0  0  0  0  0
    9.4834   11.4967    6.5640 Cl  0  0  0  0  0  0  0  0  0  0  0  0
    8.1907   10.2827   10.9495 F   0  0  0  0  0  0  0  0  0  0  0  0
    6.8764   10.5752   13.2978 F   0  0  0  0  0  0  0  0  0  0  0  0
    5.7498   14.9886   12.0923 F   0  0  0  0  0  0  0  0  0  0  0  0
    7.0601   14.6880    9.7597 F   0  0  0  0  0  0  0  0  0  0  0  0
    4.0710   11.1976   13.4952 F   0  0  0  0  0  0  0  0  0  0  0  0
    2.7667   11.5179   15.8630 F   0  0  0  0  0  0  0  0  0  0  0  0
    5.6535   15.0429   16.9929 F   0  0  0  0  0  0  0  0  0  0  0  0
    6.9929   14.7113   14.6487 F   0  0  0  0  0  0  0  0  0  0  0  0
    7.6537   12.4711   10.2881 C   0  0  0  0  0  0  0  0  0  0  0  0
    7.5614   11.4402   11.2104 C   0  0  0  0  0  0  0  0  0  0  0  0
    6.8869   11.5802   12.4144 C   0  0  0  0  0  0  0  0  0  0  0  0
    6.2654   12.7824   12.7412 C   0  0  0  0  0  0  0  0  0  0  0  0
    6.3428   13.8206   11.8187 C   0  0  0  0  0  0  0  0  0  0  0  0
    7.0135   13.6537   10.6132 C   0  0  0  0  0  0  0  0  0  0  0  0
    5.5520   12.9518   14.0227 C   0  0  0  0  0  0  0  0  0  0  0  0
    4.4731   12.1339   14.3545 C   0  0  0  0  0  0  0  0  0  0  0  0
    3.8010   12.3046   15.5608 C   0  0  0  0  0  0  0  0  0  0  0  0
    4.1896   13.2860   16.4551 C   0  0  0  0  0  0  0  0  0  0  0  0
    3.6655   13.4147   17.3881 H   0  0  0  0  0  0  0  0  0  0  0  0
    5.2617   14.0985   16.1326 C   0  0  0  0  0  0  0  0  0  0  0  0
    5.9382   13.9365   14.9294 C   0  0  0  0  0  0  0  0  0  0  0  0
   10.4323   13.6209   10.8191 C   0  0  0  0  0  0  0  0  0  0  0  0
   10.2799   12.5845   11.7446 C   0  0  0  0  0  0  0  0  0  0  0  0
   10.3454   11.5595   11.4162 H   0  0  0  0  0  0  0  0  0  0  0  0
   10.0360   12.8366   13.0803 C   0  0  0  0  0  0  0  0  0  0  0  0
    9.9322   12.0102   13.7678 H   0  0  0  0  0  0  0  0  0  0  0  0
    9.9153   14.1407   13.5296 C   0  0  0  0  0  0  0  0  0  0  0  0
    9.7133   14.3478   14.5682 H   0  0  0  0  0  0  0  0  0  0  0  0
   10.0459   15.1776   12.6249 C   0  0  0  0  0  0  0  0  0  0  0  0
    9.9426   16.1992   12.9577 H   0  0  0  0  0  0  0  0  0  0  0  0
   10.3008   14.9274   11.2863 C   0  0  0  0  0  0  0  0  0  0  0  0
   10.3902   15.7785   10.6335 H   0  0  0  0  0  0  0  0  0  0  0  0
   10.9392   14.6259    8.0248 C   0  0  0  0  0  0  0  0  0  0  0  0
    9.6151   15.4020    8.0822 C   0  0  0  0  0  0  0  0  0  0  0  0
    9.2081   15.5137    9.0813 H   0  0  0  0  0  0  0  0  0  0  0  0
    8.8662   14.8842    7.4819 H   0  0  0  0  0  0  0  0  0  0  0  0
    9.7521   16.3959    7.6592 H   0  0  0  0  0  0  0  0  0  0  0  0
   12.1333   15.4099    8.5824 C   0  0  0  0  0  0  0  0  0  0  0  0
   13.0674   14.9327    8.2927 H   0  0  0  0  0  0  0  0  0  0  0  0
   12.1293   15.5009    9.6645 H   0  0  0  0  0  0  0  0  0  0  0  0
   12.1303   16.4113    8.1545 H   0  0  0  0  0  0  0  0  0  0  0  0
   11.1938   14.3501    6.5398 C   0  0  0  0  0  0  0  0  0  0  0  0
   11.0037   15.2709    5.9904 H   0  0  0  0  0  0  0  0  0  0  0  0
   10.5269   13.5849    6.1541 H   0  0  0  0  0  0  0  0  0  0  0  0
   12.2166   14.0551    6.3345 H   0  0  0  0  0  0  0  0  0  0  0  0
   12.0526   11.8444    9.0683 C   0  0  0  0  0  0  0  0  0  0  0  0
   13.0343   12.1836   10.1927 C   0  0  0  0  0  0  0  0  0  0  0  0
   12.6194   11.9883   11.1779 H   0  0  0  0  0  0  0  0  0  0  0  0
   13.3367   13.2287   10.1480 H   0  0  0  0  0  0  0  0  0  0  0  0
   13.9254   11.5690   10.0758 H   0  0  0  0  0  0  0  0  0  0  0  0
   12.7846   11.8869    7.7275 C   0  0  0  0  0  0  0  0  0  0  0  0
   13.4758   11.0464    7.6847 H   0  0  0  0  0  0  0  0  0  0  0  0
   13.3673   12.7970    7.6161 H   0  0  0  0  0  0  0  0  0  0  0  0
   12.0821   11.7847    6.9045 H   0  0  0  0  0  0  0  0  0  0  0  0
   11.4839   10.4310    9.2217 C   0  0  0  0  0  0  0  0  0  0  0  0
   12.3082    9.7248    9.3056 H   0  0  0  0  0  0  0  0  0  0  0  0
   10.9031   10.1677    8.3405 H   0  0  0  0  0  0  0  0  0  0  0  0
   10.8512   10.3020   10.0957 H   0  0  0  0  0  0  0  0  0  0  0  0
  1  2  1  0  0  0  0
  1 13  1  0  0  0  0
  2 26  1  0  0  0  0
  3  1  1  0  0  0  0
  4  1  1  0  0  0  0
  5 14  1  0  0  0  0
  8 18  1  0  0  0  0
  9 20  1  0  0  0  0
 12 25  1  0  0  0  0
 13 18  2  0  0  0  0
 13 14  1  0  0  0  0
 14 15  2  0  0  0  0
 15 16  1  0  0  0  0
 15  6  1  0  0  0  0
 16 19  1  0  0  0  0
 17  7  1  0  0  0  0
 17 16  2  0  0  0  0
 18 17  1  0  0  0  0
 19 20  2  0  0  0  0
 19 25  1  0  0  0  0
 20 21  1  0  0  0  0
 21 10  1  0  0  0  0
 21 22  2  0  0  0  0
 22 23  1  0  0  0  0
 24 22  1  0  0  0  0
 24 11  1  0  0  0  0
 25 24  2  0  0  0  0
 26 35  2  0  0  0  0
 26 27  1  0  0  0  0
 27 29  2  0  0  0  0
 28 27  1  0  0  0  0
 29 31  1  0  0  0  0
 29 30  1  0  0  0  0
 31 32  1  0  0  0  0
 33 34  1  0  0  0  0
 33 31  2  0  0  0  0
 35 33  1  0  0  0  0
 36 35  1  0  0  0  0
 37 38  1  0  0  0  0
 37 42  1  0  0  0  0
 37  2  1  0  0  0  0
 38 39  1  0  0  0  0
 40 38  1  0  0  0  0
 41 38  1  0  0  0  0
 42 44  1  0  0  0  0
 43 42  1  0  0  0  0
 45 42  1  0  0  0  0
 46 37  1  0  0  0  0
 47 46  1  0  0  0  0
 48 46  1  0  0  0  0
 49 46  1  0  0  0  0
 50  2  1  0  0  0  0
 50 59  1  0  0  0  0
 50 51  1  0  0  0  0
 51 52  1  0  0  0  0
 53 51  1  0  0  0  0
 54 51  1  0  0  0  0
 55 50  1  0  0  0  0
 56 55  1  0  0  0  0
 57 55  1  0  0  0  0
 58 55  1  0  0  0  0
 59 60  1  0  0  0  0
 59 62  1  0  0  0  0
 61 59  1  0  0  0  0
M  END
$$$$
