CSD_code = XESHAG | q = 0 | S = 0 | Stoichiometry = C23H26Cl2FeN4 | MND = 4
 OpenBabel04212202123D

 56 59  0  0  1  0  0  0  0  0999 V2000
    3.7508    1.7886    5.8816 Fe  0  0  0  0  0  0  0  0  0  0  0  0
    5.8007    1.7740    5.6293 Cl  0  0  0  0  0  0  0  0  0  0  0  0
    2.2189    3.1741    5.8469 Cl  0  0  0  0  0  0  0  0  0  0  0  0
    3.0801    0.1852    5.1327 N   0  0  0  0  0  0  0  0  0  0  0  0
    2.9787   -0.4299    7.2529 N   0  0  0  0  0  0  0  0  0  0  0  0
    3.6000    0.9437    8.8179 N   0  0  0  0  0  0  0  0  0  0  0  0
    4.0830    1.9232   10.7985 N   0  0  0  0  0  0  0  0  0  0  0  0
    1.6435    0.3827    1.7423 C   0  0  0  0  0  0  0  0  0  0  0  0
    0.7251    0.6868    1.2625 H   0  0  0  0  0  0  0  0  0  0  0  0
    4.5030    2.8996   11.6919 C   0  0  0  0  0  0  0  0  0  0  0  0
    3.5635    3.7777   12.2433 C   0  0  0  0  0  0  0  0  0  0  0  0
    3.4777    0.8375    7.4577 C   0  0  1  0  0  3  0  0  0  0  0  0
    1.7327    0.4396    3.1255 C   0  0  0  0  0  0  0  0  0  0  0  0
    2.2207   -2.1271    5.5990 C   0  0  0  0  0  0  0  0  0  0  0  0
    2.8885   -2.9113    5.9564 H   0  0  0  0  0  0  0  0  0  0  0  0
    2.1199   -2.2127    4.5202 H   0  0  0  0  0  0  0  0  0  0  0  0
    1.2442   -2.2790    6.0596 H   0  0  0  0  0  0  0  0  0  0  0  0
    6.2134    3.8280   13.0910 C   0  0  0  0  0  0  0  0  0  0  0  0
    7.2418    3.8484   13.4224 H   0  0  0  0  0  0  0  0  0  0  0  0
    2.7607   -0.7815    5.9515 C   0  0  1  0  0  3  0  0  0  0  0  0
    3.1859   -0.2298    9.4195 C   0  0  0  0  0  0  0  0  0  0  0  0
    3.2107   -0.3312   10.4843 H   0  0  0  0  0  0  0  0  0  0  0  0
    0.5670    0.8827    3.9492 C   0  0  0  0  0  0  0  0  0  0  0  0
    0.7899    1.8270    4.4447 H   0  0  0  0  0  0  0  0  0  0  0  0
    0.3433    0.1559    4.7287 H   0  0  0  0  0  0  0  0  0  0  0  0
   -0.3129    1.0141    3.3257 H   0  0  0  0  0  0  0  0  0  0  0  0
    5.8353    2.9162   12.1191 C   0  0  0  0  0  0  0  0  0  0  0  0
    2.9372    0.0562    3.7363 C   0  0  0  0  0  0  0  0  0  0  0  0
    5.2946    4.7065   13.6368 C   0  0  0  0  0  0  0  0  0  0  0  0
    5.6035    5.4120   14.3934 H   0  0  0  0  0  0  0  0  0  0  0  0
    4.0597    2.0400    9.5398 C   0  0  0  0  0  0  0  0  0  0  0  0
    2.7998   -1.0848    8.4541 C   0  0  0  0  0  0  0  0  0  0  0  0
    2.4211   -2.0834    8.5213 H   0  0  0  0  0  0  0  0  0  0  0  0
    4.0043   -0.4442    2.9736 C   0  0  0  0  0  0  0  0  0  0  0  0
    2.7076   -0.0600    0.9779 C   0  0  0  0  0  0  0  0  0  0  0  0
    2.6235   -0.0913   -0.0980 H   0  0  0  0  0  0  0  0  0  0  0  0
    4.4723    3.2332    8.7401 C   0  0  0  0  0  0  0  0  0  0  0  0
    3.6266    3.6006    8.1567 H   0  0  0  0  0  0  0  0  0  0  0  0
    5.2733    2.9613    8.0509 H   0  0  0  0  0  0  0  0  0  0  0  0
    4.8201    4.0206    9.4051 H   0  0  0  0  0  0  0  0  0  0  0  0
    3.8711   -0.4841    1.5934 C   0  0  0  0  0  0  0  0  0  0  0  0
    4.6911   -0.8565    0.9974 H   0  0  0  0  0  0  0  0  0  0  0  0
    6.8194    1.9599   11.5141 C   0  0  0  0  0  0  0  0  0  0  0  0
    6.4279    0.9439   11.5499 H   0  0  0  0  0  0  0  0  0  0  0  0
    7.7663    1.9951   12.0464 H   0  0  0  0  0  0  0  0  0  0  0  0
    7.0016    2.2060   10.4674 H   0  0  0  0  0  0  0  0  0  0  0  0
    5.2485   -0.9399    3.6371 C   0  0  0  0  0  0  0  0  0  0  0  0
    5.0124   -1.6782    4.4021 H   0  0  0  0  0  0  0  0  0  0  0  0
    5.7684   -0.1198    4.1310 H   0  0  0  0  0  0  0  0  0  0  0  0
    5.9167   -1.3894    2.9078 H   0  0  0  0  0  0  0  0  0  0  0  0
    2.1413    3.7341   11.7698 C   0  0  0  0  0  0  0  0  0  0  0  0
    1.5108    4.3676   12.3882 H   0  0  0  0  0  0  0  0  0  0  0  0
    1.7640    2.7128   11.8049 H   0  0  0  0  0  0  0  0  0  0  0  0
    2.0688    4.0767   10.7370 H   0  0  0  0  0  0  0  0  0  0  0  0
    3.9779    4.6758   13.2132 C   0  0  0  0  0  0  0  0  0  0  0  0
    3.2579    5.3592   13.6402 H   0  0  0  0  0  0  0  0  0  0  0  0
  1 12  1  0  0  0  0
  2  1  1  0  0  0  0
  3  1  1  0  0  0  0
  4  1  1  0  0  0  0
  4 20  1  0  0  0  0
  5 32  1  0  0  0  0
  6 21  1  0  0  0  0
  6 31  1  0  0  0  0
  7 10  1  0  0  0  0
  8 13  1  0  0  0  0
  9  8  1  0  0  0  0
 10 27  2  0  0  0  0
 10 11  1  0  0  0  0
 11 55  2  0  0  0  0
 12  5  1  6  0  0  0
 12  6  1  0  0  0  0
 13 28  2  0  0  0  0
 13 23  1  0  0  0  0
 14 15  1  0  0  0  0
 14 17  1  0  0  0  0
 16 14  1  0  0  0  0
 18 19  1  0  0  0  0
 18 29  2  0  0  0  0
 20 14  1  1  0  0  0
 20  5  1  0  0  0  0
 21 22  1  0  0  0  0
 23 24  1  0  0  0  0
 23 25  1  0  0  0  0
 26 23  1  0  0  0  0
 27 18  1  0  0  0  0
 28  4  1  0  0  0  0
 29 30  1  0  0  0  0
 31  7  2  0  0  0  0
 32 33  1  0  0  0  0
 32 21  2  0  0  0  0
 34 47  1  0  0  0  0
 34 28  1  0  0  0  0
 35 41  1  0  0  0  0
 35  8  2  0  0  0  0
 36 35  1  0  0  0  0
 37 40  1  0  0  0  0
 37 31  1  0  0  0  0
 38 37  1  0  0  0  0
 39 37  1  0  0  0  0
 41 34  2  0  0  0  0
 42 41  1  0  0  0  0
 43 44  1  0  0  0  0
 43 45  1  0  0  0  0
 43 27  1  0  0  0  0
 46 43  1  0  0  0  0
 47 49  1  0  0  0  0
 47 48  1  0  0  0  0
 50 47  1  0  0  0  0
 51 53  1  0  0  0  0
 51 11  1  0  0  0  0
 51 52  1  0  0  0  0
 54 51  1  0  0  0  0
 55 29  1  0  0  0  0
 55 56  1  0  0  0  0
M  END
$$$$
