CSD_code = XESPOB | q = 0 | S = 0 | Stoichiometry = C6H13Cl2N3Pt | MND = 4
 OpenBabel04212202123D

 25 25  0  0  0  0  0  0  0  0999 V2000
    0.8188    0.8613    5.6642 Pt  0  0  0  0  0  0  0  0  0  0  0  0
   -0.7732   -0.6685    6.4735 Cl  0  0  0  0  0  0  0  0  0  0  0  0
    2.2762    2.3652    4.7335 Cl  0  0  0  0  0  0  0  0  0  0  0  0
    0.7840    0.7042    8.5535 N   0  0  0  0  0  0  0  0  0  0  0  0
    0.0336    0.0370    8.3477 H   0  0  0  0  0  0  0  0  0  0  0  0
    1.3964    1.2779    7.5157 N   0  0  0  0  0  0  0  0  0  0  0  0
    0.1734    0.4242    3.7650 N   0  0  0  0  0  4  0  0  0  0  0  0
   -0.6589   -0.1692    3.8536 H   0  0  0  0  0  0  0  0  0  0  0  0
   -0.1068    1.2957    3.3051 H   0  0  0  0  0  0  0  0  0  0  0  0
    2.3235    2.0883    8.0107 C   0  0  0  0  0  3  0  0  0  0  0  0
    2.9551    2.6714    7.3688 H   0  0  0  0  0  0  0  0  0  0  0  0
    2.3010    2.0266    9.4050 C   0  0  0  0  0  0  0  0  0  0  0  0
    2.9280    2.5642   10.0847 H   0  0  0  0  0  0  0  0  0  0  0  0
    1.3014    1.1290    9.7126 C   0  0  0  0  0  0  0  0  0  0  0  0
    0.9402    0.7802   10.6585 H   0  0  0  0  0  0  0  0  0  0  0  0
    1.1642   -0.2726    2.9215 C   0  0  0  0  0  0  0  0  0  0  0  0
    1.9978    0.4212    2.7651 H   0  0  0  0  0  0  0  0  0  0  0  0
    0.5472   -0.6498    1.5775 C   0  0  0  0  0  0  0  0  0  0  0  0
   -0.2842   -1.3392    1.7172 H   0  0  0  0  0  0  0  0  0  0  0  0
    1.2887   -1.1342    0.9489 H   0  0  0  0  0  0  0  0  0  0  0  0
    0.1853    0.2334    1.0546 H   0  0  0  0  0  0  0  0  0  0  0  0
    1.6668   -1.4995    3.6745 C   0  0  0  0  0  0  0  0  0  0  0  0
    2.0928   -1.1912    4.6348 H   0  0  0  0  0  0  0  0  0  0  0  0
    2.4371   -2.0083    3.1023 H   0  0  0  0  0  0  0  0  0  0  0  0
    0.8516   -2.1961    3.8613 H   0  0  0  0  0  0  0  0  0  0  0  0
  1  2  1  0  0  0  0
  1  6  1  0  0  0  0
  3  1  1  0  0  0  0
  4 14  1  0  0  0  0
  5  4  1  0  0  0  0
  6 10  1  0  0  0  0
  6  4  1  0  0  0  0
  7  8  1  0  0  0  0
  7  1  1  0  0  0  0
  9  7  1  0  0  0  0
 10 12  1  0  0  0  0
 11 10  1  0  0  0  0
 12 14  2  0  0  0  0
 12 13  1  0  0  0  0
 14 15  1  0  0  0  0
 16 22  1  0  0  0  0
 16  7  1  0  0  0  0
 17 16  1  0  0  0  0
 18 19  1  0  0  0  0
 18 16  1  0  0  0  0
 20 18  1  0  0  0  0
 21 18  1  0  0  0  0
 22 25  1  0  0  0  0
 22 23  1  0  0  0  0
 24 22  1  0  0  0  0
M  END
$$$$
