CSD_code = XETGOS | q = 0 | S = 0 | Stoichiometry = C14H8Cl6N2O4Pt | MND = 6
 OpenBabel04212202123D

 35 38  0  0  0  0  0  0  0  0999 V2000
    4.5664    5.9696    4.0519 Pt  0  0  0  0  0  0  0  0  0  0  0  0
    6.0893    7.2885    2.8008 Cl  0  0  0  0  0  0  0  0  0  0  0  0
    7.8120    0.1602    6.9007 Cl  0  0  0  0  0  0  0  0  0  0  0  0
    7.1722    5.3796    7.9864 Cl  0  0  0  0  0  0  0  0  0  0  0  0
    6.0191    5.5048    5.4047 O   0  0  0  0  0  0  0  0  0  0  0  0
    4.5613    4.3489    1.7682 O   0  0  0  0  0  0  0  0  0  0  0  0
    4.6326    3.4683    1.3536 H   0  0  0  0  0  0  0  0  0  0  0  0
    5.0427    4.3352    3.0400 N   0  0  0  0  0  0  0  0  0  0  0  0
    6.3541    4.2937    5.6745 C   0  0  0  0  0  0  0  0  0  0  0  0
    6.2087    3.1743    4.8055 C   0  0  0  0  0  0  0  0  0  0  0  0
    5.6292    3.2935    3.5057 C   0  0  0  0  0  3  0  0  0  0  0  0
    5.7090    2.4155    2.8623 H   0  0  0  0  0  0  0  0  0  0  0  0
    6.6703    1.9044    5.2007 C   0  0  0  0  0  0  0  0  0  0  0  0
    6.5479    1.0660    4.5330 H   0  0  0  0  0  0  0  0  0  0  0  0
    7.2594    1.7225    6.4257 C   0  0  0  0  0  0  0  0  0  0  0  0
    7.4219    2.7989    7.3019 C   0  0  0  0  0  0  0  0  0  0  0  0
    7.8828    2.6547    8.2660 H   0  0  0  0  0  0  0  0  0  0  0  0
    6.9817    4.0438    6.9299 C   0  0  0  0  0  0  0  0  0  0  0  0
    3.0456    4.6501    5.3038 Cl  0  0  0  0  0  0  0  0  0  0  0  0
    3.1143    6.4345    2.6990 O   0  0  0  0  0  0  0  0  0  0  0  0
    2.7794    7.6456    2.4293 C   0  0  0  0  0  0  0  0  0  0  0  0
    2.9249    8.7649    3.2985 C   0  0  0  0  0  0  0  0  0  0  0  0
    3.5045    8.6458    4.5982 C   0  0  0  0  0  3  0  0  0  0  0  0
    4.0912    7.6042    5.0639 N   0  0  0  0  0  0  0  0  0  0  0  0
    4.5727    7.5905    6.3357 O   0  0  0  0  0  0  0  0  0  0  0  0
    4.5014    8.4711    6.7503 H   0  0  0  0  0  0  0  0  0  0  0  0
    3.4247    9.5238    5.2417 H   0  0  0  0  0  0  0  0  0  0  0  0
    2.4631   10.0348    2.9034 C   0  0  0  0  0  0  0  0  0  0  0  0
    2.5855   10.8732    3.5711 H   0  0  0  0  0  0  0  0  0  0  0  0
    1.8739   10.2167    1.6784 C   0  0  0  0  0  0  0  0  0  0  0  0
    1.3212   11.7791    1.2035 Cl  0  0  0  0  0  0  0  0  0  0  0  0
    1.7114    9.1404    0.8021 C   0  0  0  0  0  0  0  0  0  0  0  0
    1.2505    9.2846   -0.1619 H   0  0  0  0  0  0  0  0  0  0  0  0
    2.1517    7.8955    1.1740 C   0  0  0  0  0  0  0  0  0  0  0  0
    1.9612    6.5597    0.1175 Cl  0  0  0  0  0  0  0  0  0  0  0  0
  1 24  1  0  0  0  0
  1 19  1  0  0  0  0
  1  5  1  0  0  0  0
  2  1  1  0  0  0  0
  5  9  1  0  0  0  0
  6  8  1  0  0  0  0
  7  6  1  0  0  0  0
  8 11  1  0  0  0  0
  8  1  1  0  0  0  0
  9 18  1  0  0  0  0
 10 13  1  0  0  0  0
 10  9  2  0  0  0  0
 11 10  1  0  0  0  0
 12 11  1  0  0  0  0
 13 15  2  0  0  0  0
 14 13  1  0  0  0  0
 15  3  1  0  0  0  0
 15 16  1  0  0  0  0
 16 17  1  0  0  0  0
 18 16  2  0  0  0  0
 18  4  1  0  0  0  0
 20  1  1  0  0  0  0
 21 20  1  0  0  0  0
 21 22  1  0  0  0  0
 22 23  1  0  0  0  0
 23 24  1  0  0  0  0
 23 27  1  0  0  0  0
 24 25  1  0  0  0  0
 25 26  1  0  0  0  0
 28 22  2  0  0  0  0
 28 29  1  0  0  0  0
 30 28  1  0  0  0  0
 31 30  1  0  0  0  0
 32 34  1  0  0  0  0
 32 30  2  0  0  0  0
 33 32  1  0  0  0  0
 34 21  2  0  0  0  0
 35 34  1  0  0  0  0
M  END
$$$$
