CSD_code = XETHAH | q = 0 | S = 0 | Stoichiometry = C18H12CdI2N6 | MND = 5
 OpenBabel04212202123D

 39 44  0  0  1  0  0  0  0  0999 V2000
    3.3486    5.7639   -1.4310 Cd  0  0  0  0  0  0  0  0  0  0  0  0
    4.9163    6.0263    0.7220 I   0  0  0  0  0  0  0  0  0  0  0  0
    1.7914    3.9668   -2.6996 I   0  0  0  0  0  0  0  0  0  0  0  0
    1.7231    7.6341   -0.8773 N   0  0  0  0  0  0  0  0  0  0  0  0
    3.7593    7.2348   -4.3371 C   0  0  2  0  0  3  0  0  0  0  0  0
    3.4202    7.9038   -5.4435 N   0  0  0  0  0  0  0  0  0  0  0  0
    5.1924    5.7133   -3.1997 N   0  0  0  0  0  0  0  0  0  0  0  0
    3.1238    7.4305   -3.1876 N   0  0  0  0  0  0  0  0  0  0  0  0
    0.5791    9.0632    0.6446 C   0  0  0  0  0  0  0  0  0  0  0  0
    0.2347    9.2407    1.6506 H   0  0  0  0  0  0  0  0  0  0  0  0
    2.2430    8.4170   -5.4847 N   0  0  0  0  0  0  0  0  0  0  0  0
    0.0246    8.7592   -4.6651 C   0  0  0  0  0  0  0  0  0  0  0  0
    5.6057    6.0796   -5.5312 C   0  0  0  0  0  0  0  0  0  0  0  0
    5.3129    6.5885   -6.4351 H   0  0  0  0  0  0  0  0  0  0  0  0
    1.4748    8.5037   -1.8614 C   0  0  2  0  0  3  0  0  0  0  0  0
    1.4300    8.4404   -4.4405 C   0  0  0  0  0  0  0  0  0  0  0  0
    6.2083    4.8681   -3.1709 C   0  0  0  0  0  3  0  0  0  0  0  0
    6.4200    4.4098   -2.2112 H   0  0  0  0  0  0  0  0  0  0  0  0
    4.8952    6.3141   -4.3566 C   0  0  0  0  0  0  0  0  0  0  0  0
   -0.8085    8.5168   -3.6541 N   0  0  0  0  0  0  0  0  0  0  0  0
    1.9989    8.1232   -3.1741 C   0  0  0  0  0  0  0  0  0  0  0  0
    0.3483    9.9832   -0.3671 C   0  0  0  0  0  0  0  0  0  0  0  0
   -0.1744   10.9058   -0.1642 H   0  0  0  0  0  0  0  0  0  0  0  0
    1.2802    7.9061    0.3396 C   0  0  0  0  0  0  0  0  0  0  0  0
    1.5007    7.1690    1.1033 H   0  0  0  0  0  0  0  0  0  0  0  0
    6.9780    4.5746   -4.2897 C   0  0  0  0  0  0  0  0  0  0  0  0
    7.7966    3.8768   -4.2153 H   0  0  0  0  0  0  0  0  0  0  0  0
   -2.6264    9.2210   -5.0235 C   0  0  0  0  0  0  0  0  0  0  0  0
   -3.6878    9.3851   -5.1210 H   0  0  0  0  0  0  0  0  0  0  0  0
   -0.4073    9.2443   -5.9006 C   0  0  0  0  0  0  0  0  0  0  0  0
    0.3117    9.4202   -6.6840 H   0  0  0  0  0  0  0  0  0  0  0  0
    6.6671    5.1913   -5.4915 C   0  0  0  0  0  0  0  0  0  0  0  0
    7.2393    4.9826   -6.3828 H   0  0  0  0  0  0  0  0  0  0  0  0
    0.8027    9.7043   -1.6434 C   0  0  0  0  0  0  0  0  0  0  0  0
    0.6608   10.4035   -2.4517 H   0  0  0  0  0  0  0  0  0  0  0  0
   -2.0934    8.7386   -3.8341 C   0  0  0  0  0  0  0  0  0  0  0  0
   -2.7243    8.5173   -2.9836 H   0  0  0  0  0  0  0  0  0  0  0  0
   -1.7599    9.4796   -6.0747 C   0  0  0  0  0  0  0  0  0  0  0  0
   -2.1327    9.8537   -7.0167 H   0  0  0  0  0  0  0  0  0  0  0  0
  1  4  1  0  0  0  0
  1  2  1  0  0  0  0
  3  1  1  0  0  0  0
  4 24  1  0  0  0  0
  5  6  1  1  0  0  0
  5  8  1  0  0  0  0
  7 17  1  0  0  0  0
  7  1  1  0  0  0  0
  8 21  1  0  0  0  0
  8  1  1  0  0  0  0
  9 10  1  0  0  0  0
 11  6  2  0  0  0  0
 11 16  1  0  0  0  0
 12 16  1  0  0  0  0
 12 20  1  0  0  0  0
 13 32  1  0  0  0  0
 13 19  2  0  0  0  0
 14 13  1  0  0  0  0
 15 21  1  1  0  0  0
 15 34  1  0  0  0  0
 15  4  1  0  0  0  0
 16 21  2  0  0  0  0
 17 18  1  0  0  0  0
 19  5  1  0  0  0  0
 19  7  1  0  0  0  0
 22 23  1  0  0  0  0
 22  9  1  0  0  0  0
 24  9  2  0  0  0  0
 24 25  1  0  0  0  0
 26 27  1  0  0  0  0
 26 17  1  0  0  0  0
 28 36  1  0  0  0  0
 29 28  1  0  0  0  0
 30 12  2  0  0  0  0
 31 30  1  0  0  0  0
 32 26  2  0  0  0  0
 33 32  1  0  0  0  0
 34 22  2  0  0  0  0
 35 34  1  0  0  0  0
 36 20  2  0  0  0  0
 36 37  1  0  0  0  0
 38 30  1  0  0  0  0
 38 28  2  0  0  0  0
 39 38  1  0  0  0  0
M  END
$$$$
