CSD_code = XETHOU | q = 0 | S = 0 | Stoichiometry = C14H14I2N2O2Pt | MND = 4
 OpenBabel04212202123D

 35 36  0  0  0  0  0  0  0  0999 V2000
    0.0045   -0.0002   -0.0057 Pt  0  0  0  0  0  0  0  0  0  0  0  0
    1.8665    0.4575    1.7664 I   0  0  0  0  0  0  0  0  0  0  0  0
   -0.1260   -1.8446    0.6051 N   0  0  0  0  0  0  0  0  0  0  0  0
    2.1962   -4.7230   -1.1375 O   0  0  0  0  0  0  0  0  0  0  0  0
    0.5952   -2.7984    0.0290 C   0  0  0  0  0  3  0  0  0  0  0  0
    1.2617   -2.5103   -0.7809 H   0  0  0  0  0  0  0  0  0  0  0  0
    0.5292   -4.1337    0.4141 C   0  0  0  0  0  0  0  0  0  0  0  0
   -0.3326   -4.4722    1.4560 C   0  0  0  0  0  0  0  0  0  0  0  0
   -0.4227   -5.4894    1.8012 H   0  0  0  0  0  0  0  0  0  0  0  0
   -1.0780   -3.4686    2.0550 C   0  0  0  0  0  0  0  0  0  0  0  0
   -1.7540   -3.6891    2.8654 H   0  0  0  0  0  0  0  0  0  0  0  0
   -0.9496   -2.1696    1.6028 C   0  0  0  0  0  0  0  0  0  0  0  0
   -1.5187   -1.3575    2.0470 H   0  0  0  0  0  0  0  0  0  0  0  0
    1.3927   -5.1082   -0.3244 C   0  0  0  0  0  0  0  0  0  0  0  0
    1.1941   -6.5622    0.0013 C   0  0  0  0  0  0  0  0  0  0  0  0
    1.8305   -7.1635   -0.6425 H   0  0  0  0  0  0  0  0  0  0  0  0
    0.1543   -6.8441   -0.1495 H   0  0  0  0  0  0  0  0  0  0  0  0
    1.4604   -6.7492    1.0399 H   0  0  0  0  0  0  0  0  0  0  0  0
   -1.8588   -0.4575   -1.7771 I   0  0  0  0  0  0  0  0  0  0  0  0
    0.1316    1.8454   -0.6132 N   0  0  0  0  0  0  0  0  0  0  0  0
   -2.1947    4.7118    1.1431 O   0  0  0  0  0  0  0  0  0  0  0  0
   -0.5908    2.7956   -0.0327 C   0  0  0  0  0  3  0  0  0  0  0  0
   -1.2551    2.5033    0.7777 H   0  0  0  0  0  0  0  0  0  0  0  0
   -0.5290    4.1323   -0.4135 C   0  0  0  0  0  0  0  0  0  0  0  0
    0.3300    4.4763   -1.4560 C   0  0  0  0  0  0  0  0  0  0  0  0
    0.4168    5.4949   -1.7981 H   0  0  0  0  0  0  0  0  0  0  0  0
    1.0766    3.4765   -2.0596 C   0  0  0  0  0  0  0  0  0  0  0  0
    1.7504    3.7014   -2.8707 H   0  0  0  0  0  0  0  0  0  0  0  0
    0.9524    2.1757   -1.6115 C   0  0  0  0  0  0  0  0  0  0  0  0
    1.5226    1.3665   -2.0594 H   0  0  0  0  0  0  0  0  0  0  0  0
   -1.3934    5.1020    0.3302 C   0  0  0  0  0  0  0  0  0  0  0  0
   -1.1991    6.5577    0.0095 C   0  0  0  0  0  0  0  0  0  0  0  0
   -1.8356    7.1549    0.6569 H   0  0  0  0  0  0  0  0  0  0  0  0
   -0.1597    6.8416    0.1591 H   0  0  0  0  0  0  0  0  0  0  0  0
   -1.4680    6.7479   -1.0278 H   0  0  0  0  0  0  0  0  0  0  0  0
  1  3  1  0  0  0  0
  1  2  1  0  0  0  0
  3 12  1  0  0  0  0
  4 14  2  0  0  0  0
  5  7  1  0  0  0  0
  5  3  1  0  0  0  0
  6  5  1  0  0  0  0
  7  8  2  0  0  0  0
  8  9  1  0  0  0  0
  8 10  1  0  0  0  0
 10 11  1  0  0  0  0
 12 13  1  0  0  0  0
 12 10  2  0  0  0  0
 14 15  1  0  0  0  0
 14  7  1  0  0  0  0
 15 18  1  0  0  0  0
 16 15  1  0  0  0  0
 17 15  1  0  0  0  0
 19  1  1  0  0  0  0
 20 22  1  0  0  0  0
 20  1  1  0  0  0  0
 22 23  1  0  0  0  0
 24 22  1  0  0  0  0
 24 31  1  0  0  0  0
 25 24  2  0  0  0  0
 26 25  1  0  0  0  0
 27 29  2  0  0  0  0
 27 25  1  0  0  0  0
 28 27  1  0  0  0  0
 29 20  1  0  0  0  0
 30 29  1  0  0  0  0
 31 21  2  0  0  0  0
 32 34  1  0  0  0  0
 32 31  1  0  0  0  0
 32 33  1  0  0  0  0
 35 32  1  0  0  0  0
M  END
$$$$
