CSD_code = XETLEQ | q = 0 | S = 0 | Stoichiometry = C21H27ClO9RuS3 | MND = 6
 OpenBabel04212202123D

 62 65  0  0  1  0  0  0  0  0999 V2000
    8.2765   13.4047   18.3888 C   0  0  0  0  0  0  0  0  0  0  0  0
    8.2277   14.4170   18.7768 H   0  0  0  0  0  0  0  0  0  0  0  0
    7.4866   13.2493   17.6652 H   0  0  0  0  0  0  0  0  0  0  0  0
    9.2578   13.1941   17.9808 H   0  0  0  0  0  0  0  0  0  0  0  0
    3.3485   11.8698   19.6959 C   0  0  0  0  0  0  0  0  0  0  0  0
    2.7192   11.9664   18.8190 H   0  0  0  0  0  0  0  0  0  0  0  0
    2.8434   12.1747   20.6056 H   0  0  0  0  0  0  0  0  0  0  0  0
    3.7156   10.8540   19.8053 H   0  0  0  0  0  0  0  0  0  0  0  0
    3.9519   14.5304   19.3959 C   0  0  0  0  0  0  0  0  0  0  0  0
    4.7145   15.2933   19.2717 H   0  0  0  0  0  0  0  0  0  0  0  0
    3.4190   14.6631   20.3308 H   0  0  0  0  0  0  0  0  0  0  0  0
    3.2792   14.5171   18.5468 H   0  0  0  0  0  0  0  0  0  0  0  0
    8.4480   14.8873   22.2267 C   0  0  0  0  0  0  0  0  0  0  0  0
    9.0909   14.1353   21.7740 H   0  0  0  0  0  0  0  0  0  0  0  0
    8.3431   14.6989   23.2885 H   0  0  0  0  0  0  0  0  0  0  0  0
    8.8297   15.8836   22.0349 H   0  0  0  0  0  0  0  0  0  0  0  0
    5.8944   15.7850   22.6376 C   0  0  0  0  0  0  0  0  0  0  0  0
    6.4172   16.7276   22.7484 H   0  0  0  0  0  0  0  0  0  0  0  0
    5.8305   15.2380   23.5709 H   0  0  0  0  0  0  0  0  0  0  0  0
    4.8977   15.9416   22.2410 H   0  0  0  0  0  0  0  0  0  0  0  0
    7.9149   10.7311   18.7852 C   0  0  0  0  0  0  0  0  0  0  0  0
    8.8161   10.6543   18.1885 H   0  0  0  0  0  0  0  0  0  0  0  0
    7.0258   10.8088   18.1702 H   0  0  0  0  0  0  0  0  0  0  0  0
    7.8364    9.8920   19.4681 H   0  0  0  0  0  0  0  0  0  0  0  0
    9.3321   10.1069   26.0725 C   0  0  0  0  0  0  0  0  0  0  0  0
    7.3004   10.7422   22.9920 C   0  0  0  0  0  0  0  0  0  0  0  0
    5.4782    6.3034   21.9748 C   0  0  0  0  0  0  0  0  0  0  0  0
    8.7542   10.7933   25.0251 C   0  0  0  0  0  0  0  0  0  0  0  0
    9.1308    8.7311   26.2177 C   0  0  0  0  0  0  0  0  0  0  0  0
    8.3523    8.0297   25.3126 C   0  0  0  0  0  0  0  0  0  0  0  0
    7.9449   10.0924   24.0869 C   0  0  0  0  0  0  0  0  0  0  0  0
    7.7602    8.7069   24.2479 C   0  0  1  0  0  3  0  0  0  0  0  0
    6.4033    8.5684   22.3251 C   0  0  0  0  0  0  0  0  0  0  0  0
    4.7881    5.3766   21.2289 C   0  0  0  0  0  0  0  0  0  0  0  0
    5.6646    7.6145   21.5135 C   0  0  0  0  0  0  0  0  0  0  0  0
    4.4408    7.0246   19.5168 C   0  0  0  0  0  0  0  0  0  0  0  0
    4.2593    5.7289   19.9886 C   0  0  0  0  0  0  0  0  0  0  0  0
    5.1327    7.9531   20.2662 C   0  0  0  0  0  0  0  0  0  0  0  0
    6.4982    9.9386   22.0880 C   0  0  0  0  0  0  0  0  0  0  0  0
    9.2377   12.2235   20.5268 O   0  0  0  0  0  1  0  0  0  0  0  0
    6.8669   15.5004   20.2055 O   0  0  0  0  0  1  0  0  0  0  0  0
    8.9556   12.1074   24.8998 O   0  0  0  0  0  0  0  0  0  0  0  0
    8.4705   12.3992   24.0924 H   0  0  0  0  0  0  0  0  0  0  0  0
    5.3550   12.6412   18.1812 O   0  0  0  0  0  1  0  0  0  0  0  0
    7.4210   12.0005   22.7993 O   0  0  0  0  0  0  0  0  0  0  0  0
    5.9091   10.5258   21.0844 O   0  0  0  0  0  0  0  0  0  0  0  0
    3.5835    4.7863   19.2824 O   0  0  0  0  0  0  0  0  0  0  0  0
    3.2674    5.1617   18.4515 H   0  0  0  0  0  0  0  0  0  0  0  0
    7.0226    7.9964   23.3918 O   0  0  0  0  0  0  0  0  0  0  0  0
    9.7248    8.1231   27.2670 O   0  0  0  0  0  0  0  0  0  0  0  0
    9.5146    7.1807   27.2696 H   0  0  0  0  0  0  0  0  0  0  0  0
    4.8043   12.9312   19.5009 S   0  0  0  0  0  0  0  0  0  0  0  0
    6.8088   14.7466   21.4569 S   0  0  0  0  0  0  0  0  0  0  0  0
    7.9903   12.2595   19.7671 S   0  0  0  0  0  0  0  0  0  0  0  0
    4.4510   12.9000   22.6334 Cl  0  0  0  0  0  0  0  0  0  0  0  0
    6.2391   12.6011   21.1715 Ru  0  0  0  0  0  0  0  0  0  0  0  0
    9.9436   10.6310   26.7868 H   0  0  0  0  0  0  0  0  0  0  0  0
    8.1915    6.9670   25.4118 H   0  0  0  0  0  0  0  0  0  0  0  0
    5.8783    6.0201   22.9350 H   0  0  0  0  0  0  0  0  0  0  0  0
    5.2700    8.9514   19.8866 H   0  0  0  0  0  0  0  0  0  0  0  0
    4.0366    7.3049   18.5525 H   0  0  0  0  0  0  0  0  0  0  0  0
    4.6414    4.3698   21.5862 H   0  0  0  0  0  0  0  0  0  0  0  0
  1  2  1  0  0  0  0
  1 54  1  0  0  0  0
  3  1  1  0  0  0  0
  4  1  1  0  0  0  0
  5  8  1  0  0  0  0
  5  7  1  0  0  0  0
  6  5  1  0  0  0  0
  9 52  1  0  0  0  0
  9 11  1  0  0  0  0
 10  9  1  0  0  0  0
 12  9  1  0  0  0  0
 13 15  1  0  0  0  0
 14 13  1  0  0  0  0
 16 13  1  0  0  0  0
 17 18  1  0  0  0  0
 17 19  1  0  0  0  0
 20 17  1  0  0  0  0
 21 24  1  0  0  0  0
 21 54  1  0  0  0  0
 22 21  1  0  0  0  0
 23 21  1  0  0  0  0
 25 29  1  0  0  0  0
 25 57  1  0  0  0  0
 26 31  2  0  0  0  0
 27 59  1  0  0  0  0
 28 25  2  0  0  0  0
 29 50  1  0  0  0  0
 30 58  1  0  0  0  0
 30 29  2  0  0  0  0
 31 32  1  0  0  0  0
 31 28  1  0  0  0  0
 32 49  1  6  0  0  0
 32 30  1  0  0  0  0
 33 49  1  0  0  0  0
 34 62  1  0  0  0  0
 34 27  2  0  0  0  0
 35 27  1  0  0  0  0
 35 33  1  0  0  0  0
 36 37  2  0  0  0  0
 36 38  1  0  0  0  0
 37 34  1  0  0  0  0
 38 35  2  0  0  0  0
 39 33  2  0  0  0  0
 39 26  1  0  0  0  0
 41 53  1  0  0  0  0
 42 28  1  0  0  0  0
 43 42  1  0  0  0  0
 44 52  1  0  0  0  0
 45 26  1  0  0  0  0
 46 56  1  0  0  0  0
 46 39  1  0  0  0  0
 47 37  1  0  0  0  0
 48 47  1  0  0  0  0
 50 51  1  0  0  0  0
 52  5  1  0  0  0  0
 52 56  1  0  0  0  0
 53 13  1  0  0  0  0
 53 17  1  0  0  0  0
 54 40  1  0  0  0  0
 54 56  1  0  0  0  0
 56 53  1  0  0  0  0
 56 55  1  0  0  0  0
 56 45  1  0  0  0  0
 60 38  1  0  0  0  0
 61 36  1  0  0  0  0
M  END
$$$$
