CSD_code = XETSAQ | q = 0 | S = 0 | Stoichiometry = C18H12Cl2N4Pd | MND = 4
 OpenBabel04212202123D

 37 41  0  0  0  0  0  0  0  0999 V2000
    0.9594    2.4148    0.2610 Pd  0  0  0  0  0  0  0  0  0  0  0  0
    1.8533    2.7108   -1.7471 Cl  0  0  0  0  0  0  0  0  0  0  0  0
   -1.1168    2.5659   -0.5043 Cl  0  0  0  0  0  0  0  0  0  0  0  0
    0.2249    2.2007    2.1233 N   0  0  0  0  0  0  0  0  0  0  0  0
    2.8125    2.3311    1.0417 N   0  0  0  0  0  0  0  0  0  0  0  0
    3.6907    1.3404    0.9294 C   0  0  0  0  0  0  0  0  0  0  0  0
    3.3410    0.4469    0.4235 H   0  0  0  0  0  0  0  0  0  0  0  0
    4.9839    1.4490    1.4105 C   0  0  0  0  0  0  0  0  0  0  0  0
    5.6718    0.6262    1.3000 H   0  0  0  0  0  0  0  0  0  0  0  0
    5.3772    2.6358    2.0129 C   0  0  0  0  0  0  0  0  0  0  0  0
    6.3828    2.7568    2.3852 H   0  0  0  0  0  0  0  0  0  0  0  0
    4.4634    3.6725    2.1099 C   0  0  0  0  0  0  0  0  0  0  0  0
    4.7287    4.6242    2.5410 H   0  0  0  0  0  0  0  0  0  0  0  0
    3.1789    3.4801    1.6165 C   0  0  0  0  0  0  0  0  0  0  0  0
    2.1909    4.5896    1.6093 C   0  0  0  0  0  0  0  0  0  0  0  0
    0.8637    4.5236    2.1717 C   0  0  0  0  0  0  0  0  0  0  0  0
    0.1108    5.5943    2.2307 N   0  0  0  0  0  0  0  0  0  0  0  0
    0.5462    6.7339    1.6552 C   0  0  0  0  0  0  0  0  0  0  0  0
   -0.2785    7.8720    1.6270 C   0  0  0  0  0  0  0  0  0  0  0  0
   -1.2687    7.7987    2.0478 H   0  0  0  0  0  0  0  0  0  0  0  0
    0.1852    9.0248    1.0511 C   0  0  0  0  0  0  0  0  0  0  0  0
   -0.4454    9.9006    1.0142 H   0  0  0  0  0  0  0  0  0  0  0  0
    1.4746    9.0873    0.4977 C   0  0  0  0  0  0  0  0  0  0  0  0
    1.8084   10.0098    0.0465 H   0  0  0  0  0  0  0  0  0  0  0  0
    2.3036    7.9974    0.5193 C   0  0  0  0  0  0  0  0  0  0  0  0
    3.2930    8.0203    0.0910 H   0  0  0  0  0  0  0  0  0  0  0  0
    1.8519    6.7976    1.0962 C   0  0  0  0  0  0  0  0  0  0  0  0
    2.6624    5.7204    1.1444 N   0  0  0  0  0  0  0  0  0  0  0  0
    0.2741    3.3317    2.8329 C   0  0  0  0  0  0  0  0  0  0  0  0
   -0.2946    3.4254    4.0973 C   0  0  0  0  0  0  0  0  0  0  0  0
   -0.2585    4.3639    4.6262 H   0  0  0  0  0  0  0  0  0  0  0  0
   -0.9138    2.3087    4.6345 C   0  0  0  0  0  0  0  0  0  0  0  0
   -1.3664    2.3523    5.6132 H   0  0  0  0  0  0  0  0  0  0  0  0
   -0.9605    1.1417    3.8848 C   0  0  0  0  0  0  0  0  0  0  0  0
   -1.4497    0.2577    4.2610 H   0  0  0  0  0  0  0  0  0  0  0  0
   -0.3840    1.1323    2.6266 C   0  0  0  0  0  0  0  0  0  0  0  0
   -0.4185    0.2567    1.9872 H   0  0  0  0  0  0  0  0  0  0  0  0
  1  5  1  0  0  0  0
  1  4  1  0  0  0  0
  2  1  1  0  0  0  0
  3  1  1  0  0  0  0
  4 36  1  0  0  0  0
  4 29  1  0  0  0  0
  5 14  1  0  0  0  0
  6  5  1  0  0  0  0
  6  8  2  0  0  0  0
  7  6  1  0  0  0  0
  8 10  1  0  0  0  0
  9  8  1  0  0  0  0
 10 12  2  0  0  0  0
 10 11  1  0  0  0  0
 12 13  1  0  0  0  0
 14 12  1  0  0  0  0
 15 14  2  0  0  0  0
 15 16  1  0  0  0  0
 16 17  1  0  0  0  0
 16 29  2  0  0  0  0
 18 17  2  0  0  0  0
 19 18  1  0  0  0  0
 19 20  1  0  0  0  0
 21 19  2  0  0  0  0
 22 21  1  0  0  0  0
 23 25  2  0  0  0  0
 23 21  1  0  0  0  0
 24 23  1  0  0  0  0
 25 27  1  0  0  0  0
 26 25  1  0  0  0  0
 27 28  2  0  0  0  0
 27 18  1  0  0  0  0
 28 15  1  0  0  0  0
 29 30  1  0  0  0  0
 30 31  1  0  0  0  0
 30 32  2  0  0  0  0
 32 33  1  0  0  0  0
 34 35  1  0  0  0  0
 34 32  1  0  0  0  0
 36 34  2  0  0  0  0
 37 36  1  0  0  0  0
M  END
$$$$
