CSD_code = XETVUN | q = 0 | S = 0 | Stoichiometry = C22H24Cl2NPPt | MND = 4
 OpenBabel04212202123D

 51 53  0  0  0  0  0  0  0  0999 V2000
    5.7890    0.3961    2.9686 Pt  0  0  2  0  0  0  0  0  0  0  0  0
    5.5124   -1.4378    4.3554 Cl  0  0  0  0  0  0  0  0  0  0  0  0
    8.7842    1.7851    3.0604 Cl  0  0  0  0  0  0  0  0  0  0  0  0
    3.4766    0.2745    2.6184 P   0  0  0  0  0  4  0  0  0  0  0  0
    6.0565    3.1249    1.9399 N   0  0  0  0  0  0  0  0  0  0  0  0
    6.1233    1.8537    1.7092 C   0  0  0  0  0  0  0  0  0  0  0  0
    7.7661    0.3817    3.5215 C   0  0  0  0  0  0  0  0  0  0  0  0
    6.3513    4.1489    0.9644 C   0  0  0  0  0  0  0  0  0  0  0  0
    5.7242    3.6399    3.2470 C   0  0  0  0  0  0  0  0  0  0  0  0
    2.7905    1.7710    1.8305 C   0  0  0  0  0  0  0  0  0  0  0  0
    3.0970    1.9820    0.4871 C   0  0  0  0  0  0  0  0  0  0  0  0
    2.7172    3.1498   -0.1437 C   0  0  0  0  0  0  0  0  0  0  0  0
    2.0371    4.1294    0.5654 C   0  0  0  0  0  0  0  0  0  0  0  0
    1.7363    3.9302    1.9021 C   0  0  0  0  0  0  0  0  0  0  0  0
    2.1131    2.7580    2.5361 C   0  0  0  0  0  0  0  0  0  0  0  0
    2.5863    0.2152    4.2002 C   0  0  0  0  0  0  0  0  0  0  0  0
    1.3226   -0.3435    4.3431 C   0  0  0  0  0  0  0  0  0  0  0  0
    0.7074   -0.3384    5.5827 C   0  0  0  0  0  0  0  0  0  0  0  0
    1.3457    0.2212    6.6774 C   0  0  0  0  0  0  0  0  0  0  0  0
    2.6085    0.7755    6.5382 C   0  0  0  0  0  0  0  0  0  0  0  0
    3.2274    0.7707    5.3032 C   0  0  0  0  0  0  0  0  0  0  0  0
    2.7332   -1.0687    1.6482 C   0  0  0  0  0  0  0  0  0  0  0  0
    1.5551   -0.9085    0.9235 C   0  0  0  0  0  0  0  0  0  0  0  0
    1.0287   -1.9795    0.2247 C   0  0  0  0  0  0  0  0  0  0  0  0
    1.6692   -3.2087    0.2444 C   0  0  0  0  0  0  0  0  0  0  0  0
    2.8428   -3.3691    0.9629 C   0  0  0  0  0  0  0  0  0  0  0  0
    3.3773   -2.3020    1.6618 C   0  0  0  0  0  0  0  0  0  0  0  0
    3.6315    1.2122   -0.0552 H   0  0  0  0  0  0  0  0  0  0  0  0
    2.9508    3.3023   -1.1875 H   0  0  0  0  0  0  0  0  0  0  0  0
    1.7425    5.0453    0.0747 H   0  0  0  0  0  0  0  0  0  0  0  0
    1.2054    4.6916    2.4552 H   0  0  0  0  0  0  0  0  0  0  0  0
    1.8783    2.6064    3.5804 H   0  0  0  0  0  0  0  0  0  0  0  0
    0.8278   -0.7905    3.4923 H   0  0  0  0  0  0  0  0  0  0  0  0
   -0.2724   -0.7793    5.6961 H   0  0  0  0  0  0  0  0  0  0  0  0
    0.8627    0.2156    7.6434 H   0  0  0  0  0  0  0  0  0  0  0  0
    3.1119    1.1993    7.3946 H   0  0  0  0  0  0  0  0  0  0  0  0
    4.2324    1.1677    5.1845 H   0  0  0  0  0  0  0  0  0  0  0  0
    1.0557    0.0510    0.9049 H   0  0  0  0  0  0  0  0  0  0  0  0
    0.1136   -1.8552   -0.3364 H   0  0  0  0  0  0  0  0  0  0  0  0
    1.2515   -4.0409   -0.3030 H   0  0  0  0  0  0  0  0  0  0  0  0
    3.3425   -4.3263    0.9771 H   0  0  0  0  0  0  0  0  0  0  0  0
    4.2913   -2.4135    2.2303 H   0  0  0  0  0  0  0  0  0  0  0  0
    6.5521    3.7024   -0.0067 H   0  0  0  0  0  0  0  0  0  0  0  0
    5.5026    4.8302    0.8762 H   0  0  0  0  0  0  0  0  0  0  0  0
    7.2285    4.7179    1.2786 H   0  0  0  0  0  0  0  0  0  0  0  0
    5.6002    2.7971    3.9340 H   0  0  0  0  0  0  0  0  0  0  0  0
    6.5323    4.2776    3.6076 H   0  0  0  0  0  0  0  0  0  0  0  0
    4.7999    4.2188    3.2003 H   0  0  0  0  0  0  0  0  0  0  0  0
    6.4248    1.6223    0.6801 H   0  0  0  0  0  0  0  0  0  0  0  0
    8.2746   -0.4893    3.0891 H   0  0  0  0  0  0  0  0  0  0  0  0
    7.8617    0.3188    4.6126 H   0  0  0  0  0  0  0  0  0  0  0  0
  1  7  1  0  0  0  0
  1  2  1  6  0  0  0
  3  7  1  0  0  0  0
  4  1  1  0  0  0  0
  4 16  1  0  0  0  0
  5  9  1  0  0  0  0
  6  5  1  0  0  0  0
  6  1  2  0  0  0  0
  7 51  1  0  0  0  0
  8 45  1  0  0  0  0
  8  5  1  0  0  0  0
  9 47  1  0  0  0  0
  9 46  1  0  0  0  0
 10 15  1  0  0  0  0
 10  4  1  0  0  0  0
 11 10  2  0  0  0  0
 12 11  1  0  0  0  0
 12 13  2  0  0  0  0
 13 14  1  0  0  0  0
 14 31  1  0  0  0  0
 14 15  2  0  0  0  0
 15 32  1  0  0  0  0
 16 17  2  0  0  0  0
 16 21  1  0  0  0  0
 17 18  1  0  0  0  0
 18 34  1  0  0  0  0
 18 19  2  0  0  0  0
 19 35  1  0  0  0  0
 20 19  1  0  0  0  0
 20 36  1  0  0  0  0
 21 20  2  0  0  0  0
 22 27  1  0  0  0  0
 22  4  1  0  0  0  0
 23 22  2  0  0  0  0
 24 25  2  0  0  0  0
 24 23  1  0  0  0  0
 25 26  1  0  0  0  0
 26 41  1  0  0  0  0
 26 27  2  0  0  0  0
 27 42  1  0  0  0  0
 28 11  1  0  0  0  0
 29 12  1  0  0  0  0
 30 13  1  0  0  0  0
 33 17  1  0  0  0  0
 37 21  1  0  0  0  0
 38 23  1  0  0  0  0
 39 24  1  0  0  0  0
 40 25  1  0  0  0  0
 43  8  1  0  0  0  0
 44  8  1  0  0  0  0
 48  9  1  0  0  0  0
 49  6  1  0  0  0  0
 50  7  1  0  0  0  0
M  END
$$$$
