CSD_code = XEVFUA | q = 0 | S = 0 | Stoichiometry = C26H20Cl2N2O2Pd | MND = 4
 OpenBabel04212202123D

 53 58  0  0  0  0  0  0  0  0999 V2000
    8.7867    1.2436    0.5360 Pd  0  0  0  0  0  0  0  0  0  0  0  0
    9.4680    3.0659   -0.5202 Cl  0  0  0  0  0  0  0  0  0  0  0  0
    8.0166    0.4939   -1.3999 Cl  0  0  0  0  0  0  0  0  0  0  0  0
    5.5305   -4.5683   -0.8308 O   0  0  0  0  0  0  0  0  0  0  0  0
   11.9504    6.7222    3.0245 O   0  0  0  0  0  0  0  0  0  0  0  0
    8.0827   -0.3123    1.6122 N   0  0  0  0  0  0  0  0  0  0  0  0
    9.3277    1.8967    2.3660 N   0  0  0  0  0  0  0  0  0  0  0  0
    4.1748   -4.8725   -0.6055 C   0  0  0  0  0  0  0  0  0  0  0  0
    6.0845   -3.5203   -0.1727 C   0  0  0  0  0  0  0  0  0  0  0  0
    7.4151   -3.2314   -0.4958 C   0  0  0  0  0  0  0  0  0  0  0  0
    8.0685   -2.1796    0.0980 C   0  0  0  0  0  0  0  0  0  0  0  0
    7.4182   -1.4058    1.0661 C   0  0  0  0  0  0  0  0  0  0  0  0
    6.0955   -1.6956    1.3925 C   0  0  0  0  0  0  0  0  0  0  0  0
    5.4289   -2.7354    0.7725 C   0  0  0  0  0  0  0  0  0  0  0  0
    8.1533   -0.0772    2.8943 C   0  0  0  0  0  0  0  0  0  0  0  0
    7.8037   -0.8316    4.0925 C   0  0  0  0  0  0  0  0  0  0  0  0
    7.2287   -2.0518    4.3613 C   0  0  0  0  0  0  0  0  0  0  0  0
    7.1133   -2.4632    5.7012 C   0  0  0  0  0  0  0  0  0  0  0  0
    7.5605   -1.7035    6.7540 C   0  0  0  0  0  0  0  0  0  0  0  0
    8.1819   -0.4570    6.5167 C   0  0  0  0  0  0  0  0  0  0  0  0
    8.2785   -0.0560    5.1815 C   0  0  0  0  0  0  0  0  0  0  0  0
    8.7396    0.4177    7.4761 C   0  0  0  0  0  0  0  0  0  0  0  0
    9.3606    1.5753    7.0763 C   0  0  0  0  0  0  0  0  0  0  0  0
    9.4649    1.9572    5.7267 C   0  0  0  0  0  0  0  0  0  0  0  0
    8.9093    1.1449    4.7659 C   0  0  0  0  0  0  0  0  0  0  0  0
    8.8369    1.1398    3.3093 C   0  0  0  0  0  0  0  0  0  0  0  0
    9.9718    3.1067    2.6059 C   0  0  0  0  0  0  0  0  0  0  0  0
   11.2068    3.3472    1.9925 C   0  0  0  0  0  0  0  0  0  0  0  0
   11.8407    4.5524    2.1696 C   0  0  0  0  0  0  0  0  0  0  0  0
   11.2468    5.5671    2.9288 C   0  0  0  0  0  0  0  0  0  0  0  0
   10.0062    5.3375    3.5183 C   0  0  0  0  0  0  0  0  0  0  0  0
    9.3818    4.1138    3.3656 C   0  0  0  0  0  0  0  0  0  0  0  0
   11.3808    7.8102    3.7122 C   0  0  0  0  0  0  0  0  0  0  0  0
    3.9493   -5.7133   -1.2593 H   0  0  0  0  0  0  0  0  0  0  0  0
    3.5266   -4.0299   -0.8642 H   0  0  0  0  0  0  0  0  0  0  0  0
    3.9954   -5.1658    0.4339 H   0  0  0  0  0  0  0  0  0  0  0  0
    7.9031   -3.8399   -1.2401 H   0  0  0  0  0  0  0  0  0  0  0  0
    9.0902   -1.9382   -0.1654 H   0  0  0  0  0  0  0  0  0  0  0  0
    5.5729   -1.0679    2.1008 H   0  0  0  0  0  0  0  0  0  0  0  0
    4.3962   -2.9145    1.0265 H   0  0  0  0  0  0  0  0  0  0  0  0
    6.8740   -2.6988    3.5740 H   0  0  0  0  0  0  0  0  0  0  0  0
    6.6548   -3.4210    5.8999 H   0  0  0  0  0  0  0  0  0  0  0  0
    7.4525   -2.0585    7.7683 H   0  0  0  0  0  0  0  0  0  0  0  0
    8.6838    0.1618    8.5239 H   0  0  0  0  0  0  0  0  0  0  0  0
    9.7941    2.2254    7.8222 H   0  0  0  0  0  0  0  0  0  0  0  0
    9.9811    2.8695    5.4709 H   0  0  0  0  0  0  0  0  0  0  0  0
   11.6511    2.5674    1.3872 H   0  0  0  0  0  0  0  0  0  0  0  0
   12.7950    4.7513    1.7100 H   0  0  0  0  0  0  0  0  0  0  0  0
    9.5090    6.1061    4.0887 H   0  0  0  0  0  0  0  0  0  0  0  0
    8.4032    3.9518    3.7951 H   0  0  0  0  0  0  0  0  0  0  0  0
   12.0988    8.6235    3.6220 H   0  0  0  0  0  0  0  0  0  0  0  0
   11.2267    7.5813    4.7719 H   0  0  0  0  0  0  0  0  0  0  0  0
   10.4309    8.1155    3.2628 H   0  0  0  0  0  0  0  0  0  0  0  0
  1  6  1  0  0  0  0
  1  7  1  0  0  0  0
  2  1  1  0  0  0  0
  3  1  1  0  0  0  0
  4  8  1  0  0  0  0
  4  9  1  0  0  0  0
  5 33  1  0  0  0  0
  6 15  1  0  0  0  0
  7 27  1  0  0  0  0
  7 26  1  0  0  0  0
  8 36  1  0  0  0  0
  9 14  1  0  0  0  0
 10  9  2  0  0  0  0
 10 11  1  0  0  0  0
 11 12  2  0  0  0  0
 12 13  1  0  0  0  0
 12  6  1  0  0  0  0
 13 39  1  0  0  0  0
 14 40  1  0  0  0  0
 14 13  2  0  0  0  0
 15 26  2  0  0  0  0
 15 16  1  0  0  0  0
 16 17  2  0  0  0  0
 16 21  1  0  0  0  0
 17 18  1  0  0  0  0
 18 42  1  0  0  0  0
 18 19  2  0  0  0  0
 19 43  1  0  0  0  0
 20 19  1  0  0  0  0
 20 22  1  0  0  0  0
 21 20  2  0  0  0  0
 22 44  1  0  0  0  0
 23 22  2  0  0  0  0
 23 45  1  0  0  0  0
 24 23  1  0  0  0  0
 25 21  1  0  0  0  0
 25 24  2  0  0  0  0
 26 25  1  0  0  0  0
 27 32  1  0  0  0  0
 28 29  1  0  0  0  0
 28 27  2  0  0  0  0
 29 30  2  0  0  0  0
 30  5  1  0  0  0  0
 30 31  1  0  0  0  0
 31 49  1  0  0  0  0
 32 31  2  0  0  0  0
 32 50  1  0  0  0  0
 33 52  1  0  0  0  0
 34  8  1  0  0  0  0
 35  8  1  0  0  0  0
 37 10  1  0  0  0  0
 38 11  1  0  0  0  0
 41 17  1  0  0  0  0
 46 24  1  0  0  0  0
 47 28  1  0  0  0  0
 48 29  1  0  0  0  0
 51 33  1  0  0  0  0
 53 33  1  0  0  0  0
M  END
$$$$
