CSD_code = XEVLEQ | q = 0 | S = 0 | Stoichiometry = C31H29BrCl2O2P2Pd | MND = 4
 OpenBabel04212202123D

 68 74  0  0  1  0  0  0  0  0999 V2000
   12.3914   21.3334    7.0391 Br  0  0  0  0  0  0  0  0  0  0  0  0
    7.9291   22.4136    1.8114 C   0  0  0  0  0  0  0  0  0  0  0  0
    8.4563   23.2481    0.8332 C   0  0  0  0  0  0  0  0  0  0  0  0
    9.0193   22.8218    0.0129 H   0  0  0  0  0  0  0  0  0  0  0  0
    8.2388   24.6125    0.9080 C   0  0  0  0  0  0  0  0  0  0  0  0
    8.6399   25.2643    0.1457 H   0  0  0  0  0  0  0  0  0  0  0  0
    7.5011   25.1407    1.9557 C   0  0  0  0  0  0  0  0  0  0  0  0
    7.3299   26.2056    2.0077 H   0  0  0  0  0  0  0  0  0  0  0  0
    6.9751   24.3079    2.9313 C   0  0  0  0  0  0  0  0  0  0  0  0
    6.3934   24.7235    3.7403 H   0  0  0  0  0  0  0  0  0  0  0  0
    7.1907   22.9436    2.8630 C   0  0  0  0  0  0  0  0  0  0  0  0
    6.7575   22.2731    3.6101 H   0  0  0  0  0  0  0  0  0  0  0  0
    8.1591   20.0912    0.0652 C   0  0  0  0  0  0  0  0  0  0  0  0
    8.9878   19.0508   -0.3423 C   0  0  0  0  0  0  0  0  0  0  0  0
    9.7041   18.6398    0.3556 H   0  0  0  0  0  0  0  0  0  0  0  0
    8.8921   18.5561   -1.6299 C   0  0  0  0  0  0  0  0  0  0  0  0
    9.5337   17.7452   -1.9432 H   0  0  0  0  0  0  0  0  0  0  0  0
    7.9687   19.0951   -2.5112 C   0  0  0  0  0  0  0  0  0  0  0  0
    7.8901   18.7054   -3.5155 H   0  0  0  0  0  0  0  0  0  0  0  0
    7.1398   20.1282   -2.1036 C   0  0  0  0  0  0  0  0  0  0  0  0
    6.4164   20.5436   -2.7895 H   0  0  0  0  0  0  0  0  0  0  0  0
    7.2266   20.6258   -0.8158 C   0  0  0  0  0  0  0  0  0  0  0  0
    6.5675   21.4142   -0.4845 H   0  0  0  0  0  0  0  0  0  0  0  0
   10.8049   21.5083    2.4424 C   0  0  2  0  0  0  0  0  0  0  0  0
   10.8836   22.3189    1.7100 H   0  0  0  0  0  0  0  0  0  0  0  0
   12.1581   20.8692    2.7951 C   0  0  0  0  0  0  0  0  0  0  0  0
   12.9947   21.1810    2.1755 H   0  0  0  0  0  0  0  0  0  0  0  0
   12.0915   19.7840    2.8046 H   0  0  0  0  0  0  0  0  0  0  0  0
   12.0987   21.5033    4.1949 C   0  0  1  0  0  0  0  0  0  0  0  0
   12.8834   22.2321    4.3903 H   0  0  0  0  0  0  0  0  0  0  0  0
   10.6931   22.0706    3.8864 C   0  0  2  0  0  0  0  0  0  0  0  0
   10.5874   23.1549    3.9032 H   0  0  0  0  0  0  0  0  0  0  0  0
    9.7362   21.4046    4.8688 C   0  0  0  0  0  0  0  0  0  0  0  0
    9.5749   22.0661    5.7220 H   0  0  0  0  0  0  0  0  0  0  0  0
    8.7575   21.1627    4.4301 H   0  0  0  0  0  0  0  0  0  0  0  0
   10.4451   20.1341    5.3497 C   0  0  2  0  0  0  0  0  0  0  0  0
   10.1111   19.8388    6.3533 H   0  0  0  0  0  0  0  0  0  0  0  0
   11.9317   20.5065    5.3318 C   0  0  2  0  0  0  0  0  0  0  0  0
   12.5718   19.6293    5.2374 H   0  0  0  0  0  0  0  0  0  0  0  0
    8.6130   17.4386    5.8375 C   0  0  0  0  0  0  0  0  0  0  0  0
    8.0128   18.0865    6.9112 C   0  0  0  0  0  0  0  0  0  0  0  0
    7.6067   19.0814    6.7716 H   0  0  0  0  0  0  0  0  0  0  0  0
    7.8983   17.4401    8.1282 C   0  0  0  0  0  0  0  0  0  0  0  0
    7.4269   17.9386    8.9619 H   0  0  0  0  0  0  0  0  0  0  0  0
    8.3768   16.1473    8.2700 C   0  0  0  0  0  0  0  0  0  0  0  0
    8.2786   15.6382    9.2174 H   0  0  0  0  0  0  0  0  0  0  0  0
    8.9704   15.5007    7.1980 C   0  0  0  0  0  0  0  0  0  0  0  0
    9.3335   14.4895    7.3103 H   0  0  0  0  0  0  0  0  0  0  0  0
    9.0931   16.1439    5.9788 C   0  0  0  0  0  0  0  0  0  0  0  0
    9.5488   15.6422    5.1362 H   0  0  0  0  0  0  0  0  0  0  0  0
    9.1780   17.1810    2.9796 C   0  0  0  0  0  0  0  0  0  0  0  0
    8.1111   16.7893    2.1690 C   0  0  0  0  0  0  0  0  0  0  0  0
    7.0966   17.1500    2.3838 H   0  0  0  0  0  0  0  0  0  0  0  0
    8.3313   15.9377    1.1018 C   0  0  0  0  0  0  0  0  0  0  0  0
    7.5069   15.6378    0.4725 H   0  0  0  0  0  0  0  0  0  0  0  0
    9.6135   15.4830    0.8325 C   0  0  0  0  0  0  0  0  0  0  0  0
    9.7869   14.8276   -0.0081 H   0  0  0  0  0  0  0  0  0  0  0  0
   10.6733   15.8699    1.6364 C   0  0  0  0  0  0  0  0  0  0  0  0
   11.6709   15.5134    1.4237 H   0  0  0  0  0  0  0  0  0  0  0  0
   10.4594   16.7158    2.7114 C   0  0  0  0  0  0  0  0  0  0  0  0
   11.2814   17.0264    3.3392 H   0  0  0  0  0  0  0  0  0  0  0  0
    5.6523   18.4578    4.7320 Cl  0  0  0  0  0  0  0  0  0  0  0  0
    5.5116   20.2922    1.9088 Cl  0  0  0  0  0  0  0  0  0  0  0  0
    9.8910   20.5427    1.9922 O   0  0  0  0  0  0  0  0  0  0  0  0
   10.2733   19.0337    4.4659 O   0  0  0  0  0  0  0  0  0  0  0  0
    8.2668   20.6286    1.7954 P   0  0  0  0  0  4  0  0  0  0  0  0
    8.7895   18.3765    4.2842 P   0  0  0  0  0  4  0  0  0  0  0  0
    7.1087   19.4945    3.3226 Pd  0  0  0  0  0  0  0  0  0  0  0  0
  2 11  1  0  0  0  0
  3  5  1  0  0  0  0
  3  2  2  0  0  0  0
  4  3  1  0  0  0  0
  5  7  2  0  0  0  0
  6  5  1  0  0  0  0
  7  8  1  0  0  0  0
  7  9  1  0  0  0  0
  9 10  1  0  0  0  0
 11  9  2  0  0  0  0
 11 12  1  0  0  0  0
 13 66  1  0  0  0  0
 14 13  1  0  0  0  0
 14 15  1  0  0  0  0
 16 14  2  0  0  0  0
 17 16  1  0  0  0  0
 18 20  2  0  0  0  0
 18 16  1  0  0  0  0
 19 18  1  0  0  0  0
 20 22  1  0  0  0  0
 21 20  1  0  0  0  0
 22 23  1  0  0  0  0
 22 13  2  0  0  0  0
 24 25  1  6  0  0  0
 24 26  1  0  0  0  0
 24 31  1  0  0  0  0
 26 28  1  0  0  0  0
 26 29  1  0  0  0  0
 27 26  1  0  0  0  0
 29 30  1  1  0  0  0
 29 38  1  0  0  0  0
 31 32  1  1  0  0  0
 31 29  1  0  0  0  0
 31 33  1  0  0  0  0
 33 36  1  0  0  0  0
 33 34  1  0  0  0  0
 35 33  1  0  0  0  0
 36 37  1  1  0  0  0
 38 39  1  6  0  0  0
 38 36  1  0  0  0  0
 38  1  1  0  0  0  0
 40 49  2  0  0  0  0
 40 41  1  0  0  0  0
 41 43  2  0  0  0  0
 42 41  1  0  0  0  0
 43 45  1  0  0  0  0
 43 44  1  0  0  0  0
 45 46  1  0  0  0  0
 47 48  1  0  0  0  0
 47 45  2  0  0  0  0
 49 47  1  0  0  0  0
 50 49  1  0  0  0  0
 51 67  1  0  0  0  0
 52 53  1  0  0  0  0
 52 51  2  0  0  0  0
 54 52  1  0  0  0  0
 55 54  1  0  0  0  0
 56 54  2  0  0  0  0
 56 58  1  0  0  0  0
 57 56  1  0  0  0  0
 58 60  2  0  0  0  0
 59 58  1  0  0  0  0
 60 51  1  0  0  0  0
 60 61  1  0  0  0  0
 63 68  1  0  0  0  0
 64 24  1  0  0  0  0
 65 36  1  0  0  0  0
 66  2  1  0  0  0  0
 66 64  1  0  0  0  0
 66 68  1  0  0  0  0
 67 65  1  0  0  0  0
 67 40  1  0  0  0  0
 68 67  1  0  0  0  0
 68 62  1  0  0  0  0
M  END
$$$$
