CSD_code = XEWBUX | q = 0 | S = 0 | Stoichiometry = C22H21AuClN3O2 | MND = 4
 OpenBabel04212202123D

 50 53  0  0  1  0  0  0  0  0999 V2000
    8.1732    7.9230    3.9647 Au  0  0  1  0  0  0  0  0  0  0  0  0
    8.6349   10.2139    3.7707 Cl  0  0  0  0  0  0  0  0  0  0  0  0
    9.2953    7.5162    2.3850 N   0  0  0  0  0  0  0  0  0  0  0  0
    9.8100    9.7506    0.8093 N   0  0  0  0  0  0  0  0  0  0  0  0
    9.7064    9.7950    1.8217 H   0  0  0  0  0  0  0  0  0  0  0  0
    7.0456    8.2810    5.6108 N   0  0  0  0  0  0  0  0  0  0  0  0
   10.6725    7.4644    4.0967 O   0  0  0  0  0  0  0  0  0  0  0  0
   10.5152   10.9797   -0.9799 O   0  0  0  0  0  0  0  0  0  0  0  0
    8.9484    7.5205    1.0233 C   0  0  0  0  0  0  0  0  0  0  0  0
    8.9244    8.5750   -1.1434 C   0  0  0  0  0  0  0  0  0  0  0  0
    9.1691    9.4160   -1.7707 H   0  0  0  0  0  0  0  0  0  0  0  0
    9.2379    8.6351    0.2123 C   0  0  0  0  0  0  0  0  0  0  0  0
    8.3039    7.4588   -1.6707 C   0  0  0  0  0  0  0  0  0  0  0  0
    8.0644    7.4340   -2.7231 H   0  0  0  0  0  0  0  0  0  0  0  0
    7.9750    6.3837   -0.8603 C   0  0  0  0  0  0  0  0  0  0  0  0
    7.4772    5.5191   -1.2729 H   0  0  0  0  0  0  0  0  0  0  0  0
    8.2969    6.4185    0.4832 C   0  0  0  0  0  0  0  0  0  0  0  0
    8.0594    5.5892    1.1344 H   0  0  0  0  0  0  0  0  0  0  0  0
   10.5331    7.4092    2.8708 C   0  0  0  0  0  0  0  0  0  0  0  0
   11.6762    7.1917    1.9199 C   0  0  0  0  0  0  0  0  0  0  0  0
   11.8960    8.1195    1.3948 H   0  0  0  0  0  0  0  0  0  0  0  0
   11.4132    6.4361    1.1828 H   0  0  0  0  0  0  0  0  0  0  0  0
   12.5529    6.8844    2.4831 H   0  0  0  0  0  0  0  0  0  0  0  0
   10.3560   10.8531    0.2140 C   0  0  0  0  0  0  0  0  0  0  0  0
   10.7802   11.8857    1.2318 C   0  0  0  0  0  0  0  0  0  0  0  0
   11.6221   11.5049    1.8077 H   0  0  0  0  0  0  0  0  0  0  0  0
    9.9651   12.0908    1.9221 H   0  0  0  0  0  0  0  0  0  0  0  0
   11.0795   12.7977    0.7235 H   0  0  0  0  0  0  0  0  0  0  0  0
    5.7897    7.8314    5.6718 C   0  0  2  0  0  3  0  0  0  0  0  0
    4.9951    8.1109    6.7770 C   0  0  0  0  0  0  0  0  0  0  0  0
    3.9818    7.7427    6.8101 H   0  0  0  0  0  0  0  0  0  0  0  0
    5.5106    8.8641    7.8167 C   0  0  0  0  0  0  0  0  0  0  0  0
    4.9031    9.0938    8.6788 H   0  0  0  0  0  0  0  0  0  0  0  0
    6.8193    9.3170    7.7316 C   0  0  0  0  0  0  0  0  0  0  0  0
    7.2636    9.9053    8.5173 H   0  0  0  0  0  0  0  0  0  0  0  0
    7.5550    9.0011    6.6075 C   0  0  0  0  0  0  0  0  0  0  0  0
    8.5742    9.3346    6.4829 H   0  0  0  0  0  0  0  0  0  0  0  0
    5.2998    7.0030    4.5267 C   0  0  0  0  0  0  0  0  0  0  0  0
    5.3068    7.6163    3.6196 H   0  0  0  0  0  0  0  0  0  0  0  0
    4.2776    6.6728    4.7129 H   0  0  0  0  0  0  0  0  0  0  0  0
    7.5637    6.0208    4.0656 C   0  0  0  0  0  0  0  0  0  0  0  0
    6.2145    5.8152    4.3258 C   0  0  0  0  0  0  0  0  0  0  0  0
    5.7202    4.5223    4.4293 C   0  0  0  0  0  0  0  0  0  0  0  0
    4.6696    4.3653    4.6287 H   0  0  0  0  0  0  0  0  0  0  0  0
    6.5656    3.4382    4.2713 C   0  0  0  0  0  0  0  0  0  0  0  0
    6.1729    2.4353    4.3475 H   0  0  0  0  0  0  0  0  0  0  0  0
    7.9106    3.6438    4.0253 C   0  0  0  0  0  0  0  0  0  0  0  0
    8.5792    2.8038    3.9124 H   0  0  0  0  0  0  0  0  0  0  0  0
    8.4074    4.9349    3.9238 C   0  0  0  0  0  0  0  0  0  0  0  0
    9.4585    5.0925    3.7410 H   0  0  0  0  0  0  0  0  0  0  0  0
  1  2  1  6  0  0  0
  1 41  1  0  0  0  0
  1  6  1  0  0  0  0
  3 19  1  0  0  0  0
  3  1  1  0  0  0  0
  4  5  1  0  0  0  0
  6 29  1  0  0  0  0
  6 36  1  0  0  0  0
  8 24  2  0  0  0  0
  9  3  1  0  0  0  0
 10 12  1  0  0  0  0
 11 10  1  0  0  0  0
 12  4  1  0  0  0  0
 12  9  2  0  0  0  0
 13 10  2  0  0  0  0
 13 15  1  0  0  0  0
 14 13  1  0  0  0  0
 15 17  2  0  0  0  0
 16 15  1  0  0  0  0
 17  9  1  0  0  0  0
 17 18  1  0  0  0  0
 19  7  2  0  0  0  0
 20 23  1  0  0  0  0
 20 19  1  0  0  0  0
 21 20  1  0  0  0  0
 22 20  1  0  0  0  0
 24  4  1  0  0  0  0
 24 25  1  0  0  0  0
 25 26  1  0  0  0  0
 25 27  1  0  0  0  0
 28 25  1  0  0  0  0
 29 30  1  1  0  0  0
 30 31  1  0  0  0  0
 30 32  2  0  0  0  0
 32 33  1  0  0  0  0
 34 32  1  0  0  0  0
 34 35  1  0  0  0  0
 36 34  2  0  0  0  0
 37 36  1  0  0  0  0
 38 40  1  0  0  0  0
 38 29  1  0  0  0  0
 39 38  1  0  0  0  0
 41 42  1  0  0  0  0
 42 43  2  0  0  0  0
 42 38  1  0  0  0  0
 43 44  1  0  0  0  0
 45 46  1  0  0  0  0
 45 43  1  0  0  0  0
 47 45  2  0  0  0  0
 48 47  1  0  0  0  0
 49 47  1  0  0  0  0
 49 41  2  0  0  0  0
 50 49  1  0  0  0  0
M  END
$$$$
