CSD_code = XEWTAU | q = 0 | S = 0 | Stoichiometry = C27H33AuBrP | MND = 2
 OpenBabel04212202123D

 63 65  0  0  0  0  0  0  0  0999 V2000
    2.4474    0.7277    2.7182 Au  0  0  0  0  0  0  0  0  0  0  0  0
    1.2695    1.9269    4.4180 Br  0  0  0  0  0  0  0  0  0  0  0  0
    3.5780   -0.4165    1.0880 P   0  0  0  0  0  4  0  0  0  0  0  0
    5.2567   -0.8429    1.6867 C   0  0  0  0  0  0  0  0  0  0  0  0
    5.9348    0.1888    2.3653 C   0  0  0  0  0  0  0  0  0  0  0  0
    7.0989   -0.0946    3.0607 C   0  0  0  0  0  0  0  0  0  0  0  0
    7.6275   -1.3755    3.1112 C   0  0  0  0  0  0  0  0  0  0  0  0
    6.9885   -2.3654    2.3848 C   0  0  0  0  0  0  0  0  0  0  0  0
    5.8249   -2.1279    1.6650 C   0  0  0  0  0  0  0  0  0  0  0  0
    5.4728    1.6142    2.3505 C   0  0  0  0  0  0  0  0  0  0  0  0
    8.8676   -1.6562    3.8996 C   0  0  0  0  0  0  0  0  0  0  0  0
    5.2862   -3.2711    0.8572 C   0  0  0  0  0  0  0  0  0  0  0  0
    3.7180    0.6296   -0.4099 C   0  0  0  0  0  0  0  0  0  0  0  0
    2.5470    1.3239   -0.7720 C   0  0  0  0  0  0  0  0  0  0  0  0
    2.6079    2.3226   -1.7301 C   0  0  0  0  0  0  0  0  0  0  0  0
    3.7976    2.6656   -2.3543 C   0  0  0  0  0  0  0  0  0  0  0  0
    4.9264    1.9286   -2.0397 C   0  0  0  0  0  0  0  0  0  0  0  0
    4.9127    0.9126   -1.0932 C   0  0  0  0  0  0  0  0  0  0  0  0
    1.2030    1.0126   -0.1869 C   0  0  0  0  0  0  0  0  0  0  0  0
    3.8381    3.7738   -3.3585 C   0  0  0  0  0  0  0  0  0  0  0  0
    6.1862    0.1414   -0.9115 C   0  0  0  0  0  0  0  0  0  0  0  0
    2.6739   -1.9569    0.6799 C   0  0  0  0  0  0  0  0  0  0  0  0
    2.1997   -2.6885    1.7866 C   0  0  0  0  0  0  0  0  0  0  0  0
    1.3184   -3.7390    1.5899 C   0  0  0  0  0  0  0  0  0  0  0  0
    0.8815   -4.1003    0.3245 C   0  0  0  0  0  0  0  0  0  0  0  0
    1.4021   -3.4126   -0.7581 C   0  0  0  0  0  0  0  0  0  0  0  0
    2.2951   -2.3592   -0.6120 C   0  0  0  0  0  0  0  0  0  0  0  0
    2.6291   -2.4060    3.1942 C   0  0  0  0  0  0  0  0  0  0  0  0
   -0.0958   -5.2193    0.1479 C   0  0  0  0  0  0  0  0  0  0  0  0
    2.8420   -1.7572   -1.8722 C   0  0  0  0  0  0  0  0  0  0  0  0
    7.6045    0.7072    3.5802 H   0  0  0  0  0  0  0  0  0  0  0  0
    7.4089   -3.3613    2.3685 H   0  0  0  0  0  0  0  0  0  0  0  0
    1.7014    2.8496   -1.9926 H   0  0  0  0  0  0  0  0  0  0  0  0
    5.8550    2.1437   -2.5498 H   0  0  0  0  0  0  0  0  0  0  0  0
    0.9615   -4.2885    2.4495 H   0  0  0  0  0  0  0  0  0  0  0  0
    1.1118   -3.7060   -1.7573 H   0  0  0  0  0  0  0  0  0  0  0  0
    6.3297    2.2833    2.4109 H   0  0  0  0  0  0  0  0  0  0  0  0
    4.9130    1.8552    1.4481 H   0  0  0  0  0  0  0  0  0  0  0  0
    4.8376    1.8202    3.2150 H   0  0  0  0  0  0  0  0  0  0  0  0
    9.1499   -2.7031    3.8250 H   0  0  0  0  0  0  0  0  0  0  0  0
    9.6932   -1.0447    3.5377 H   0  0  0  0  0  0  0  0  0  0  0  0
    8.7091   -1.4108    4.9488 H   0  0  0  0  0  0  0  0  0  0  0  0
    4.8503   -2.9328   -0.0786 H   0  0  0  0  0  0  0  0  0  0  0  0
    6.0930   -3.9648    0.6267 H   0  0  0  0  0  0  0  0  0  0  0  0
    4.5229   -3.8203    1.4075 H   0  0  0  0  0  0  0  0  0  0  0  0
    0.9971    1.6614    0.6674 H   0  0  0  0  0  0  0  0  0  0  0  0
    0.4247    1.1938   -0.9266 H   0  0  0  0  0  0  0  0  0  0  0  0
    1.1284   -0.0228    0.1426 H   0  0  0  0  0  0  0  0  0  0  0  0
    4.8425    3.9094   -3.7511 H   0  0  0  0  0  0  0  0  0  0  0  0
    3.1647    3.5591   -4.1874 H   0  0  0  0  0  0  0  0  0  0  0  0
    3.5126    4.7071   -2.9010 H   0  0  0  0  0  0  0  0  0  0  0  0
    5.9951   -0.9087   -0.7097 H   0  0  0  0  0  0  0  0  0  0  0  0
    6.7855    0.2111   -1.8177 H   0  0  0  0  0  0  0  0  0  0  0  0
    6.7787    0.5422   -0.0897 H   0  0  0  0  0  0  0  0  0  0  0  0
    2.6222   -3.3256    3.7771 H   0  0  0  0  0  0  0  0  0  0  0  0
    3.6295   -1.9783    3.2407 H   0  0  0  0  0  0  0  0  0  0  0  0
    1.9357   -1.7114    3.6737 H   0  0  0  0  0  0  0  0  0  0  0  0
   -1.0364   -4.9766    0.6408 H   0  0  0  0  0  0  0  0  0  0  0  0
   -0.2924   -5.4047   -0.9048 H   0  0  0  0  0  0  0  0  0  0  0  0
    0.2880   -6.1332    0.5993 H   0  0  0  0  0  0  0  0  0  0  0  0
    3.8843   -1.4716   -1.7620 H   0  0  0  0  0  0  0  0  0  0  0  0
    2.7704   -2.4812   -2.6820 H   0  0  0  0  0  0  0  0  0  0  0  0
    2.2777   -0.8728   -2.1664 H   0  0  0  0  0  0  0  0  0  0  0  0
  1  2  1  0  0  0  0
  3  4  1  0  0  0  0
  3  1  1  0  0  0  0
  4  5  1  0  0  0  0
  5  6  2  0  0  0  0
  6  7  1  0  0  0  0
  6 31  1  0  0  0  0
  7 11  1  0  0  0  0
  8  7  2  0  0  0  0
  9  4  2  0  0  0  0
  9  8  1  0  0  0  0
 10  5  1  0  0  0  0
 10 37  1  0  0  0  0
 10 39  1  0  0  0  0
 11 42  1  0  0  0  0
 12 45  1  0  0  0  0
 12  9  1  0  0  0  0
 13  3  1  0  0  0  0
 14 13  1  0  0  0  0
 14 19  1  0  0  0  0
 15 14  2  0  0  0  0
 16 17  2  0  0  0  0
 16 15  1  0  0  0  0
 17 18  1  0  0  0  0
 18 21  1  0  0  0  0
 18 13  2  0  0  0  0
 19 48  1  0  0  0  0
 19 46  1  0  0  0  0
 20 51  1  0  0  0  0
 20 16  1  0  0  0  0
 21 52  1  0  0  0  0
 21 54  1  0  0  0  0
 22  3  1  0  0  0  0
 22 23  1  0  0  0  0
 23 28  1  0  0  0  0
 24 23  2  0  0  0  0
 24 35  1  0  0  0  0
 25 24  1  0  0  0  0
 26 27  1  0  0  0  0
 26 25  2  0  0  0  0
 27 22  2  0  0  0  0
 28 56  1  0  0  0  0
 28 57  1  0  0  0  0
 28 55  1  0  0  0  0
 29 25  1  0  0  0  0
 29 60  1  0  0  0  0
 29 58  1  0  0  0  0
 30 61  1  0  0  0  0
 30 27  1  0  0  0  0
 32  8  1  0  0  0  0
 33 15  1  0  0  0  0
 34 17  1  0  0  0  0
 36 26  1  0  0  0  0
 38 10  1  0  0  0  0
 40 11  1  0  0  0  0
 41 11  1  0  0  0  0
 43 12  1  0  0  0  0
 44 12  1  0  0  0  0
 47 19  1  0  0  0  0
 49 20  1  0  0  0  0
 50 20  1  0  0  0  0
 53 21  1  0  0  0  0
 59 29  1  0  0  0  0
 62 30  1  0  0  0  0
 63 30  1  0  0  0  0
M  END
$$$$
