CSD_code = XEWTEY | q = 0 | S = 0 | Stoichiometry = C27H33AuIP | MND = 2
 OpenBabel04212202123D

 63 65  0  0  0  0  0  0  0  0999 V2000
    1.3408   14.8741    1.8276 Au  0  0  0  0  0  0  0  0  0  0  0  0
   -0.3401   15.2596   -0.0768 I   0  0  0  0  0  0  0  0  0  0  0  0
    2.8400   14.5252    3.5303 P   0  0  0  0  0  4  0  0  0  0  0  0
    1.9454   13.9933    5.0387 C   0  0  0  0  0  0  0  0  0  0  0  0
    0.9366   13.0348    4.8313 C   0  0  0  0  0  0  0  0  0  0  0  0
    0.0401   12.7444    5.8494 C   0  0  0  0  0  0  0  0  0  0  0  0
    0.1073   13.3730    7.0806 C   0  0  0  0  0  0  0  0  0  0  0  0
    1.1474   14.2650    7.2943 C   0  0  0  0  0  0  0  0  0  0  0  0
    2.0719   14.5811    6.3104 C   0  0  0  0  0  0  0  0  0  0  0  0
    0.7907   12.2700    3.5508 C   0  0  0  0  0  0  0  0  0  0  0  0
   -0.8889   13.0914    8.1607 C   0  0  0  0  0  0  0  0  0  0  0  0
    3.1920   15.4985    6.7024 C   0  0  0  0  0  0  0  0  0  0  0  0
    4.0355   13.2258    3.0406 C   0  0  0  0  0  0  0  0  0  0  0  0
    4.5378   13.3367    1.7294 C   0  0  0  0  0  0  0  0  0  0  0  0
    5.2569   12.2894    1.1768 C   0  0  0  0  0  0  0  0  0  0  0  0
    5.5028   11.1205    1.8805 C   0  0  0  0  0  0  0  0  0  0  0  0
    5.0588   11.0503    3.1900 C   0  0  0  0  0  0  0  0  0  0  0  0
    4.3423   12.0774    3.7897 C   0  0  0  0  0  0  0  0  0  0  0  0
    4.3563   14.5647    0.8897 C   0  0  0  0  0  0  0  0  0  0  0  0
    6.2670    9.9980    1.2525 C   0  0  0  0  0  0  0  0  0  0  0  0
    3.9926   11.9023    5.2377 C   0  0  0  0  0  0  0  0  0  0  0  0
    3.7489   16.0764    3.8844 C   0  0  0  0  0  0  0  0  0  0  0  0
    2.9574   17.2393    3.9257 C   0  0  0  0  0  0  0  0  0  0  0  0
    3.5637   18.4864    3.9477 C   0  0  0  0  0  0  0  0  0  0  0  0
    4.9409   18.6279    3.9324 C   0  0  0  0  0  0  0  0  0  0  0  0
    5.7088   17.4740    3.9589 C   0  0  0  0  0  0  0  0  0  0  0  0
    5.1479   16.2054    3.9461 C   0  0  0  0  0  0  0  0  0  0  0  0
    1.4602   17.2029    3.9779 C   0  0  0  0  0  0  0  0  0  0  0  0
    5.5858   19.9774    3.9019 C   0  0  0  0  0  0  0  0  0  0  0  0
    6.0928   15.0461    4.0603 C   0  0  0  0  0  0  0  0  0  0  0  0
   -0.7310   12.0091    5.6674 H   0  0  0  0  0  0  0  0  0  0  0  0
    1.2471   14.7292    8.2657 H   0  0  0  0  0  0  0  0  0  0  0  0
    2.9382   19.3676    3.9747 H   0  0  0  0  0  0  0  0  0  0  0  0
    6.7856   17.5620    3.9971 H   0  0  0  0  0  0  0  0  0  0  0  0
    5.6312   12.3887    0.1676 H   0  0  0  0  0  0  0  0  0  0  0  0
    5.2794   10.1675    3.7738 H   0  0  0  0  0  0  0  0  0  0  0  0
    0.4133   11.2694    3.7565 H   0  0  0  0  0  0  0  0  0  0  0  0
    1.7355   12.1756    3.0176 H   0  0  0  0  0  0  0  0  0  0  0  0
    0.0698   12.7599    2.8926 H   0  0  0  0  0  0  0  0  0  0  0  0
   -0.3843   12.8654    9.0986 H   0  0  0  0  0  0  0  0  0  0  0  0
   -1.5282   12.2541    7.8933 H   0  0  0  0  0  0  0  0  0  0  0  0
   -1.5176   13.9665    8.3242 H   0  0  0  0  0  0  0  0  0  0  0  0
    2.9659   16.5329    6.4455 H   0  0  0  0  0  0  0  0  0  0  0  0
    3.3416   15.4494    7.7796 H   0  0  0  0  0  0  0  0  0  0  0  0
    4.1246   15.2257    6.2165 H   0  0  0  0  0  0  0  0  0  0  0  0
    5.2103   14.6913    0.2261 H   0  0  0  0  0  0  0  0  0  0  0  0
    3.4675   14.4709    0.2618 H   0  0  0  0  0  0  0  0  0  0  0  0
    4.2566   15.4652    1.4941 H   0  0  0  0  0  0  0  0  0  0  0  0
    6.1866    9.0909    1.8460 H   0  0  0  0  0  0  0  0  0  0  0  0
    5.8960    9.7984    0.2491 H   0  0  0  0  0  0  0  0  0  0  0  0
    7.3213   10.2633    1.1706 H   0  0  0  0  0  0  0  0  0  0  0  0
    2.9891   11.4947    5.3568 H   0  0  0  0  0  0  0  0  0  0  0  0
    4.6906   11.2056    5.6987 H   0  0  0  0  0  0  0  0  0  0  0  0
    4.0417   12.8423    5.7802 H   0  0  0  0  0  0  0  0  0  0  0  0
    1.0869   18.0544    4.5448 H   0  0  0  0  0  0  0  0  0  0  0  0
    1.0405   17.2729    2.9719 H   0  0  0  0  0  0  0  0  0  0  0  0
    1.0869   16.2921    4.4438 H   0  0  0  0  0  0  0  0  0  0  0  0
    4.8924   20.7484    4.2284 H   0  0  0  0  0  0  0  0  0  0  0  0
    6.4680   19.9996    4.5383 H   0  0  0  0  0  0  0  0  0  0  0  0
    5.9012   20.2124    2.8850 H   0  0  0  0  0  0  0  0  0  0  0  0
    5.6694   14.2378    4.6498 H   0  0  0  0  0  0  0  0  0  0  0  0
    6.3537   14.6493    3.0795 H   0  0  0  0  0  0  0  0  0  0  0  0
    7.0130   15.3734    4.5413 H   0  0  0  0  0  0  0  0  0  0  0  0
  1  3  1  0  0  0  0
  2  1  1  0  0  0  0
  3 22  1  0  0  0  0
  3  4  1  0  0  0  0
  4  9  1  0  0  0  0
  5  4  2  0  0  0  0
  5  6  1  0  0  0  0
  6  7  2  0  0  0  0
  7  8  1  0  0  0  0
  7 11  1  0  0  0  0
  8 32  1  0  0  0  0
  9 12  1  0  0  0  0
  9  8  2  0  0  0  0
 10 37  1  0  0  0  0
 10  5  1  0  0  0  0
 11 42  1  0  0  0  0
 11 40  1  0  0  0  0
 12 44  1  0  0  0  0
 13  3  1  0  0  0  0
 13 18  1  0  0  0  0
 14 13  2  0  0  0  0
 15 14  1  0  0  0  0
 15 16  2  0  0  0  0
 16 17  1  0  0  0  0
 17 36  1  0  0  0  0
 17 18  2  0  0  0  0
 18 21  1  0  0  0  0
 19 48  1  0  0  0  0
 19 14  1  0  0  0  0
 20 49  1  0  0  0  0
 20 16  1  0  0  0  0
 21 52  1  0  0  0  0
 21 53  1  0  0  0  0
 21 54  1  0  0  0  0
 22 23  2  0  0  0  0
 22 27  1  0  0  0  0
 23 24  1  0  0  0  0
 23 28  1  0  0  0  0
 24 33  1  0  0  0  0
 25 24  2  0  0  0  0
 25 26  1  0  0  0  0
 26 34  1  0  0  0  0
 27 26  2  0  0  0  0
 27 30  1  0  0  0  0
 28 57  1  0  0  0  0
 28 55  1  0  0  0  0
 29 25  1  0  0  0  0
 29 58  1  0  0  0  0
 29 59  1  0  0  0  0
 30 63  1  0  0  0  0
 30 61  1  0  0  0  0
 31  6  1  0  0  0  0
 35 15  1  0  0  0  0
 38 10  1  0  0  0  0
 39 10  1  0  0  0  0
 41 11  1  0  0  0  0
 43 12  1  0  0  0  0
 45 12  1  0  0  0  0
 46 19  1  0  0  0  0
 47 19  1  0  0  0  0
 50 20  1  0  0  0  0
 51 20  1  0  0  0  0
 56 28  1  0  0  0  0
 60 29  1  0  0  0  0
 62 30  1  0  0  0  0
M  END
$$$$
