CSD_code = XEWXUV | q = 1 | S = 0 | Stoichiometry = C29H22ClN4O2Ru(1+) | MND = 6
 OpenBabel04212202123D

 59 66  0  0  1  0  0  0  0  0999 V2000
    2.4051   12.8977    6.1594 Ru  0  0  0  0  0  0  0  0  0  0  0  0
    3.8753   11.4886    4.9554 Cl  0  0  0  0  0  0  0  0  0  0  0  0
   -0.0927   13.2550    4.8622 O   0  0  0  0  0  0  0  0  0  0  0  0
   -0.3659    9.7896    2.6898 O   0  0  0  0  0  0  0  0  0  0  0  0
    0.3983    9.2083    2.8156 H   0  0  0  0  0  0  0  0  0  0  0  0
    1.2832   14.2024    7.1289 N   0  0  0  0  0  0  0  0  0  0  0  0
    2.5971   14.4607    4.9419 N   0  0  0  0  0  0  0  0  0  0  0  0
    4.0811   13.2892    7.2824 N   0  0  0  0  0  0  0  0  0  0  0  0
    2.3409   11.3641    7.4410 N   0  0  0  0  0  0  0  0  0  0  0  0
    0.8794   12.3453    5.0163 C   0  0  0  0  0  0  0  0  0  0  0  0
    0.7751   11.1431    4.2915 C   0  0  0  0  0  0  0  0  0  0  0  0
    1.5728   10.4203    4.4019 H   0  0  0  0  0  0  0  0  0  0  0  0
   -0.2634   10.8944    3.4218 C   0  0  0  0  0  0  0  0  0  0  0  0
   -1.3019   11.8789    3.2949 C   0  0  0  0  0  0  0  0  0  0  0  0
   -1.1592   13.0552    4.0503 C   0  0  0  0  0  0  0  0  0  0  0  0
   -2.1266   14.0580    3.9769 C   0  0  0  0  0  0  0  0  0  0  0  0
   -1.9957   14.9513    4.5673 H   0  0  0  0  0  0  0  0  0  0  0  0
   -3.2212   13.8847    3.1589 C   0  0  0  0  0  0  0  0  0  0  0  0
   -3.9714   14.6579    3.1012 H   0  0  0  0  0  0  0  0  0  0  0  0
   -3.3699   12.7203    2.4042 C   0  0  0  0  0  0  0  0  0  0  0  0
   -4.2334   12.6031    1.7691 H   0  0  0  0  0  0  0  0  0  0  0  0
   -2.4230   11.7263    2.4674 C   0  0  0  0  0  3  0  0  0  0  0  0
   -2.5189   10.8192    1.8927 H   0  0  0  0  0  0  0  0  0  0  0  0
    0.6551   13.9872    8.2869 C   0  0  0  0  0  3  0  0  0  0  0  0
    0.7771   13.0033    8.7237 H   0  0  0  0  0  0  0  0  0  0  0  0
   -0.1196   14.9403    8.9148 C   0  0  0  0  0  0  0  0  0  0  0  0
   -0.6058   14.7108    9.8488 H   0  0  0  0  0  0  0  0  0  0  0  0
   -0.2616   16.1904    8.3209 C   0  0  0  0  0  0  0  0  0  0  0  0
   -0.8630   16.9567    8.7824 H   0  0  0  0  0  0  0  0  0  0  0  0
    0.3880   16.4268    7.1256 C   0  0  0  0  0  0  0  0  0  0  0  0
    0.3012   17.3866    6.6436 H   0  0  0  0  0  0  0  0  0  0  0  0
    1.1577   15.4189    6.5452 C   0  0  0  0  0  0  0  0  0  0  0  0
    1.8953   15.5618    5.2960 C   0  0  1  0  0  3  0  0  0  0  0  0
    1.9151   16.7142    4.5091 C   0  0  0  0  0  0  0  0  0  0  0  0
    1.3474   17.5822    4.8010 H   0  0  0  0  0  0  0  0  0  0  0  0
    2.6686   16.7351    3.3514 C   0  0  0  0  0  0  0  0  0  0  0  0
    2.6951   17.6167    2.7310 H   0  0  0  0  0  0  0  0  0  0  0  0
    3.3904   15.5986    3.0049 C   0  0  0  0  0  0  0  0  0  0  0  0
    3.9925   15.5718    2.1117 H   0  0  0  0  0  0  0  0  0  0  0  0
    3.3239   14.4887    3.8251 C   0  0  0  0  0  0  0  0  0  0  0  0
    3.8660   13.5797    3.5897 H   0  0  0  0  0  0  0  0  0  0  0  0
    4.9029   14.3243    7.1481 C   0  0  0  0  0  3  0  0  0  0  0  0
    4.5299   15.1721    6.5846 H   0  0  0  0  0  0  0  0  0  0  0  0
    6.1764   14.3511    7.6866 C   0  0  0  0  0  0  0  0  0  0  0  0
    6.8068   15.2133    7.5434 H   0  0  0  0  0  0  0  0  0  0  0  0
    6.6206   13.2436    8.3953 C   0  0  0  0  0  0  0  0  0  0  0  0
    7.6137   13.2192    8.8152 H   0  0  0  0  0  0  0  0  0  0  0  0
    5.7667   12.1681    8.5515 C   0  0  0  0  0  0  0  0  0  0  0  0
    6.0938   11.2958    9.0919 H   0  0  0  0  0  0  0  0  0  0  0  0
    4.4935   12.2150    7.9838 C   0  0  0  0  0  0  0  0  0  0  0  0
    3.5009   11.1446    8.1025 C   0  0  1  0  0  3  0  0  0  0  0  0
    3.7002    9.9880    8.8554 C   0  0  0  0  0  0  0  0  0  0  0  0
    4.6351    9.8261    9.3649 H   0  0  0  0  0  0  0  0  0  0  0  0
    2.6970    9.0418    8.9389 C   0  0  0  0  0  0  0  0  0  0  0  0
    2.8409    8.1363    9.5060 H   0  0  0  0  0  0  0  0  0  0  0  0
    1.5000    9.2890    8.2791 C   0  0  0  0  0  0  0  0  0  0  0  0
    0.6836    8.5868    8.3236 H   0  0  0  0  0  0  0  0  0  0  0  0
    1.3703   10.4544    7.5496 C   0  0  0  0  0  0  0  0  0  0  0  0
    0.4495   10.6743    7.0229 H   0  0  0  0  0  0  0  0  0  0  0  0
  1  6  1  0  0  0  0
  1  8  1  0  0  0  0
  1  9  1  0  0  0  0
  2  1  1  0  0  0  0
  3 10  1  0  0  0  0
  4  5  1  0  0  0  0
  4 13  1  0  0  0  0
  6 24  1  0  0  0  0
  7 33  1  0  0  0  0
  7  1  1  0  0  0  0
  8 50  1  0  0  0  0
  9 58  1  0  0  0  0
  9 51  1  0  0  0  0
 10  1  1  0  0  0  0
 11 12  1  0  0  0  0
 11 10  2  0  0  0  0
 13 11  1  0  0  0  0
 14 13  2  0  0  0  0
 14 15  1  0  0  0  0
 15  3  1  0  0  0  0
 16 15  2  0  0  0  0
 16 17  1  0  0  0  0
 18 16  1  0  0  0  0
 19 18  1  0  0  0  0
 20 22  1  0  0  0  0
 20 18  2  0  0  0  0
 21 20  1  0  0  0  0
 22 14  1  0  0  0  0
 23 22  1  0  0  0  0
 24 25  1  0  0  0  0
 24 26  1  0  0  0  0
 26 27  1  0  0  0  0
 28 29  1  0  0  0  0
 28 26  2  0  0  0  0
 30 28  1  0  0  0  0
 31 30  1  0  0  0  0
 32 30  2  0  0  0  0
 32  6  1  0  0  0  0
 33 34  1  1  0  0  0
 33 32  1  0  0  0  0
 34 35  1  0  0  0  0
 36 34  2  0  0  0  0
 37 36  1  0  0  0  0
 38 36  1  0  0  0  0
 38 40  2  0  0  0  0
 39 38  1  0  0  0  0
 40  7  1  0  0  0  0
 41 40  1  0  0  0  0
 42  8  1  0  0  0  0
 42 44  1  0  0  0  0
 43 42  1  0  0  0  0
 44 46  2  0  0  0  0
 45 44  1  0  0  0  0
 46 48  1  0  0  0  0
 46 47  1  0  0  0  0
 48 49  1  0  0  0  0
 50 48  2  0  0  0  0
 51 50  1  1  0  0  0
 51 52  1  0  0  0  0
 52 54  2  0  0  0  0
 52 53  1  0  0  0  0
 54 55  1  0  0  0  0
 56 57  1  0  0  0  0
 56 54  1  0  0  0  0
 58 56  2  0  0  0  0
 59 58  1  0  0  0  0
M  END
$$$$
