CSD_code = XEWYAC | q = 1 | S = 0 | Stoichiometry = C19H26ClO2RuS4(1+) | MND = 6
 OpenBabel04212202123D

 53 58  0  0  0  0  0  0  0  0999 V2000
   -1.0937    4.7426   11.7390 Ru  0  0  0  0  0  0  0  0  0  0  0  0
   -0.0922    5.8231   13.7174 Cl  0  0  0  0  0  0  0  0  0  0  0  0
   -3.2233    4.6347   12.7757 S   0  0  2  0  0  3  0  0  0  0  0  0
   -1.6953    6.9074   11.0092 S   0  0  1  0  0  3  0  0  0  0  0  0
    1.0691    4.7280   10.7947 S   0  0  1  0  0  3  0  0  0  0  0  0
   -0.6119    2.5772   12.5743 S   0  0  1  0  0  3  0  0  0  0  0  0
   -1.0639    2.8548    9.7124 O   0  0  0  0  0  0  0  0  0  0  0  0
   -4.3697    3.8836    7.5171 O   0  0  0  0  0  0  0  0  0  0  0  0
   -4.8403    4.6513    7.8700 H   0  0  0  0  0  0  0  0  0  0  0  0
   -1.7881    3.8910   10.1243 C   0  0  0  0  0  0  0  0  0  0  0  0
   -2.9238    4.2574    9.3847 C   0  0  0  0  0  0  0  0  0  0  0  0
   -3.5020    5.1061    9.7253 H   0  0  0  0  0  0  0  0  0  0  0  0
   -3.3055    3.5732    8.2536 C   0  0  0  0  0  0  0  0  0  0  0  0
   -2.5138    2.4505    7.8328 C   0  0  0  0  0  0  0  0  0  0  0  0
   -1.3880    2.1339    8.6116 C   0  0  0  0  0  0  0  0  0  0  0  0
   -0.5751    1.0564    8.2611 C   0  0  0  0  0  0  0  0  0  0  0  0
    0.2845    0.8295    8.8711 H   0  0  0  0  0  0  0  0  0  0  0  0
   -0.8855    0.3056    7.1483 C   0  0  0  0  0  0  0  0  0  0  0  0
   -0.2586   -0.5293    6.8767 H   0  0  0  0  0  0  0  0  0  0  0  0
   -2.0014    0.6134    6.3700 C   0  0  0  0  0  0  0  0  0  0  0  0
   -2.2289    0.0146    5.5025 H   0  0  0  0  0  0  0  0  0  0  0  0
   -2.8095    1.6739    6.7044 C   0  0  0  0  0  3  0  0  0  0  0  0
   -3.6763    1.9285    6.1160 H   0  0  0  0  0  0  0  0  0  0  0  0
   -3.7594    6.3966   12.7780 C   0  0  0  0  0  0  0  0  0  0  0  0
   -4.5140    6.4505   11.9920 H   0  0  0  0  0  0  0  0  0  0  0  0
   -4.2303    6.5898   13.7413 H   0  0  0  0  0  0  0  0  0  0  0  0
   -2.6364    7.3797   12.5207 C   0  0  0  0  0  0  0  0  0  0  0  0
   -1.9253    7.3858   13.3488 H   0  0  0  0  0  0  0  0  0  0  0  0
   -3.0345    8.3824   12.3599 H   0  0  0  0  0  0  0  0  0  0  0  0
   -0.2204    7.9776   11.2004 C   0  0  0  0  0  0  0  0  0  0  0  0
   -0.5286    8.9684   10.8665 H   0  0  0  0  0  0  0  0  0  0  0  0
    0.0364    8.0086   12.2589 H   0  0  0  0  0  0  0  0  0  0  0  0
    0.9558    7.4773   10.3653 C   0  0  0  0  0  0  0  0  0  0  0  0
    0.5972    7.1156    9.3968 H   0  0  0  0  0  0  0  0  0  0  0  0
    1.6126    8.3298   10.1774 H   0  0  0  0  0  0  0  0  0  0  0  0
    1.7882    6.3939   11.0474 C   0  0  0  0  0  0  0  0  0  0  0  0
    1.8597    6.5722   12.1201 H   0  0  0  0  0  0  0  0  0  0  0  0
    2.7874    6.3548   10.6135 H   0  0  0  0  0  0  0  0  0  0  0  0
    1.8845    3.8050   12.1600 C   0  0  0  0  0  0  0  0  0  0  0  0
    2.9316    3.6698   11.8857 H   0  0  0  0  0  0  0  0  0  0  0  0
    1.8088    4.4216   13.0577 H   0  0  0  0  0  0  0  0  0  0  0  0
    1.2086    2.4647   12.3580 C   0  0  0  0  0  0  0  0  0  0  0  0
    1.6089    1.9497   13.2309 H   0  0  0  0  0  0  0  0  0  0  0  0
    1.3307    1.8360   11.4748 H   0  0  0  0  0  0  0  0  0  0  0  0
   -0.8212    2.7316   14.3895 C   0  0  0  0  0  0  0  0  0  0  0  0
   -0.4451    1.8012   14.8148 H   0  0  0  0  0  0  0  0  0  0  0  0
   -0.2262    3.5727   14.7437 H   0  0  0  0  0  0  0  0  0  0  0  0
   -2.2964    2.9083   14.7441 C   0  0  0  0  0  0  0  0  0  0  0  0
   -2.8981    2.1967   14.1708 H   0  0  0  0  0  0  0  0  0  0  0  0
   -2.4095    2.6631   15.8029 H   0  0  0  0  0  0  0  0  0  0  0  0
   -2.8453    4.3193   14.5444 C   0  0  0  0  0  0  0  0  0  0  0  0
   -2.1346    5.0711   14.8870 H   0  0  0  0  0  0  0  0  0  0  0  0
   -3.7923    4.4283   15.0729 H   0  0  0  0  0  0  0  0  0  0  0  0
  1  6  1  0  0  0  0
  1  3  1  0  0  0  0
  1  2  1  0  0  0  0
  3 24  1  1  0  0  0
  3 51  1  0  0  0  0
  4 30  1  1  0  0  0
  4  1  1  0  0  0  0
  4 27  1  0  0  0  0
  5 36  1  1  0  0  0
  5  1  1  0  0  0  0
  5 39  1  0  0  0  0
  6 42  1  1  0  0  0
  6 45  1  0  0  0  0
  7 10  1  0  0  0  0
  8  9  1  0  0  0  0
  8 13  1  0  0  0  0
 10  1  1  0  0  0  0
 11 12  1  0  0  0  0
 11 10  2  0  0  0  0
 13 11  1  0  0  0  0
 14 13  2  0  0  0  0
 14 15  1  0  0  0  0
 15  7  1  0  0  0  0
 16 15  2  0  0  0  0
 16 17  1  0  0  0  0
 18 16  1  0  0  0  0
 19 18  1  0  0  0  0
 20 22  1  0  0  0  0
 20 18  2  0  0  0  0
 21 20  1  0  0  0  0
 22 14  1  0  0  0  0
 23 22  1  0  0  0  0
 24 26  1  0  0  0  0
 25 24  1  0  0  0  0
 27 24  1  0  0  0  0
 27 28  1  0  0  0  0
 29 27  1  0  0  0  0
 30 32  1  0  0  0  0
 31 30  1  0  0  0  0
 33 36  1  0  0  0  0
 33 30  1  0  0  0  0
 34 33  1  0  0  0  0
 35 33  1  0  0  0  0
 36 37  1  0  0  0  0
 38 36  1  0  0  0  0
 39 42  1  0  0  0  0
 39 41  1  0  0  0  0
 40 39  1  0  0  0  0
 42 43  1  0  0  0  0
 44 42  1  0  0  0  0
 45 47  1  0  0  0  0
 45 48  1  0  0  0  0
 45 46  1  0  0  0  0
 48 50  1  0  0  0  0
 49 48  1  0  0  0  0
 51 48  1  0  0  0  0
 51 52  1  0  0  0  0
 51 53  1  0  0  0  0
M  END
$$$$
