CSD_code = XEXLAO | q = 0 | S = 0 | Stoichiometry = C36H23ClN2Pt | MND = 4
 OpenBabel04212202123D

 63 71  0  0  1  0  0  0  0  0999 V2000
    3.1290    1.7855   -0.0887 Pt  0  0  2  0  0  0  0  0  0  0  0  0
    4.2585    3.4783    1.1134 Cl  0  0  0  0  0  0  0  0  0  0  0  0
    4.4973    1.4138   -1.5666 N   0  0  0  0  0  0  0  0  0  0  0  0
    1.4920    1.5437    1.1074 N   0  0  0  0  0  0  0  0  0  0  0  0
    8.4067   -0.9843   -3.8019 C   0  0  0  0  0  0  0  0  0  0  0  0
    8.3439   -1.3331   -2.7812 H   0  0  0  0  0  0  0  0  0  0  0  0
    9.3621   -1.5009   -4.6573 C   0  0  0  0  0  0  0  0  0  0  0  0
   10.0420   -2.2628   -4.3054 H   0  0  0  0  0  0  0  0  0  0  0  0
    9.4456   -1.0457   -5.9626 C   0  0  0  0  0  0  0  0  0  0  0  0
   10.1895   -1.4523   -6.6314 H   0  0  0  0  0  0  0  0  0  0  0  0
    8.5685   -0.0714   -6.4095 C   0  0  0  0  0  0  0  0  0  0  0  0
    8.6237    0.2788   -7.4298 H   0  0  0  0  0  0  0  0  0  0  0  0
    7.6180    0.4549   -5.5543 C   0  0  0  0  0  0  0  0  0  0  0  0
    6.9207    1.2000   -5.9095 H   0  0  0  0  0  0  0  0  0  0  0  0
    7.5317    0.0063   -4.2388 C   0  0  0  0  0  0  0  0  0  0  0  0
    6.4999    0.5249   -3.3278 C   0  0  0  0  0  0  0  0  0  0  0  0
    5.6243   -0.3498   -2.7313 C   0  0  0  0  0  0  0  0  0  0  0  0
    5.6920   -1.4056   -2.9431 H   0  0  0  0  0  0  0  0  0  0  0  0
    4.6230    0.1040   -1.8600 C   0  0  0  0  0  0  0  0  0  0  0  0
    5.2863    2.3159   -2.2037 C   0  0  0  0  0  0  0  0  0  0  0  0
    6.3417    1.9144   -3.0684 C   0  0  0  0  0  0  0  0  0  0  0  0
    5.0321    3.6903   -2.0293 C   0  0  0  0  0  0  0  0  0  0  0  0
    4.1853    3.9769   -1.4178 H   0  0  0  0  0  0  0  0  0  0  0  0
    5.8412    4.6284   -2.6086 C   0  0  0  0  0  0  0  0  0  0  0  0
    5.6400    5.6789   -2.4647 H   0  0  0  0  0  0  0  0  0  0  0  0
    6.9420    4.2329   -3.3803 C   0  0  0  0  0  0  0  0  0  0  0  0
    7.5960    4.9821   -3.8007 H   0  0  0  0  0  0  0  0  0  0  0  0
    7.1815    2.9055   -3.6127 C   0  0  0  0  0  3  0  0  0  0  0  0
    8.0230    2.6002   -4.2159 H   0  0  0  0  0  0  0  0  0  0  0  0
    3.6452   -0.7698   -1.2271 C   0  0  0  0  0  0  0  0  0  0  0  0
    3.5571   -2.1604   -1.2452 C   0  0  0  0  0  0  0  0  0  0  0  0
    4.2451   -2.7583   -1.8253 H   0  0  0  0  0  0  0  0  0  0  0  0
    2.5897   -2.7900   -0.4737 C   0  0  0  0  0  0  0  0  0  0  0  0
    2.5248   -3.8682   -0.4943 H   0  0  0  0  0  0  0  0  0  0  0  0
    1.7438   -2.0822    0.3697 C   0  0  0  0  0  0  0  0  0  0  0  0
    1.0615   -2.6208    1.0112 H   0  0  0  0  0  0  0  0  0  0  0  0
    1.8182   -0.6910    0.3990 C   0  0  0  0  0  0  0  0  0  0  0  0
    2.7089   -0.0561   -0.4726 C   0  0  0  0  0  0  0  0  0  0  0  0
    1.1194    0.2564    1.2557 C   0  0  0  0  0  0  0  0  0  0  0  0
    0.1359   -0.1090    2.1867 C   0  0  0  0  0  0  0  0  0  0  0  0
   -0.0931   -1.1551    2.3182 H   0  0  0  0  0  0  0  0  0  0  0  0
   -0.4918    0.8338    2.9653 C   0  0  0  0  0  0  0  0  0  0  0  0
   -0.2089    2.2052    2.7110 C   0  0  0  0  0  0  0  0  0  0  0  0
    0.7926    2.5137    1.7498 C   0  0  2  0  0  3  0  0  0  0  0  0
   -0.9100    3.2637    3.3194 C   0  0  0  0  0  0  0  0  0  0  0  0
   -1.6932    3.0306    4.0251 H   0  0  0  0  0  0  0  0  0  0  0  0
   -0.6296    4.5657    3.0025 C   0  0  0  0  0  0  0  0  0  0  0  0
   -1.1756    5.3670    3.4777 H   0  0  0  0  0  0  0  0  0  0  0  0
    0.3472    4.8661    2.0446 C   0  0  0  0  0  0  0  0  0  0  0  0
    0.5440    5.8957    1.7875 H   0  0  0  0  0  0  0  0  0  0  0  0
    1.0366    3.8614    1.4230 C   0  0  0  0  0  0  0  0  0  0  0  0
    1.7787    4.0738    0.6628 H   0  0  0  0  0  0  0  0  0  0  0  0
   -1.4336    0.4103    4.0107 C   0  0  0  0  0  0  0  0  0  0  0  0
   -1.2852    0.8533    5.3231 C   0  0  0  0  0  0  0  0  0  0  0  0
   -0.4701    1.5176    5.5710 H   0  0  0  0  0  0  0  0  0  0  0  0
   -2.1547    0.4218    6.3077 C   0  0  0  0  0  0  0  0  0  0  0  0
   -2.0267    0.7654    7.3236 H   0  0  0  0  0  0  0  0  0  0  0  0
   -3.1846   -0.4501    5.9952 C   0  0  0  0  0  0  0  0  0  0  0  0
   -3.8648   -0.7827    6.7650 H   0  0  0  0  0  0  0  0  0  0  0  0
   -3.3366   -0.8979    4.6934 C   0  0  0  0  0  0  0  0  0  0  0  0
   -4.1377   -1.5786    4.4456 H   0  0  0  0  0  0  0  0  0  0  0  0
   -2.4634   -0.4765    3.7078 C   0  0  0  0  0  0  0  0  0  0  0  0
   -2.5880   -0.8169    2.6899 H   0  0  0  0  0  0  0  0  0  0  0  0
  1  4  1  0  0  0  0
  1  2  1  1  0  0  0
  3  1  1  0  0  0  0
  4 39  1  0  0  0  0
  4 44  1  0  0  0  0
  5  6  1  0  0  0  0
  7  8  1  0  0  0  0
  7  5  2  0  0  0  0
  9  7  1  0  0  0  0
 10  9  1  0  0  0  0
 11  9  2  0  0  0  0
 11 13  1  0  0  0  0
 12 11  1  0  0  0  0
 13 15  2  0  0  0  0
 14 13  1  0  0  0  0
 15  5  1  0  0  0  0
 15 16  1  0  0  0  0
 16 21  2  0  0  0  0
 16 17  1  0  0  0  0
 17 19  2  0  0  0  0
 18 17  1  0  0  0  0
 19  3  1  0  0  0  0
 19 30  1  0  0  0  0
 20 22  2  0  0  0  0
 20  3  1  0  0  0  0
 21 20  1  0  0  0  0
 22 23  1  0  0  0  0
 24 25  1  0  0  0  0
 24 22  1  0  0  0  0
 26 24  2  0  0  0  0
 27 26  1  0  0  0  0
 28 26  1  0  0  0  0
 28 21  1  0  0  0  0
 29 28  1  0  0  0  0
 30 38  1  0  0  0  0
 31 30  2  0  0  0  0
 31 33  1  0  0  0  0
 32 31  1  0  0  0  0
 33 35  2  0  0  0  0
 34 33  1  0  0  0  0
 35 37  1  0  0  0  0
 35 36  1  0  0  0  0
 37 39  1  0  0  0  0
 38  1  1  0  0  0  0
 38 37  2  0  0  0  0
 39 40  2  0  0  0  0
 40 41  1  0  0  0  0
 40 42  1  0  0  0  0
 42 53  1  0  0  0  0
 43 42  2  0  0  0  0
 43 45  1  0  0  0  0
 44 51  1  6  0  0  0
 44 43  1  0  0  0  0
 45 46  1  0  0  0  0
 47 45  2  0  0  0  0
 47 48  1  0  0  0  0
 49 47  1  0  0  0  0
 50 49  1  0  0  0  0
 51 49  2  0  0  0  0
 52 51  1  0  0  0  0
 53 54  1  0  0  0  0
 54 55  1  0  0  0  0
 54 56  2  0  0  0  0
 56 57  1  0  0  0  0
 58 56  1  0  0  0  0
 58 59  1  0  0  0  0
 60 58  2  0  0  0  0
 61 60  1  0  0  0  0
 62 53  2  0  0  0  0
 62 60  1  0  0  0  0
 63 62  1  0  0  0  0
M  END
$$$$
