CSD_code = XEXZAD | q = 0 | S = 0 | Stoichiometry = C19H26AuClN2 | MND = 2
 OpenBabel04212202123D

 49 52  0  0  0  0  0  0  0  0999 V2000
    2.4444    6.8619    3.2872 Au  0  0  0  0  0  0  0  0  0  0  0  0
    4.2708    5.2261    5.0055 N   0  0  0  0  0  0  0  0  0  0  0  0
    2.2110    5.0002    5.6693 N   0  0  0  0  0  0  0  0  0  0  0  0
    3.0007    5.6069    4.7613 C   0  0  0  0  0  3  0  0  0  0  0  0
    5.4006    5.6841    4.2229 C   0  0  0  0  0  0  0  0  0  0  0  0
    4.9736    6.3530    3.4639 H   0  0  0  0  0  0  0  0  0  0  0  0
    6.0987    4.5307    3.5003 C   0  0  0  0  0  0  0  0  0  0  0  0
    5.3681    3.9903    2.8943 H   0  0  0  0  0  0  0  0  0  0  0  0
    6.5226    3.8299    4.2206 H   0  0  0  0  0  0  0  0  0  0  0  0
    7.2104    5.0861    2.6142 C   0  0  0  0  0  0  0  0  0  0  0  0
    7.7223    4.2640    2.1111 H   0  0  0  0  0  0  0  0  0  0  0  0
    6.7731    5.7287    1.8476 H   0  0  0  0  0  0  0  0  0  0  0  0
    8.2051    5.8922    3.4443 C   0  0  0  0  0  0  0  0  0  0  0  0
    8.9855    6.2940    2.7965 H   0  0  0  0  0  0  0  0  0  0  0  0
    8.6840    5.2376    4.1768 H   0  0  0  0  0  0  0  0  0  0  0  0
    7.4969    7.0338    4.1678 C   0  0  0  0  0  0  0  0  0  0  0  0
    7.0647    7.7160    3.4333 H   0  0  0  0  0  0  0  0  0  0  0  0
    8.2126    7.5973    4.7689 H   0  0  0  0  0  0  0  0  0  0  0  0
    6.3883    6.4923    5.0662 C   0  0  0  0  0  0  0  0  0  0  0  0
    6.8246    5.8673    5.8465 H   0  0  0  0  0  0  0  0  0  0  0  0
    5.8592    7.3158    5.5506 H   0  0  0  0  0  0  0  0  0  0  0  0
    4.3086    4.3647    6.0810 C   0  0  0  0  0  0  0  0  0  0  0  0
    5.3351    3.6939    6.7343 C   0  0  0  0  0  0  0  0  0  0  0  0
    6.3640    3.7853    6.4287 H   0  0  0  0  0  0  0  0  0  0  0  0
    4.9987    2.8915    7.8056 C   0  0  0  0  0  0  0  0  0  0  0  0
    5.7769    2.3595    8.3307 H   0  0  0  0  0  0  0  0  0  0  0  0
    3.6778    2.7513    8.2265 C   0  0  0  0  0  0  0  0  0  0  0  0
    3.4576    2.1140    9.0688 H   0  0  0  0  0  0  0  0  0  0  0  0
    2.6479    3.4105    7.5877 C   0  0  0  0  0  0  0  0  0  0  0  0
    1.6297    3.2934    7.9233 H   0  0  0  0  0  0  0  0  0  0  0  0
    2.9755    4.2203    6.5088 C   0  0  0  0  0  0  0  0  0  0  0  0
    0.7683    5.1319    5.7714 C   0  0  0  0  0  0  0  0  0  0  0  0
    0.4604    4.5045    6.6151 H   0  0  0  0  0  0  0  0  0  0  0  0
    0.3575    6.5745    6.0738 C   0  0  0  0  0  0  0  0  0  0  0  0
    0.6799    7.2189    5.2535 H   0  0  0  0  0  0  0  0  0  0  0  0
    0.8546    6.9118    6.9868 H   0  0  0  0  0  0  0  0  0  0  0  0
   -1.1573    6.6655    6.2274 C   0  0  0  0  0  0  0  0  0  0  0  0
   -1.4399    7.7012    6.4206 H   0  0  0  0  0  0  0  0  0  0  0  0
   -1.4771    6.0653    7.0836 H   0  0  0  0  0  0  0  0  0  0  0  0
   -1.8486    6.1625    4.9642 C   0  0  0  0  0  0  0  0  0  0  0  0
   -2.9313    6.2289    5.0821 H   0  0  0  0  0  0  0  0  0  0  0  0
   -1.5610    6.7921    4.1205 H   0  0  0  0  0  0  0  0  0  0  0  0
   -1.4451    4.7199    4.6775 C   0  0  0  0  0  0  0  0  0  0  0  0
   -1.9333    4.3693    3.7672 H   0  0  0  0  0  0  0  0  0  0  0  0
   -1.7703    4.0781    5.5009 H   0  0  0  0  0  0  0  0  0  0  0  0
    0.0676    4.6162    4.5126 C   0  0  0  0  0  0  0  0  0  0  0  0
    0.3617    3.5796    4.3297 H   0  0  0  0  0  0  0  0  0  0  0  0
    0.3825    5.2150    3.6555 H   0  0  0  0  0  0  0  0  0  0  0  0
    1.7991    8.2618    1.6487 Cl  0  0  0  0  0  0  0  0  0  0  0  0
  1  4  1  0  0  0  0
  2 22  1  0  0  0  0
  3 32  1  0  0  0  0
  3 31  1  0  0  0  0
  4  2  1  0  0  0  0
  4  3  1  0  0  0  0
  5  2  1  0  0  0  0
  5 19  1  0  0  0  0
  6  5  1  0  0  0  0
  7  9  1  0  0  0  0
  7  5  1  0  0  0  0
  8  7  1  0  0  0  0
 10 13  1  0  0  0  0
 10  7  1  0  0  0  0
 11 10  1  0  0  0  0
 12 10  1  0  0  0  0
 13 16  1  0  0  0  0
 13 15  1  0  0  0  0
 14 13  1  0  0  0  0
 16 18  1  0  0  0  0
 16 19  1  0  0  0  0
 17 16  1  0  0  0  0
 19 21  1  0  0  0  0
 19 20  1  0  0  0  0
 22 31  2  0  0  0  0
 22 23  1  0  0  0  0
 23 25  2  0  0  0  0
 24 23  1  0  0  0  0
 25 27  1  0  0  0  0
 25 26  1  0  0  0  0
 27 28  1  0  0  0  0
 29 30  1  0  0  0  0
 29 27  2  0  0  0  0
 31 29  1  0  0  0  0
 32 34  1  0  0  0  0
 32 33  1  0  0  0  0
 34 37  1  0  0  0  0
 34 36  1  0  0  0  0
 35 34  1  0  0  0  0
 37 38  1  0  0  0  0
 37 39  1  0  0  0  0
 40 41  1  0  0  0  0
 40 37  1  0  0  0  0
 42 40  1  0  0  0  0
 43 40  1  0  0  0  0
 43 45  1  0  0  0  0
 44 43  1  0  0  0  0
 46 43  1  0  0  0  0
 46 32  1  0  0  0  0
 47 46  1  0  0  0  0
 48 46  1  0  0  0  0
 49  1  1  0  0  0  0
M  END
$$$$
