CSD_code = XEYBUZ | q = 0 | S = 0 | Stoichiometry = C27H27ClP2Pd | MND = 4
 OpenBabel04212202123D

 58 62  0  0  0  0  0  0  0  0999 V2000
    4.4561    4.6496    6.9094 Pd  0  0  0  0  0  0  0  0  0  0  0  0
    2.4419    5.3326    7.6874 Cl  0  0  0  0  0  0  0  0  0  0  0  0
    3.6573    4.6002    5.0069 C   0  0  0  0  0  0  0  0  0  0  0  0
    4.3926    4.4498    4.2066 H   0  0  0  0  0  0  0  0  0  0  0  0
    3.1218    5.5381    4.8223 H   0  0  0  0  0  0  0  0  0  0  0  0
    2.9325    3.7750    4.9772 H   0  0  0  0  0  0  0  0  0  0  0  0
    5.3515    4.4134    9.0636 P   0  0  0  0  0  4  0  0  0  0  0  0
    6.5343    4.1802    6.2373 P   0  0  0  0  0  4  0  0  0  0  0  0
    7.1929    4.1877    8.9203 C   0  0  0  0  0  0  0  0  0  0  0  0
    7.6454    5.1848    8.8729 H   0  0  0  0  0  0  0  0  0  0  0  0
    7.5866    3.6584    9.7932 H   0  0  0  0  0  0  0  0  0  0  0  0
    7.4947    3.4242    7.6352 C   0  0  0  0  0  0  0  0  0  0  0  0
    7.1707    2.3824    7.7346 H   0  0  0  0  0  0  0  0  0  0  0  0
    8.5649    3.4321    7.4038 H   0  0  0  0  0  0  0  0  0  0  0  0
    4.8608    2.6931    9.4455 C   0  0  0  0  0  0  0  0  0  0  0  0
    4.1188    1.9770    8.5084 C   0  0  0  0  0  0  0  0  0  0  0  0
    3.7971    2.4653    7.5747 H   0  0  0  0  0  0  0  0  0  0  0  0
    3.7607    0.6647    8.7653 C   0  0  0  0  0  0  0  0  0  0  0  0
    3.1818    0.1123    8.0396 H   0  0  0  0  0  0  0  0  0  0  0  0
    4.1360    0.0634    9.9554 C   0  0  0  0  0  0  0  0  0  0  0  0
    3.8531   -0.9594   10.1565 H   0  0  0  0  0  0  0  0  0  0  0  0
    4.8647    0.7760   10.8949 C   0  0  0  0  0  0  0  0  0  0  0  0
    5.1471    0.3091   11.8274 H   0  0  0  0  0  0  0  0  0  0  0  0
    5.2266    2.0863   10.6437 C   0  0  0  0  0  0  0  0  0  0  0  0
    5.7830    2.6487   11.3817 H   0  0  0  0  0  0  0  0  0  0  0  0
    5.1002    5.1999   10.6795 C   0  0  0  0  0  0  0  0  0  0  0  0
    3.7718    5.2773   11.0974 C   0  0  0  0  0  0  0  0  0  0  0  0
    2.9960    4.8796   10.4552 H   0  0  0  0  0  0  0  0  0  0  0  0
    3.4583    5.8763   12.3014 C   0  0  0  0  0  0  0  0  0  0  0  0
    2.4292    5.9333   12.6234 H   0  0  0  0  0  0  0  0  0  0  0  0
    4.4651    6.4109   13.0910 C   0  0  0  0  0  0  0  0  0  0  0  0
    4.2225    6.8799   14.0332 H   0  0  0  0  0  0  0  0  0  0  0  0
    5.7824    6.3554   12.6674 C   0  0  0  0  0  0  0  0  0  0  0  0
    6.5649    6.7827   13.2782 H   0  0  0  0  0  0  0  0  0  0  0  0
    6.1049    5.7571   11.4614 C   0  0  0  0  0  0  0  0  0  0  0  0
    7.1353    5.7276   11.1371 H   0  0  0  0  0  0  0  0  0  0  0  0
    7.0489    3.1817    4.8136 C   0  0  0  0  0  0  0  0  0  0  0  0
    6.7574    1.8197    4.8536 C   0  0  0  0  0  0  0  0  0  0  0  0
    6.2836    1.4032    5.7342 H   0  0  0  0  0  0  0  0  0  0  0  0
    7.0517    1.0134    3.7716 C   0  0  0  0  0  0  0  0  0  0  0  0
    6.8290   -0.0429    3.8085 H   0  0  0  0  0  0  0  0  0  0  0  0
    7.6215    1.5637    2.6336 C   0  0  0  0  0  0  0  0  0  0  0  0
    7.8493    0.9346    1.7861 H   0  0  0  0  0  0  0  0  0  0  0  0
    7.8809    2.9227    2.5762 C   0  0  0  0  0  0  0  0  0  0  0  0
    8.3059    3.3546    1.6819 H   0  0  0  0  0  0  0  0  0  0  0  0
    7.5896    3.7347    3.6583 C   0  0  0  0  0  0  0  0  0  0  0  0
    7.7755    4.7984    3.6057 H   0  0  0  0  0  0  0  0  0  0  0  0
    7.3672    5.7870    6.0665 C   0  0  0  0  0  0  0  0  0  0  0  0
    6.5837    6.9274    6.2367 C   0  0  0  0  0  0  0  0  0  0  0  0
    5.5033    6.8211    6.4177 H   0  0  0  0  0  0  0  0  0  0  0  0
    7.1638    8.1821    6.1721 C   0  0  0  0  0  0  0  0  0  0  0  0
    6.5563    9.0648    6.3054 H   0  0  0  0  0  0  0  0  0  0  0  0
    8.5239    8.3038    5.9366 C   0  0  0  0  0  0  0  0  0  0  0  0
    8.9771    9.2827    5.8846 H   0  0  0  0  0  0  0  0  0  0  0  0
    9.3067    7.1719    5.7670 C   0  0  0  0  0  0  0  0  0  0  0  0
   10.3667    7.2706    5.5830 H   0  0  0  0  0  0  0  0  0  0  0  0
    8.7341    5.9149    5.8339 C   0  0  0  0  0  0  0  0  0  0  0  0
    9.3443    5.0315    5.6992 H   0  0  0  0  0  0  0  0  0  0  0  0
  1  2  1  0  0  0  0
  1  7  1  0  0  0  0
  3  1  1  0  0  0  0
  4  3  1  0  0  0  0
  5  3  1  0  0  0  0
  6  3  1  0  0  0  0
  7 15  1  0  0  0  0
  7 26  1  0  0  0  0
  8  1  1  0  0  0  0
  8 12  1  0  0  0  0
  9  7  1  0  0  0  0
  9 11  1  0  0  0  0
 10  9  1  0  0  0  0
 12 13  1  0  0  0  0
 12  9  1  0  0  0  0
 14 12  1  0  0  0  0
 15 24  1  0  0  0  0
 16 18  1  0  0  0  0
 16 15  2  0  0  0  0
 17 16  1  0  0  0  0
 18 20  2  0  0  0  0
 19 18  1  0  0  0  0
 20 21  1  0  0  0  0
 20 22  1  0  0  0  0
 22 23  1  0  0  0  0
 24 22  2  0  0  0  0
 24 25  1  0  0  0  0
 26 27  2  0  0  0  0
 26 35  1  0  0  0  0
 27 29  1  0  0  0  0
 28 27  1  0  0  0  0
 29 30  1  0  0  0  0
 29 31  2  0  0  0  0
 31 32  1  0  0  0  0
 33 31  1  0  0  0  0
 33 34  1  0  0  0  0
 35 33  2  0  0  0  0
 36 35  1  0  0  0  0
 37 38  1  0  0  0  0
 37  8  1  0  0  0  0
 38 39  1  0  0  0  0
 40 41  1  0  0  0  0
 40 38  2  0  0  0  0
 42 40  1  0  0  0  0
 43 42  1  0  0  0  0
 44 42  2  0  0  0  0
 44 46  1  0  0  0  0
 45 44  1  0  0  0  0
 46 37  2  0  0  0  0
 47 46  1  0  0  0  0
 48 49  1  0  0  0  0
 48  8  1  0  0  0  0
 49 50  1  0  0  0  0
 51 49  2  0  0  0  0
 51 52  1  0  0  0  0
 53 51  1  0  0  0  0
 54 53  1  0  0  0  0
 55 57  1  0  0  0  0
 55 53  2  0  0  0  0
 56 55  1  0  0  0  0
 57 48  2  0  0  0  0
 58 57  1  0  0  0  0
M  END
$$$$
