CSD_code = XEYLIX | q = 0 | S = 0 | Stoichiometry = C18H21BrN2Ni | MND = 7
 OpenBabel04212202123D

 43 46  0  0  1  0  0  0  0  0999 V2000
    6.7675    4.9028    6.2774 Br  0  0  0  0  0 15  0  0  0  0  0  0
    7.0919    6.4431    7.8527 Ni  0  0  0  0  0  0  0  0  0  0  0  0
    4.8897    6.4512    9.7134 N   0  0  0  0  0  0  0  0  0  0  0  0
    4.2419    7.2161    7.8092 N   0  0  0  0  0  0  0  0  0  0  0  0
    7.7734    7.6858    9.3084 C   0  0  1  0  0  0  0  0  0  0  0  0
    8.7141    6.6439    9.1548 C   0  0  0  0  0  3  0  0  0  0  0  0
    9.0334    5.9575    9.9255 H   0  0  0  0  0  0  0  0  0  0  0  0
    9.1349    6.6226    7.8135 C   0  0  2  0  0  0  0  0  0  0  0  0
    9.8896    5.9659    7.4029 H   0  0  0  0  0  0  0  0  0  0  0  0
    8.6924    7.8482    7.1784 C   0  0  0  0  0  0  0  0  0  0  0  0
    8.9629    8.4169    5.9372 C   0  0  0  0  0  0  0  0  0  0  0  0
    9.5937    7.9047    5.2250 H   0  0  0  0  0  0  0  0  0  0  0  0
    8.4103    9.6495    5.6437 C   0  0  0  0  0  0  0  0  0  0  0  0
    8.6197   10.1133    4.6912 H   0  0  0  0  0  0  0  0  0  0  0  0
    7.5915   10.3104    6.5565 C   0  0  0  0  0  0  0  0  0  0  0  0
    7.1835   11.2768    6.2969 H   0  0  0  0  0  0  0  0  0  0  0  0
    7.2952    9.7567    7.7885 C   0  0  0  0  0  0  0  0  0  0  0  0
    6.6596   10.2823    8.4896 H   0  0  0  0  0  0  0  0  0  0  0  0
    7.8441    8.5190    8.1104 C   0  0  0  0  0  0  0  0  0  0  0  0
    5.2957    6.6775    8.4465 C   0  0  1  0  0  3  0  0  0  0  0  0
    3.5891    6.8381    9.8657 C   0  0  0  0  0  0  0  0  0  0  0  0
    3.0641    6.7406   10.7938 H   0  0  0  0  0  0  0  0  0  0  0  0
    3.1800    7.3143    8.6645 C   0  0  0  0  0  0  0  0  0  0  0  0
    2.2290    7.7035    8.3674 H   0  0  0  0  0  0  0  0  0  0  0  0
    7.0858    8.1216   10.5718 C   0  0  0  0  0  0  0  0  0  0  0  0
    6.2529    8.7792   10.3041 H   0  0  0  0  0  0  0  0  0  0  0  0
    7.7890    8.7232   11.1598 H   0  0  0  0  0  0  0  0  0  0  0  0
    6.5586    6.9921   11.4708 C   0  0  0  0  0  0  0  0  0  0  0  0
    5.9257    7.4445   12.2380 H   0  0  0  0  0  0  0  0  0  0  0  0
    7.3904    6.4999   11.9773 H   0  0  0  0  0  0  0  0  0  0  0  0
    5.7632    5.9078   10.7236 C   0  0  0  0  0  0  0  0  0  0  0  0
    6.4547    5.2267   10.2084 H   0  0  0  0  0  0  0  0  0  0  0  0
    5.1726    5.3247   11.4342 H   0  0  0  0  0  0  0  0  0  0  0  0
    4.2539    7.6038    6.4081 C   0  0  0  0  0  0  0  0  0  0  0  0
    5.3011    7.5039    6.0805 H   0  0  0  0  0  0  0  0  0  0  0  0
    3.3879    6.6460    5.5974 C   0  0  0  0  0  0  0  0  0  0  0  0
    3.7737    5.6339    5.6913 H   0  0  0  0  0  0  0  0  0  0  0  0
    3.4186    6.9256    4.5490 H   0  0  0  0  0  0  0  0  0  0  0  0
    2.3550    6.6722    5.9378 H   0  0  0  0  0  0  0  0  0  0  0  0
    3.8207    9.0575    6.2541 C   0  0  0  0  0  0  0  0  0  0  0  0
    2.7723    9.1864    6.5138 H   0  0  0  0  0  0  0  0  0  0  0  0
    3.9587    9.3669    5.2223 H   0  0  0  0  0  0  0  0  0  0  0  0
    4.4251    9.7028    6.8876 H   0  0  0  0  0  0  0  0  0  0  0  0
  2 20  1  0  0  0  0
  2  5  1  0  0  0  0
  3 21  1  0  0  0  0
  3 31  1  0  0  0  0
  4 23  1  0  0  0  0
  5 19  1  6  0  0  0
  5 25  1  0  0  0  0
  6  5  1  0  0  0  0
  6  7  1  0  0  0  0
  8  9  1  6  0  0  0
  8  2  1  0  0  0  0
  8  6  1  0  0  0  0
 10  8  1  0  0  0  0
 10 19  1  0  0  0  0
 11 10  2  0  0  0  0
 12 11  1  0  0  0  0
 13 11  1  0  0  0  0
 13 15  2  0  0  0  0
 14 13  1  0  0  0  0
 15 17  1  0  0  0  0
 16 15  1  0  0  0  0
 17 19  2  0  0  0  0
 17 18  1  0  0  0  0
 20  4  1  1  0  0  0
 20  3  1  0  0  0  0
 21 22  1  0  0  0  0
 23 21  2  0  0  0  0
 24 23  1  0  0  0  0
 25 27  1  0  0  0  0
 25 28  1  0  0  0  0
 26 25  1  0  0  0  0
 28 30  1  0  0  0  0
 28 29  1  0  0  0  0
 31 33  1  0  0  0  0
 31 28  1  0  0  0  0
 32 31  1  0  0  0  0
 34  4  1  0  0  0  0
 35 34  1  0  0  0  0
 36 37  1  0  0  0  0
 36 39  1  0  0  0  0
 36 34  1  0  0  0  0
 38 36  1  0  0  0  0
 40 34  1  0  0  0  0
 40 41  1  0  0  0  0
 40 43  1  0  0  0  0
 42 40  1  0  0  0  0
M  END
$$$$
