CSD_code = XEYWII | q = 0 | S = 0 | Stoichiometry = C36H20Cl2N8Zn | MND = 6
 OpenBabel04212202123D

 67 78  0  0  0  0  0  0  0  0999 V2000
   -0.6250    4.8135    6.9633 Zn  0  0  0  0  0  0  0  0  0  0  0  0
    0.4926    3.5399    8.5188 Cl  0  0  0  0  0  0  0  0  0  0  0  0
   -0.3659    7.8173    1.1091 N   0  0  0  0  0  0  0  0  0  0  0  0
    1.0593    5.0236    5.6366 N   0  0  0  0  0  0  0  0  0  0  0  0
    2.0003    6.3215    1.1378 N   0  0  0  0  0  0  0  0  0  0  0  0
    2.9716    4.0946    4.5697 C   0  0  0  0  0  0  0  0  0  0  0  0
    3.8277    3.4425    4.6385 H   0  0  0  0  0  0  0  0  0  0  0  0
   -0.0137    7.1129    2.1663 C   0  0  0  0  0  0  0  0  0  0  0  0
    0.4443    7.7963    0.0417 C   0  0  0  0  0  0  0  0  0  0  0  0
    1.5539    5.5979    3.3652 C   0  0  0  0  0  0  0  0  0  0  0  0
    0.7534    5.6815    4.5159 C   0  0  0  0  0  0  0  0  0  0  0  0
    1.1944    6.3478    2.1807 C   0  0  0  0  0  0  0  0  0  0  0  0
    2.1272    4.2525    5.6673 C   0  0  0  0  0  0  0  0  0  0  0  0
    2.3021    3.7380    6.6030 H   0  0  0  0  0  0  0  0  0  0  0  0
    2.6857    4.7772    3.4072 C   0  0  0  0  0  0  0  0  0  0  0  0
    3.2999    4.6959    2.5236 H   0  0  0  0  0  0  0  0  0  0  0  0
    1.6526    7.0336    0.0568 C   0  0  0  0  0  0  0  0  0  0  0  0
    2.1397    7.7810   -2.1732 C   0  0  0  0  0  0  0  0  0  0  0  0
    2.7775    7.7946   -3.0445 H   0  0  0  0  0  0  0  0  0  0  0  0
    2.4909    7.0444   -1.0788 C   0  0  0  0  0  0  0  0  0  0  0  0
    3.3985    6.4621   -1.0474 H   0  0  0  0  0  0  0  0  0  0  0  0
    0.1127    8.5444   -1.1084 C   0  0  0  0  0  0  0  0  0  0  0  0
   -0.8045    9.1123   -1.0996 H   0  0  0  0  0  0  0  0  0  0  0  0
    0.9479    8.5326   -2.1881 C   0  0  0  0  0  0  0  0  0  0  0  0
    0.7005    9.1038   -3.0706 H   0  0  0  0  0  0  0  0  0  0  0  0
   -0.4655    6.4646    4.5059 C   0  0  0  0  0  0  0  0  0  0  0  0
   -0.8628    7.1362    3.3377 C   0  0  0  0  0  0  0  0  0  0  0  0
   -2.0843    7.8155    3.3501 C   0  0  0  0  0  0  0  0  0  0  0  0
   -2.4063    8.3228    2.4539 H   0  0  0  0  0  0  0  0  0  0  0  0
   -1.1973    6.4895    5.6201 N   0  0  0  0  0  0  0  0  0  0  0  0
   -2.3431    7.1340    5.6189 C   0  0  0  0  0  0  0  0  0  0  0  0
   -2.8971    7.1102    6.5468 H   0  0  0  0  0  0  0  0  0  0  0  0
   -2.8377    7.8064    4.5039 C   0  0  0  0  0  0  0  0  0  0  0  0
   -3.7921    8.3068    4.5513 H   0  0  0  0  0  0  0  0  0  0  0  0
   -1.7426    3.5403    5.4074 Cl  0  0  0  0  0  0  0  0  0  0  0  0
   -0.8845    7.8173   12.8174 N   0  0  0  0  0  0  0  0  0  0  0  0
   -2.3094    5.0236    8.2899 N   0  0  0  0  0  0  0  0  0  0  0  0
   -3.2506    6.3215   12.7886 N   0  0  0  0  0  0  0  0  0  0  0  0
   -4.2217    4.0946    9.3567 C   0  0  0  0  0  0  0  0  0  0  0  0
   -5.0778    3.4424    9.2878 H   0  0  0  0  0  0  0  0  0  0  0  0
   -1.2365    7.1128   11.7602 C   0  0  0  0  0  0  0  0  0  0  0  0
   -1.6948    7.7963   13.8847 C   0  0  0  0  0  0  0  0  0  0  0  0
   -2.8041    5.5977   10.5612 C   0  0  0  0  0  0  0  0  0  0  0  0
   -2.0034    5.6814    9.4106 C   0  0  0  0  0  0  0  0  0  0  0  0
   -2.4447    6.3477   11.7457 C   0  0  0  0  0  0  0  0  0  0  0  0
   -3.3773    4.2525    8.2591 C   0  0  0  0  0  0  0  0  0  0  0  0
   -3.5521    3.7380    7.3233 H   0  0  0  0  0  0  0  0  0  0  0  0
   -3.9359    4.7771   10.5192 C   0  0  0  0  0  0  0  0  0  0  0  0
   -4.5502    4.6958   11.4027 H   0  0  0  0  0  0  0  0  0  0  0  0
   -2.9031    7.0336   13.8696 C   0  0  0  0  0  0  0  0  0  0  0  0
   -3.3904    7.7813   16.0995 C   0  0  0  0  0  0  0  0  0  0  0  0
   -4.0284    7.7950   16.9707 H   0  0  0  0  0  0  0  0  0  0  0  0
   -3.7416    7.0446   15.0051 C   0  0  0  0  0  0  0  0  0  0  0  0
   -4.6491    6.4623   14.9736 H   0  0  0  0  0  0  0  0  0  0  0  0
   -1.3633    8.5446   15.0348 C   0  0  0  0  0  0  0  0  0  0  0  0
   -0.4461    9.1124   15.0261 H   0  0  0  0  0  0  0  0  0  0  0  0
   -2.1986    8.5328   16.1144 C   0  0  0  0  0  0  0  0  0  0  0  0
   -1.9513    9.1041   16.9969 H   0  0  0  0  0  0  0  0  0  0  0  0
   -0.7846    6.4644    9.4207 C   0  0  0  0  0  0  0  0  0  0  0  0
   -0.3873    7.1359   10.5890 C   0  0  0  0  0  0  0  0  0  0  0  0
    0.8343    7.8152   10.5767 C   0  0  0  0  0  0  0  0  0  0  0  0
    1.1562    8.3224   11.4729 H   0  0  0  0  0  0  0  0  0  0  0  0
   -0.0527    6.4893    8.3066 N   0  0  0  0  0  0  0  0  0  0  0  0
    1.0932    7.1336    8.3079 C   0  0  0  0  0  0  0  0  0  0  0  0
    1.6474    7.1096    7.3801 H   0  0  0  0  0  0  0  0  0  0  0  0
    1.5878    7.8060    9.4230 C   0  0  0  0  0  0  0  0  0  0  0  0
    2.5423    8.3063    9.3757 H   0  0  0  0  0  0  0  0  0  0  0  0
  1 37  1  0  0  0  0
  1 63  1  0  0  0  0
  1  2  1  0  0  0  0
  3  8  1  0  0  0  0
  4 13  1  0  0  0  0
  4  1  1  0  0  0  0
  5 12  1  0  0  0  0
  6  7  1  0  0  0  0
  6 13  2  0  0  0  0
  8 12  2  0  0  0  0
  8 27  1  0  0  0  0
  9 17  1  0  0  0  0
  9  3  2  0  0  0  0
 10 15  2  0  0  0  0
 10 11  1  0  0  0  0
 11  4  1  0  0  0  0
 12 10  1  0  0  0  0
 13 14  1  0  0  0  0
 15  6  1  0  0  0  0
 16 15  1  0  0  0  0
 17  5  2  0  0  0  0
 18 20  2  0  0  0  0
 19 18  1  0  0  0  0
 20 21  1  0  0  0  0
 20 17  1  0  0  0  0
 22 23  1  0  0  0  0
 22  9  1  0  0  0  0
 24 18  1  0  0  0  0
 24 22  2  0  0  0  0
 25 24  1  0  0  0  0
 26 11  2  0  0  0  0
 26 30  1  0  0  0  0
 27 28  2  0  0  0  0
 27 26  1  0  0  0  0
 28 33  1  0  0  0  0
 29 28  1  0  0  0  0
 30  1  1  0  0  0  0
 31 30  1  0  0  0  0
 31 32  1  0  0  0  0
 33 34  1  0  0  0  0
 33 31  2  0  0  0  0
 35  1  1  0  0  0  0
 36 42  1  0  0  0  0
 37 44  1  0  0  0  0
 38 50  1  0  0  0  0
 39 48  1  0  0  0  0
 40 39  1  0  0  0  0
 41 36  2  0  0  0  0
 42 55  1  0  0  0  0
 43 45  1  0  0  0  0
 44 59  2  0  0  0  0
 44 43  1  0  0  0  0
 45 41  1  0  0  0  0
 45 38  2  0  0  0  0
 46 37  1  0  0  0  0
 46 39  2  0  0  0  0
 47 46  1  0  0  0  0
 48 43  2  0  0  0  0
 48 49  1  0  0  0  0
 50 42  2  0  0  0  0
 50 53  1  0  0  0  0
 51 57  1  0  0  0  0
 51 52  1  0  0  0  0
 53 51  2  0  0  0  0
 54 53  1  0  0  0  0
 55 57  2  0  0  0  0
 56 55  1  0  0  0  0
 57 58  1  0  0  0  0
 59 60  1  0  0  0  0
 60 41  1  0  0  0  0
 61 60  2  0  0  0  0
 61 62  1  0  0  0  0
 63 64  1  0  0  0  0
 63 59  1  0  0  0  0
 64 66  2  0  0  0  0
 65 64  1  0  0  0  0
 66 61  1  0  0  0  0
 67 66  1  0  0  0  0
M  END
$$$$
