CSD_code = XEZPEA | q = 0 | S = 0 | Stoichiometry = C25H34ClN2O3OsP | MND = 6
 OpenBabel04212202123D

 67 69  0  0  1  0  0  0  0  0999 V2000
    4.9600    4.0209    2.9475 Os  0  0  0  0  0  0  0  0  0  0  0  0
    4.0847    4.6590    0.7062 P   0  0  0  0  0  4  0  0  0  0  0  0
    6.9999    3.4471    1.7603 Cl  0  0  0  0  0  0  0  0  0  0  0  0
    6.1580    3.6342    5.8607 N   0  0  0  0  0  0  0  0  0  0  0  0
    6.4552    1.9145    4.6058 N   0  0  0  0  0  0  0  0  0  0  0  0
    5.4088    0.2278    1.5740 O   0  0  0  0  0  0  0  0  0  0  0  0
    6.4602    6.5912    3.5703 O   0  0  0  0  0  1  0  0  0  0  0  0
    2.7847    5.2388    4.6314 O   0  0  0  0  0  1  0  0  0  0  0  0
    5.9109    3.1475    4.6208 C   0  0  2  0  0  3  0  0  0  0  0  0
    5.8190    4.9346    6.3778 C   0  0  0  0  0  0  0  0  0  0  0  0
    6.6158    5.6506    6.1650 H   0  0  0  0  0  0  0  0  0  0  0  0
    5.6868    4.8658    7.4569 H   0  0  0  0  0  0  0  0  0  0  0  0
    4.8962    5.2938    5.9280 H   0  0  0  0  0  0  0  0  0  0  0  0
    6.8526    2.7165    6.6001 C   0  0  0  0  0  0  0  0  0  0  0  0
    7.1520    2.9024    7.6108 H   0  0  0  0  0  0  0  0  0  0  0  0
    7.0391    1.6358    5.8098 C   0  0  0  0  0  0  0  0  0  0  0  0
    7.5339    0.7071    6.0060 H   0  0  0  0  0  0  0  0  0  0  0  0
    6.5255    0.9842    3.5078 C   0  0  0  0  0  0  0  0  0  0  0  0
    6.5399   -0.0323    3.9143 H   0  0  0  0  0  0  0  0  0  0  0  0
    7.4586    1.1386    2.9530 H   0  0  0  0  0  0  0  0  0  0  0  0
    5.3797    1.0333    2.4795 C   0  0  0  0  0  0  0  0  0  0  0  0
    4.2888    1.9890    2.7418 C   0  0  0  0  0  0  0  0  0  0  0  0
    3.0959    1.3689    2.7267 C   0  0  0  0  0  0  0  0  0  0  0  0
    3.0567    0.3116    2.4588 H   0  0  0  0  0  0  0  0  0  0  0  0
    1.7891    1.9276    3.0759 C   0  0  0  0  0  0  0  0  0  0  0  0
    1.5792    2.5297    4.3131 C   0  0  0  0  0  0  0  0  0  0  0  0
    2.3979    2.5737    5.0186 H   0  0  0  0  0  0  0  0  0  0  0  0
    0.3351    3.0306    4.6512 C   0  0  0  0  0  0  0  0  0  0  0  0
    0.1881    3.4984    5.6138 H   0  0  0  0  0  0  0  0  0  0  0  0
   -0.7208    2.9277    3.7619 C   0  0  0  0  0  0  0  0  0  0  0  0
   -1.6921    3.3204    4.0247 H   0  0  0  0  0  0  0  0  0  0  0  0
   -0.5321    2.3002    2.5413 C   0  0  0  0  0  0  0  0  0  0  0  0
   -1.3586    2.2005    1.8519 H   0  0  0  0  0  0  0  0  0  0  0  0
    0.7090    1.7948    2.2048 C   0  0  0  0  0  0  0  0  0  0  0  0
    0.8517    1.2971    1.2553 H   0  0  0  0  0  0  0  0  0  0  0  0
    5.8529    5.6798    3.2237 C   0  0  0  0  0  2  0  0  0  0  0  0
    3.5150    4.6609    3.9402 C   0  0  0  0  0  2  0  0  0  0  0  0
    5.2807    5.5008   -0.4741 C   0  0  0  0  0  0  0  0  0  0  0  0
    5.8352    4.6574   -0.9029 H   0  0  0  0  0  0  0  0  0  0  0  0
    6.3010    6.3947    0.2277 C   0  0  0  0  0  0  0  0  0  0  0  0
    6.9664    6.8341   -0.5146 H   0  0  0  0  0  0  0  0  0  0  0  0
    6.9124    5.8124    0.9112 H   0  0  0  0  0  0  0  0  0  0  0  0
    5.8269    7.2046    0.7776 H   0  0  0  0  0  0  0  0  0  0  0  0
    4.6166    6.2837   -1.6063 C   0  0  0  0  0  0  0  0  0  0  0  0
    4.1804    7.2102   -1.2399 H   0  0  0  0  0  0  0  0  0  0  0  0
    3.8449    5.7122   -2.1115 H   0  0  0  0  0  0  0  0  0  0  0  0
    5.3749    6.5450   -2.3437 H   0  0  0  0  0  0  0  0  0  0  0  0
    2.5986    5.7951    0.7408 C   0  0  0  0  0  0  0  0  0  0  0  0
    2.3495    6.0486   -0.2945 H   0  0  0  0  0  0  0  0  0  0  0  0
    2.9287    7.0799    1.4953 C   0  0  0  0  0  0  0  0  0  0  0  0
    2.0429    7.7099    1.5631 H   0  0  0  0  0  0  0  0  0  0  0  0
    3.7084    7.6492    0.9958 H   0  0  0  0  0  0  0  0  0  0  0  0
    3.2634    6.8529    2.5069 H   0  0  0  0  0  0  0  0  0  0  0  0
    1.4032    5.1020    1.3859 C   0  0  0  0  0  0  0  0  0  0  0  0
    1.6534    4.7525    2.3844 H   0  0  0  0  0  0  0  0  0  0  0  0
    1.0697    4.2435    0.8106 H   0  0  0  0  0  0  0  0  0  0  0  0
    0.5703    5.7988    1.4687 H   0  0  0  0  0  0  0  0  0  0  0  0
    3.4759    3.1840   -0.2779 C   0  0  0  0  0  0  0  0  0  0  0  0
    2.9091    2.6282    0.4802 H   0  0  0  0  0  0  0  0  0  0  0  0
    2.5580    3.4284   -1.4755 C   0  0  0  0  0  0  0  0  0  0  0  0
    3.1142    3.8044   -2.3309 H   0  0  0  0  0  0  0  0  0  0  0  0
    1.7432    4.1127   -1.2573 H   0  0  0  0  0  0  0  0  0  0  0  0
    2.1219    2.4745   -1.7705 H   0  0  0  0  0  0  0  0  0  0  0  0
    4.6577    2.3176   -0.7147 C   0  0  0  0  0  0  0  0  0  0  0  0
    4.3337    1.2911   -0.8695 H   0  0  0  0  0  0  0  0  0  0  0  0
    5.4415    2.2998    0.0383 H   0  0  0  0  0  0  0  0  0  0  0  0
    5.0866    2.6818   -1.6470 H   0  0  0  0  0  0  0  0  0  0  0  0
  1 36  1  0  0  0  0
  1 37  1  0  0  0  0
  1  9  1  0  0  0  0
  2 48  1  0  0  0  0
  2  1  1  0  0  0  0
  3  1  1  0  0  0  0
  4 10  1  0  0  0  0
  4 14  1  0  0  0  0
  5 16  1  0  0  0  0
  6 21  2  0  0  0  0
  9  5  1  6  0  0  0
  9  4  1  0  0  0  0
 10 12  1  0  0  0  0
 11 10  1  0  0  0  0
 13 10  1  0  0  0  0
 14 15  1  0  0  0  0
 16 17  1  0  0  0  0
 16 14  2  0  0  0  0
 18 19  1  0  0  0  0
 18  5  1  0  0  0  0
 20 18  1  0  0  0  0
 21 22  1  0  0  0  0
 21 18  1  0  0  0  0
 22  1  1  0  0  0  0
 23 22  2  0  0  0  0
 23 25  1  0  0  0  0
 24 23  1  0  0  0  0
 25 26  1  0  0  0  0
 26 28  2  0  0  0  0
 26 27  1  0  0  0  0
 28 29  1  0  0  0  0
 30 31  1  0  0  0  0
 30 28  1  0  0  0  0
 32 30  2  0  0  0  0
 33 32  1  0  0  0  0
 34 32  1  0  0  0  0
 34 25  2  0  0  0  0
 35 34  1  0  0  0  0
 36  7  1  0  0  0  0
 37  8  1  0  0  0  0
 38 40  1  0  0  0  0
 38  2  1  0  0  0  0
 39 38  1  0  0  0  0
 40 43  1  0  0  0  0
 40 42  1  0  0  0  0
 41 40  1  0  0  0  0
 44 45  1  0  0  0  0
 44 38  1  0  0  0  0
 46 44  1  0  0  0  0
 47 44  1  0  0  0  0
 48 54  1  0  0  0  0
 48 50  1  0  0  0  0
 49 48  1  0  0  0  0
 50 51  1  0  0  0  0
 50 53  1  0  0  0  0
 52 50  1  0  0  0  0
 54 57  1  0  0  0  0
 54 55  1  0  0  0  0
 56 54  1  0  0  0  0
 58 59  1  0  0  0  0
 58  2  1  0  0  0  0
 60 62  1  0  0  0  0
 60 58  1  0  0  0  0
 61 60  1  0  0  0  0
 63 60  1  0  0  0  0
 64 58  1  0  0  0  0
 64 66  1  0  0  0  0
 65 64  1  0  0  0  0
 67 64  1  0  0  0  0
M  END
$$$$
