CSD_code = XEZPEZ | q = 0 | S = 0 | Stoichiometry = C23H20Cl2N6O2RuS | MND = 6
 OpenBabel04212202123D

 55 60  0  0  1  0  0  0  0  0999 V2000
    1.2245   11.7539    1.0594 Ru  0  0  0  0  0  0  0  0  0  0  0  0
    3.1599   10.4493    0.9298 Cl  0  0  0  0  0  0  0  0  0  0  0  0
   -0.9374   12.7205    0.9451 Cl  0  0  0  0  0  0  0  0  0  0  0  0
   -1.8525    8.3634    0.7030 S   0  0  0  0  0  0  0  0  0  0  0  0
    2.1463   13.4074    1.3012 N   0  0  0  0  0  0  0  0  0  0  0  0
    1.3636   11.8688    2.9972 N   0  0  0  0  0  0  0  0  0  0  0  0
    2.1747   12.8200    3.4130 C   0  0  1  0  0  3  0  0  0  0  0  0
    2.5965   13.6912    2.4788 N   0  0  0  0  0  2  0  0  0  0  0  0
    0.0591    9.9734    0.8204 N   0  0  0  0  0  0  0  0  0  0  0  0
    0.7966   10.9253    3.8558 C   0  0  0  0  0  0  0  0  0  0  0  0
   -0.5576    9.1029    1.5584 C   0  0  0  0  0  3  0  0  0  0  0  0
   -0.3013    8.8659    2.5718 H   0  0  0  0  0  0  0  0  0  0  0  0
   -1.1395   10.0838    5.0133 C   0  0  0  0  0  0  0  0  0  0  0  0
   -2.1712   10.2159    5.2973 H   0  0  0  0  0  0  0  0  0  0  0  0
    2.5615   13.0382    4.8313 C   0  0  0  0  0  0  0  0  0  0  0  0
   -0.5377   11.0496    4.2259 C   0  0  0  0  0  0  0  0  0  0  0  0
   -1.0993   11.9115    3.8963 H   0  0  0  0  0  0  0  0  0  0  0  0
    1.1694   11.5732   -0.9966 N   0  0  0  0  0  0  0  0  0  0  0  0
    1.9595   12.1456   -1.8977 C   0  0  0  0  0  3  0  0  0  0  0  0
    2.8358   12.6520   -1.5191 H   0  0  0  0  0  0  0  0  0  0  0  0
    2.0424   12.4305    5.7399 O   0  0  0  0  0  0  0  0  0  0  0  0
    2.4517   14.3584    0.3274 C   0  0  0  0  0  0  0  0  0  0  0  0
   -0.4139    8.9717    5.4285 C   0  0  0  0  0  0  0  0  0  0  0  0
   -0.2004   10.7416   -2.7848 C   0  0  0  0  0  0  0  0  0  0  0  0
   -1.0541   10.1481   -3.0685 H   0  0  0  0  0  0  0  0  0  0  0  0
    0.9236    8.8446    5.0414 C   0  0  0  0  0  0  0  0  0  0  0  0
    1.4719    7.9761    5.3703 H   0  0  0  0  0  0  0  0  0  0  0  0
   -0.5095   10.0155   -0.4228 C   0  0  0  0  0  0  0  0  0  0  0  0
    3.6419   14.0639    5.0176 C   0  0  0  0  0  0  0  0  0  0  0  0
    3.8117   14.2348    6.0770 H   0  0  0  0  0  0  0  0  0  0  0  0
    3.3584   14.9861    4.5178 H   0  0  0  0  0  0  0  0  0  0  0  0
    4.5560   13.7034    4.5507 H   0  0  0  0  0  0  0  0  0  0  0  0
    0.1391   10.8284   -1.4388 C   0  0  0  0  0  0  0  0  0  0  0  0
    1.5282    9.8110    4.2701 C   0  0  0  0  0  0  0  0  0  0  0  0
    2.5594    9.7119    3.9655 H   0  0  0  0  0  0  0  0  0  0  0  0
    1.7887   15.6636   -1.5758 C   0  0  0  0  0  0  0  0  0  0  0  0
    1.0350   15.9548   -2.2920 H   0  0  0  0  0  0  0  0  0  0  0  0
    1.4831   14.7247   -0.6092 C   0  0  0  0  0  0  0  0  0  0  0  0
    0.4919   14.2987   -0.5428 H   0  0  0  0  0  0  0  0  0  0  0  0
    4.0097   15.8788   -0.6874 C   0  0  0  0  0  0  0  0  0  0  0  0
    4.9907   16.3286   -0.7199 H   0  0  0  0  0  0  0  0  0  0  0  0
    1.7026   12.0929   -3.2574 C   0  0  0  0  0  0  0  0  0  0  0  0
    2.3716   12.5842   -3.9451 H   0  0  0  0  0  0  0  0  0  0  0  0
    0.5800   11.4125   -3.7093 C   0  0  0  0  0  0  0  0  0  0  0  0
    0.3369   11.3804   -4.7600 H   0  0  0  0  0  0  0  0  0  0  0  0
    3.7134   14.9546    0.2950 C   0  0  0  0  0  0  0  0  0  0  0  0
    4.4438   14.6632    1.0341 H   0  0  0  0  0  0  0  0  0  0  0  0
   -1.5233    9.2203   -0.6389 N   0  0  0  0  0  0  0  0  0  0  0  0
    3.0519   16.2330   -1.6255 C   0  0  0  0  0  0  0  0  0  0  0  0
    3.2873   16.9592   -2.3890 H   0  0  0  0  0  0  0  0  0  0  0  0
   -0.9095    7.9553    6.1874 O   0  0  0  0  0  0  0  0  0  0  0  0
   -2.2270    8.0570    6.6705 C   0  0  0  0  0  0  0  0  0  0  0  0
   -2.3841    7.1716    7.2844 H   0  0  0  0  0  0  0  0  0  0  0  0
   -2.9570    8.0632    5.8539 H   0  0  0  0  0  0  0  0  0  0  0  0
   -2.3610    8.9522    7.2853 H   0  0  0  0  0  0  0  0  0  0  0  0
  1  5  1  0  0  0  0
  1  6  1  0  0  0  0
  2  1  1  0  0  0  0
  3  1  1  0  0  0  0
  4 11  1  0  0  0  0
  5  8  1  0  0  0  0
  6  7  1  0  0  0  0
  6 10  1  0  0  0  0
  7 15  1  1  0  0  0
  8  7  1  0  0  0  0
  9  1  1  0  0  0  0
  9 11  1  0  0  0  0
 10 16  2  0  0  0  0
 10 34  1  0  0  0  0
 11 12  1  0  0  0  0
 13 14  1  0  0  0  0
 13 23  2  0  0  0  0
 15 29  1  0  0  0  0
 15 21  2  0  0  0  0
 16 13  1  0  0  0  0
 17 16  1  0  0  0  0
 18  1  1  0  0  0  0
 19 20  1  0  0  0  0
 19 18  1  0  0  0  0
 22  5  1  0  0  0  0
 23 51  1  0  0  0  0
 24 33  2  0  0  0  0
 25 24  1  0  0  0  0
 26 27  1  0  0  0  0
 26 23  1  0  0  0  0
 28  9  1  0  0  0  0
 29 30  1  0  0  0  0
 31 29  1  0  0  0  0
 32 29  1  0  0  0  0
 33 18  1  0  0  0  0
 33 28  1  0  0  0  0
 34 26  2  0  0  0  0
 35 34  1  0  0  0  0
 36 38  1  0  0  0  0
 37 36  1  0  0  0  0
 38 39  1  0  0  0  0
 38 22  2  0  0  0  0
 40 46  2  0  0  0  0
 41 40  1  0  0  0  0
 42 19  1  0  0  0  0
 43 42  1  0  0  0  0
 44 42  2  0  0  0  0
 44 24  1  0  0  0  0
 45 44  1  0  0  0  0
 46 22  1  0  0  0  0
 46 47  1  0  0  0  0
 48 28  2  0  0  0  0
 48  4  1  0  0  0  0
 49 36  2  0  0  0  0
 49 40  1  0  0  0  0
 50 49  1  0  0  0  0
 51 52  1  0  0  0  0
 52 53  1  0  0  0  0
 52 55  1  0  0  0  0
 54 52  1  0  0  0  0
M  END
$$$$
