CSD_code = XEZWAB | q = 0 | S = 0 | Stoichiometry = C30H25I2IrN4O2 | MND = 6
 OpenBabel04212202123D

 64 69  0  0  1  0  0  0  0  0999 V2000
    0.5443   13.5022   12.0645 Ir  0  0  1  0  0  0  0  0  0  0  0  0
    2.4939   14.8885   13.3147 I   0  0  0  0  0 15  0  0  0  0  0  0
   -1.3837   11.8564   11.1361 I   0  0  0  0  0 15  0  0  0  0  0  0
   -0.0466   12.8922   14.0454 O   0  0  0  0  0  0  0  0  0  0  0  0
    1.3965   11.7215   12.9273 O   0  0  0  0  0  0  0  0  0  0  0  0
    2.6149   12.8986    9.9729 N   0  0  0  0  0  0  0  0  0  0  0  0
    0.8269   13.6425    8.9866 N   0  0  0  0  0  0  0  0  0  0  0  0
   -0.0835   16.4635   11.4241 N   0  0  0  0  0  0  0  0  0  0  0  0
   -1.6729   15.4763   12.5295 N   0  0  0  0  0  0  0  0  0  0  0  0
    1.4014   13.4544   10.2075 C   0  0  1  0  0  3  0  0  0  0  0  0
    1.6736   13.2297    7.9852 C   0  0  0  0  0  0  0  0  0  0  0  0
    2.8275   12.7576    8.6208 C   0  0  0  0  0  0  0  0  0  0  0  0
    3.8996   12.2786    7.8802 C   0  0  0  0  0  0  0  0  0  0  0  0
    4.8015   11.9186    8.3483 H   0  0  0  0  0  0  0  0  0  0  0  0
    3.7693   12.2861    6.5050 C   0  0  0  0  0  0  0  0  0  0  0  0
    4.5826   11.9195    5.8979 H   0  0  0  0  0  0  0  0  0  0  0  0
    2.6158   12.7565    5.8777 C   0  0  0  0  0  0  0  0  0  0  0  0
    2.5608   12.7422    4.8002 H   0  0  0  0  0  0  0  0  0  0  0  0
    1.5461   13.2402    6.6050 C   0  0  0  0  0  0  0  0  0  0  0  0
    0.6505   13.6071    6.1288 H   0  0  0  0  0  0  0  0  0  0  0  0
   -0.3730   14.3309    8.6766 C   0  0  0  0  0  0  0  0  0  0  0  0
   -1.4861   13.6669    8.1870 C   0  0  0  0  0  0  0  0  0  0  0  0
   -1.4649   12.5964    8.0656 H   0  0  0  0  0  0  0  0  0  0  0  0
   -2.6259   14.3914    7.8841 C   0  0  0  0  0  0  0  0  0  0  0  0
   -3.5017   13.8762    7.5223 H   0  0  0  0  0  0  0  0  0  0  0  0
   -2.6454   15.7662    8.0518 C   0  0  0  0  0  0  0  0  0  0  0  0
   -3.5411   16.3255    7.8277 H   0  0  0  0  0  0  0  0  0  0  0  0
   -1.5142   16.4319    8.4906 C   0  0  0  0  0  0  0  0  0  0  0  0
   -1.5146   17.5071    8.5957 H   0  0  0  0  0  0  0  0  0  0  0  0
   -0.3617   15.7177    8.7875 C   0  0  0  0  0  0  0  0  0  0  0  0
    0.8826   16.3837    9.2281 C   0  0  0  0  0  0  0  0  0  0  0  0
    1.9270   16.6461    8.3524 C   0  0  0  0  0  0  0  0  0  0  0  0
    1.8413   16.3454    7.3183 H   0  0  0  0  0  0  0  0  0  0  0  0
    3.0602   17.2993    8.8048 C   0  0  0  0  0  0  0  0  0  0  0  0
    3.8720   17.4959    8.1211 H   0  0  0  0  0  0  0  0  0  0  0  0
    3.1474   17.7146   10.1233 C   0  0  0  0  0  0  0  0  0  0  0  0
    4.0222   18.2420   10.4695 H   0  0  0  0  0  0  0  0  0  0  0  0
    2.1173   17.4490   11.0088 C   0  0  0  0  0  0  0  0  0  0  0  0
    2.1803   17.7627   12.0378 H   0  0  0  0  0  0  0  0  0  0  0  0
    1.0077   16.7480   10.5649 C   0  0  0  0  0  0  0  0  0  0  0  0
   -0.5004   15.2524   11.8879 C   0  0  2  0  0  3  0  0  0  0  0  0
   -2.0168   16.8066   12.4554 C   0  0  0  0  0  0  0  0  0  0  0  0
   -0.9902   17.4442   11.7498 C   0  0  0  0  0  0  0  0  0  0  0  0
   -1.0157   18.8042   11.4832 C   0  0  0  0  0  0  0  0  0  0  0  0
   -0.2173   19.2822   10.9376 H   0  0  0  0  0  0  0  0  0  0  0  0
   -2.1060   19.5099   11.9525 C   0  0  0  0  0  0  0  0  0  0  0  0
   -2.1678   20.5718   11.7714 H   0  0  0  0  0  0  0  0  0  0  0  0
   -3.1327   18.8803   12.6559 C   0  0  0  0  0  0  0  0  0  0  0  0
   -3.9675   19.4697   13.0026 H   0  0  0  0  0  0  0  0  0  0  0  0
   -3.1112   17.5242   12.9186 C   0  0  0  0  0  0  0  0  0  0  0  0
   -3.9171   17.0523   13.4571 H   0  0  0  0  0  0  0  0  0  0  0  0
    3.6084   12.4871   10.9319 C   0  0  0  0  0  0  0  0  0  0  0  0
    3.1363   12.1302   11.8428 H   0  0  0  0  0  0  0  0  0  0  0  0
    4.2753   13.3170   11.1724 H   0  0  0  0  0  0  0  0  0  0  0  0
    4.1874   11.6696   10.5063 H   0  0  0  0  0  0  0  0  0  0  0  0
   -2.5126   14.5252   13.2124 C   0  0  0  0  0  0  0  0  0  0  0  0
   -1.9134   13.7381   13.6613 H   0  0  0  0  0  0  0  0  0  0  0  0
   -3.2302   14.0816   12.5199 H   0  0  0  0  0  0  0  0  0  0  0  0
   -3.0483   15.0398   14.0081 H   0  0  0  0  0  0  0  0  0  0  0  0
    0.7126   11.8969   13.9644 C   0  0  2  0  0  3  0  0  0  0  0  0
    0.7887   10.9085   15.0954 C   0  0  0  0  0  0  0  0  0  0  0  0
    0.1838   10.0410   14.8338 H   0  0  0  0  0  0  0  0  0  0  0  0
    0.4016   11.3580   16.0056 H   0  0  0  0  0  0  0  0  0  0  0  0
    1.8179   10.5862   15.2324 H   0  0  0  0  0  0  0  0  0  0  0  0
  1  5  1  1  0  0  0
  1  4  1  0  0  0  0
  5 60  1  0  0  0  0
  6 10  1  0  0  0  0
  6 52  1  0  0  0  0
  8 43  1  0  0  0  0
  9 56  1  0  0  0  0
 10  7  1  6  0  0  0
 10  1  1  0  0  0  0
 11 12  1  0  0  0  0
 11  7  1  0  0  0  0
 12  6  1  0  0  0  0
 13 14  1  0  0  0  0
 13 12  2  0  0  0  0
 15 13  1  0  0  0  0
 16 15  1  0  0  0  0
 17 15  2  0  0  0  0
 17 19  1  0  0  0  0
 18 17  1  0  0  0  0
 19 11  2  0  0  0  0
 20 19  1  0  0  0  0
 21 30  1  0  0  0  0
 21  7  1  0  0  0  0
 22 21  2  0  0  0  0
 23 22  1  0  0  0  0
 24 26  2  0  0  0  0
 24 22  1  0  0  0  0
 25 24  1  0  0  0  0
 26 28  1  0  0  0  0
 27 26  1  0  0  0  0
 28 29  1  0  0  0  0
 28 30  2  0  0  0  0
 30 31  1  0  0  0  0
 31 40  1  0  0  0  0
 32 34  1  0  0  0  0
 32 31  2  0  0  0  0
 33 32  1  0  0  0  0
 34 36  2  0  0  0  0
 35 34  1  0  0  0  0
 36 37  1  0  0  0  0
 36 38  1  0  0  0  0
 38 39  1  0  0  0  0
 40 38  2  0  0  0  0
 40  8  1  0  0  0  0
 41  8  1  1  0  0  0
 41  1  1  0  0  0  0
 41  9  1  0  0  0  0
 42  9  1  0  0  0  0
 42 50  1  0  0  0  0
 43 42  2  0  0  0  0
 44 43  1  0  0  0  0
 44 46  2  0  0  0  0
 45 44  1  0  0  0  0
 46 48  1  0  0  0  0
 47 46  1  0  0  0  0
 48 50  2  0  0  0  0
 48 49  1  0  0  0  0
 50 51  1  0  0  0  0
 52 54  1  0  0  0  0
 52 53  1  0  0  0  0
 55 52  1  0  0  0  0
 56 57  1  0  0  0  0
 56 59  1  0  0  0  0
 58 56  1  0  0  0  0
 60  4  1  0  0  0  0
 60 61  1  6  0  0  0
 61 64  1  0  0  0  0
 61 63  1  0  0  0  0
 62 61  1  0  0  0  0
M  END
$$$$
