CSD_code = XEZYOS | q = 0 | S = 0 | Stoichiometry = C19H27Cl2FeN2P | MND = 5
 OpenBabel04212202123D

 52 55  0  0  1  0  0  0  0  0999 V2000
    0.6482   17.7291   12.9704 Fe  0  0  0  0  0  0  0  0  0  0  0  0
   -0.6218   17.5155   14.4346 N   0  0  0  0  0  0  0  0  0  0  0  0
   -0.2848   19.2658   12.6742 N   0  0  0  0  0  0  0  0  0  0  0  0
    1.7666   18.2256   11.1522 P   0  0  0  0  0  4  0  0  0  0  0  0
    1.0744   15.6771   12.9128 Cl  0  0  0  0  0  0  0  0  0  0  0  0
    2.0519   18.5903   14.3289 Cl  0  0  0  0  0  0  0  0  0  0  0  0
   -0.5869   16.6263   15.4226 C   0  0  0  0  0  3  0  0  0  0  0  0
    0.2274   15.9170   15.3883 H   0  0  0  0  0  0  0  0  0  0  0  0
   -1.5295   16.5871   16.4291 C   0  0  0  0  0  0  0  0  0  0  0  0
   -1.4613   15.8412   17.2037 H   0  0  0  0  0  0  0  0  0  0  0  0
   -2.5590   17.5253   16.4200 C   0  0  0  0  0  0  0  0  0  0  0  0
   -3.3140   17.5198   17.1913 H   0  0  0  0  0  0  0  0  0  0  0  0
   -2.5862   18.4728   15.4199 C   0  0  0  0  0  0  0  0  0  0  0  0
   -3.3533   19.2300   15.3993 H   0  0  0  0  0  0  0  0  0  0  0  0
   -1.5943   18.4587   14.4358 C   0  0  0  0  0  0  0  0  0  0  0  0
   -1.4422   19.4268   13.3793 C   0  0  1  0  0  3  0  0  0  0  0  0
   -2.3453   20.4478   13.0834 C   0  0  0  0  0  0  0  0  0  0  0  0
   -3.2640   20.5258   13.6410 H   0  0  0  0  0  0  0  0  0  0  0  0
   -2.0557   21.3431   12.0792 C   0  0  0  0  0  0  0  0  0  0  0  0
   -2.7394   22.1372   11.8265 H   0  0  0  0  0  0  0  0  0  0  0  0
   -0.8366   21.2152   11.4068 C   0  0  0  0  0  0  0  0  0  0  0  0
   -0.5564   21.9243   10.6431 H   0  0  0  0  0  0  0  0  0  0  0  0
    0.0202   20.1901   11.7328 C   0  0  0  0  0  0  0  0  0  0  0  0
    1.3707   20.0341   11.1132 C   0  0  0  0  0  0  0  0  0  0  0  0
    2.0894   20.4919   11.7992 H   0  0  0  0  0  0  0  0  0  0  0  0
    1.4508   20.5118   10.1366 H   0  0  0  0  0  0  0  0  0  0  0  0
    3.6397   18.1536   10.8952 C   0  0  0  0  0  0  0  0  0  0  0  0
    4.0700   16.7773   11.4071 C   0  0  0  0  0  0  0  0  0  0  0  0
    3.6105   15.9700   10.8433 H   0  0  0  0  0  0  0  0  0  0  0  0
    3.7790   16.6709   12.4507 H   0  0  0  0  0  0  0  0  0  0  0  0
    5.1516   16.6717   11.3386 H   0  0  0  0  0  0  0  0  0  0  0  0
    4.1088   18.3769    9.4589 C   0  0  0  0  0  0  0  0  0  0  0  0
    5.1982   18.4014    9.4469 H   0  0  0  0  0  0  0  0  0  0  0  0
    3.7515   19.3303    9.0735 H   0  0  0  0  0  0  0  0  0  0  0  0
    3.7917   17.5778    8.7949 H   0  0  0  0  0  0  0  0  0  0  0  0
    4.2837   19.2159   11.7918 C   0  0  0  0  0  0  0  0  0  0  0  0
    5.3451   18.9959   11.8959 H   0  0  0  0  0  0  0  0  0  0  0  0
    3.8403   19.2034   12.7863 H   0  0  0  0  0  0  0  0  0  0  0  0
    4.1950   20.2121   11.3622 H   0  0  0  0  0  0  0  0  0  0  0  0
    0.8142   17.5377    9.6533 C   0  0  0  0  0  0  0  0  0  0  0  0
   -0.6515   17.4638   10.1072 C   0  0  0  0  0  0  0  0  0  0  0  0
   -1.0757   18.4564   10.2514 H   0  0  0  0  0  0  0  0  0  0  0  0
   -0.7419   16.9019   11.0434 H   0  0  0  0  0  0  0  0  0  0  0  0
   -1.2472   16.9521    9.3521 H   0  0  0  0  0  0  0  0  0  0  0  0
    1.2903   16.1113    9.3770 C   0  0  0  0  0  0  0  0  0  0  0  0
    0.6095   15.6212    8.6812 H   0  0  0  0  0  0  0  0  0  0  0  0
    1.3039   15.5346   10.3011 H   0  0  0  0  0  0  0  0  0  0  0  0
    2.2828   16.0963    8.9347 H   0  0  0  0  0  0  0  0  0  0  0  0
    0.8781   18.3847    8.3828 C   0  0  0  0  0  0  0  0  0  0  0  0
    0.3193   17.8793    7.5951 H   0  0  0  0  0  0  0  0  0  0  0  0
    1.8944   18.5245    8.0311 H   0  0  0  0  0  0  0  0  0  0  0  0
    0.4205   19.3600    8.5347 H   0  0  0  0  0  0  0  0  0  0  0  0
  1  6  1  0  0  0  0
  1  2  1  0  0  0  0
  2 15  1  0  0  0  0
  2  7  1  0  0  0  0
  3  1  1  0  0  0  0
  3 16  1  0  0  0  0
  4  1  1  0  0  0  0
  5  1  1  0  0  0  0
  7  9  1  0  0  0  0
  8  7  1  0  0  0  0
  9 10  1  0  0  0  0
 11  9  2  0  0  0  0
 11 12  1  0  0  0  0
 13 11  1  0  0  0  0
 14 13  1  0  0  0  0
 15 13  2  0  0  0  0
 16 17  1  1  0  0  0
 16 15  1  0  0  0  0
 17 18  1  0  0  0  0
 19 17  2  0  0  0  0
 20 19  1  0  0  0  0
 21 23  2  0  0  0  0
 21 19  1  0  0  0  0
 22 21  1  0  0  0  0
 23  3  1  0  0  0  0
 24  4  1  0  0  0  0
 24 23  1  0  0  0  0
 24 25  1  0  0  0  0
 26 24  1  0  0  0  0
 27  4  1  0  0  0  0
 27 28  1  0  0  0  0
 27 36  1  0  0  0  0
 28 30  1  0  0  0  0
 29 28  1  0  0  0  0
 31 28  1  0  0  0  0
 32 27  1  0  0  0  0
 33 32  1  0  0  0  0
 34 32  1  0  0  0  0
 35 32  1  0  0  0  0
 36 37  1  0  0  0  0
 36 38  1  0  0  0  0
 39 36  1  0  0  0  0
 40 41  1  0  0  0  0
 40  4  1  0  0  0  0
 41 42  1  0  0  0  0
 41 43  1  0  0  0  0
 44 41  1  0  0  0  0
 45 40  1  0  0  0  0
 45 47  1  0  0  0  0
 46 45  1  0  0  0  0
 48 45  1  0  0  0  0
 49 52  1  0  0  0  0
 49 40  1  0  0  0  0
 50 49  1  0  0  0  0
 51 49  1  0  0  0  0
M  END
$$$$
