CSD_code = XIBQII | q = 0 | S = 0 | Stoichiometry = C13H14Cl2SiZr | MND = 12
 OpenBabel04212202123D

 31 34  0  0  1  0  0  0  0  0999 V2000
    3.1966    6.8207    3.6335 Zr  0  0  0  0  0  0  0  0  0  0  0  0
    1.3826    6.6721    0.8446 Si  0  0  0  0  0  0  0  0  0  0  0  0
    5.5012    6.9307    3.9512 Cl  0  0  0  0  0  0  0  0  0  0  0  0
    2.6898    6.8549    5.9058 Cl  0  0  0  0  0  0  0  0  0  0  0  0
    3.5902    9.2700    3.1088 C   0  0  0  0  0  0  0  0  0  0  0  0
    4.4810    9.8381    3.3514 H   0  0  0  0  0  0  0  0  0  0  0  0
    2.4080    9.2193    3.8781 C   0  0  0  0  0  0  0  0  0  0  0  0
    2.2360    9.7430    4.8115 H   0  0  0  0  0  0  0  0  0  0  0  0
    1.4496    8.4695    3.1593 C   0  0  0  0  0  3  0  0  0  0  0  0
    0.4115    8.3331    3.4454 H   0  0  0  0  0  0  0  0  0  0  0  0
    2.0178    8.0961    1.9095 C   0  0  1  0  0  0  0  0  0  0  0  0
    3.3644    8.5534    1.9114 C   0  0  0  0  0  3  0  0  0  0  0  0
    4.0534    8.4887    1.0752 H   0  0  0  0  0  0  0  0  0  0  0  0
    3.8073    4.3932    3.2273 C   0  0  0  0  0  0  0  0  0  0  0  0
    4.7449    3.9193    3.4942 H   0  0  0  0  0  0  0  0  0  0  0  0
    2.6248    4.3766    3.9979 C   0  0  0  0  0  0  0  0  0  0  0  0
    2.4998    3.8864    4.9565 H   0  0  0  0  0  0  0  0  0  0  0  0
    1.6037    5.0016    3.2469 C   0  0  0  0  0  3  0  0  0  0  0  0
    0.5577    5.0587    3.5306 H   0  0  0  0  0  0  0  0  0  0  0  0
    2.1369    5.3616    1.9775 C   0  0  2  0  0  0  0  0  0  0  0  0
    3.5194    5.0266    1.9972 C   0  0  0  0  0  3  0  0  0  0  0  0
    4.2006    5.1107    1.1564 H   0  0  0  0  0  0  0  0  0  0  0  0
   -0.4202    6.5624    0.2159 C   0  0  0  0  0  0  0  0  0  0  0  0
   -1.0334    5.7396    0.5698 H   0  0  0  0  0  0  0  0  0  0  0  0
   -0.9958    7.4763    0.3325 H   0  0  0  0  0  0  0  0  0  0  0  0
    0.0857    6.3717   -1.2279 C   0  0  0  0  0  0  0  0  0  0  0  0
   -0.1110    5.3615   -1.5788 H   0  0  0  0  0  0  0  0  0  0  0  0
   -0.3710    7.0684   -1.9275 H   0  0  0  0  0  0  0  0  0  0  0  0
    1.5990    6.6108   -1.0542 C   0  0  0  0  0  0  0  0  0  0  0  0
    1.9219    7.5451   -1.5046 H   0  0  0  0  0  0  0  0  0  0  0  0
    2.2110    5.8161   -1.4691 H   0  0  0  0  0  0  0  0  0  0  0  0
  1  3  1  0  0  0  0
  1  4  1  0  0  0  0
  2 11  1  0  0  0  0
  2 20  1  0  0  0  0
  5  6  1  0  0  0  0
  5  7  2  0  0  0  0
  7  8  1  0  0  0  0
  9 10  1  0  0  0  0
  9  7  1  0  0  0  0
 11 12  1  6  0  0  0
 11  9  1  0  0  0  0
 11  1  1  0  0  0  0
 12  5  1  0  0  0  0
 13 12  1  0  0  0  0
 14 15  1  0  0  0  0
 14 16  2  0  0  0  0
 16 17  1  0  0  0  0
 18 19  1  0  0  0  0
 18 16  1  0  0  0  0
 20 21  1  6  0  0  0
 20 18  1  0  0  0  0
 20  1  1  0  0  0  0
 21 14  1  0  0  0  0
 22 21  1  0  0  0  0
 23 25  1  0  0  0  0
 23 24  1  0  0  0  0
 23  2  1  0  0  0  0
 26 29  1  0  0  0  0
 26 23  1  0  0  0  0
 27 26  1  0  0  0  0
 28 26  1  0  0  0  0
 29  2  1  0  0  0  0
 30 29  1  0  0  0  0
 31 29  1  0  0  0  0
M  END
$$$$
