CSD_code = XIBVEM | q = 0 | S = 0 | Stoichiometry = C23H24BrMnN4O6 | MND = 6
 OpenBabel04212202123D

 59 62  0  0  1  0  0  0  0  0999 V2000
    3.7404    5.4104    3.4653 Mn  0  0  0  0  0  0  0  0  0  0  0  0
    5.4550    6.4698    2.1098 Br  0  0  0  0  0  0  0  0  0  0  0  0
   -0.2726    3.5523    8.0699 O   0  0  0  0  0  0  0  0  0  0  0  0
   -0.2445    1.6681    6.7304 O   0  0  0  0  0  0  0  0  0  0  0  0
    1.7659    0.7168    7.0432 O   0  0  0  0  0  0  0  0  0  0  0  0
    1.7173    5.4518    1.3644 O   0  0  0  0  0  1  0  0  0  0  0  0
    3.9084    2.7717    2.2363 O   0  0  0  0  0  1  0  0  0  0  0  0
    1.5726    3.9696    4.7602 O   0  0  0  0  0  1  0  0  0  0  0  0
    5.3268    5.9427    6.1070 N   0  0  1  0  0  0  0  0  0  0  0  0
    5.2894    5.2046    4.9781 N   0  0  0  0  0  0  0  0  0  0  0  0
    3.8264    7.7047    5.5882 N   0  0  2  0  0  0  0  0  0  0  0  0
    3.4337    7.3797    4.3392 N   0  0  0  0  0  0  0  0  0  0  0  0
    4.1963    6.7097    6.5645 C   0  0  1  0  0  0  0  0  0  0  0  0
    4.5290    7.2561    7.4559 H   0  0  0  0  0  0  0  0  0  0  0  0
    3.0173    5.8261    6.9498 C   0  0  0  0  0  0  0  0  0  0  0  0
    3.2170    4.5166    7.3628 C   0  0  0  0  0  0  0  0  0  0  0  0
    4.2103    4.0922    7.3821 H   0  0  0  0  0  0  0  0  0  0  0  0
    2.1511    3.7193    7.7382 C   0  0  0  0  0  0  0  0  0  0  0  0
    2.3498    2.6973    8.0176 H   0  0  0  0  0  0  0  0  0  0  0  0
    0.8605    4.2339    7.7141 C   0  0  0  0  0  0  0  0  0  0  0  0
    0.6628    5.5639    7.3429 C   0  0  0  0  0  0  0  0  0  0  0  0
   -0.3423    5.9533    7.3420 H   0  0  0  0  0  0  0  0  0  0  0  0
    1.7283    6.3506    6.9655 C   0  0  0  0  0  0  0  0  0  0  0  0
    1.5496    7.3729    6.6648 H   0  0  0  0  0  0  0  0  0  0  0  0
   -0.2866    2.1610    8.0539 C   0  0  0  0  0  0  0  0  0  0  0  0
   -1.2577    1.8820    8.4751 H   0  0  0  0  0  0  0  0  0  0  0  0
    0.5292    1.7142    8.6408 H   0  0  0  0  0  0  0  0  0  0  0  0
    0.8558    1.0059    6.3139 C   0  0  0  0  0  0  0  0  0  0  0  0
    0.7642    0.6976    4.8531 C   0  0  0  0  0  0  0  0  0  0  0  0
    1.4633   -0.0916    4.5944 H   0  0  0  0  0  0  0  0  0  0  0  0
    1.0262    1.6015    4.3040 H   0  0  0  0  0  0  0  0  0  0  0  0
   -0.2528    0.4236    4.5895 H   0  0  0  0  0  0  0  0  0  0  0  0
    6.4954    5.7661    6.7720 C   0  0  2  0  0  3  0  0  0  0  0  0
    7.2329    4.8798    6.0257 C   0  0  0  0  0  0  0  0  0  0  0  0
    8.2150    4.5135    6.2417 H   0  0  0  0  0  0  0  0  0  0  0  0
    6.4449    4.5517    4.9117 C   0  0  0  0  0  0  0  0  0  0  0  0
    6.8297    3.6156    3.8279 C   0  0  0  0  0  0  0  0  0  0  0  0
    6.8578    4.1291    2.8671 H   0  0  0  0  0  0  0  0  0  0  0  0
    6.1180    2.7939    3.7583 H   0  0  0  0  0  0  0  0  0  0  0  0
    7.8168    3.2101    4.0334 H   0  0  0  0  0  0  0  0  0  0  0  0
    6.8275    6.4367    8.0544 C   0  0  0  0  0  0  0  0  0  0  0  0
    7.8106    6.1071    8.3788 H   0  0  0  0  0  0  0  0  0  0  0  0
    6.1061    6.1855    8.8327 H   0  0  0  0  0  0  0  0  0  0  0  0
    6.8548    7.5206    7.9380 H   0  0  0  0  0  0  0  0  0  0  0  0
    3.7103    9.0375    5.8093 C   0  0  1  0  0  3  0  0  0  0  0  0
    3.2262    9.5806    4.6440 C   0  0  0  0  0  0  0  0  0  0  0  0
    3.0172   10.6119    4.4494 H   0  0  0  0  0  0  0  0  0  0  0  0
    3.0665    8.5119    3.7486 C   0  0  0  0  0  0  0  0  0  0  0  0
    2.5609    8.6168    2.3585 C   0  0  0  0  0  0  0  0  0  0  0  0
    3.3208    8.2925    1.6476 H   0  0  0  0  0  0  0  0  0  0  0  0
    2.3037    9.6506    2.1431 H   0  0  0  0  0  0  0  0  0  0  0  0
    1.6759    7.9964    2.2227 H   0  0  0  0  0  0  0  0  0  0  0  0
    4.0603    9.6975    7.0926 C   0  0  0  0  0  0  0  0  0  0  0  0
    3.4738    9.2968    7.9202 H   0  0  0  0  0  0  0  0  0  0  0  0
    3.8535   10.7607    7.0088 H   0  0  0  0  0  0  0  0  0  0  0  0
    5.1193    9.5755    7.3222 H   0  0  0  0  0  0  0  0  0  0  0  0
    2.5181    5.5454    2.1884 C   0  0  0  0  0  2  0  0  0  0  0  0
    3.9574    3.8084    2.7399 C   0  0  0  0  0  2  0  0  0  0  0  0
    2.4601    4.6140    4.3880 C   0  0  0  0  0  2  0  0  0  0  0  0
  1 12  1  0  0  0  0
  1 59  1  0  0  0  0
  1 10  1  0  0  0  0
  2  1  1  0  0  0  0
  4 25  1  0  0  0  0
  6 57  1  0  0  0  0
  7 58  1  0  0  0  0
  9 10  1  1  0  0  0
  9 13  1  0  0  0  0
  9 33  1  0  0  0  0
 11 12  1  1  0  0  0
 11 45  1  0  0  0  0
 11 13  1  0  0  0  0
 13 15  1  0  0  0  0
 13 14  1  1  0  0  0
 15 23  2  0  0  0  0
 15 16  1  0  0  0  0
 16 17  1  0  0  0  0
 16 18  2  0  0  0  0
 18 19  1  0  0  0  0
 20 18  1  0  0  0  0
 20  3  1  0  0  0  0
 21 20  2  0  0  0  0
 22 21  1  0  0  0  0
 23 21  1  0  0  0  0
 24 23  1  0  0  0  0
 25  3  1  0  0  0  0
 25 26  1  0  0  0  0
 25 27  1  0  0  0  0
 28  4  1  0  0  0  0
 28  5  2  0  0  0  0
 29 28  1  0  0  0  0
 30 29  1  0  0  0  0
 31 29  1  0  0  0  0
 32 29  1  0  0  0  0
 33 41  1  1  0  0  0
 34 35  1  0  0  0  0
 34 33  1  0  0  0  0
 36 10  1  0  0  0  0
 36 34  2  0  0  0  0
 37 40  1  0  0  0  0
 37 36  1  0  0  0  0
 38 37  1  0  0  0  0
 39 37  1  0  0  0  0
 41 42  1  0  0  0  0
 41 43  1  0  0  0  0
 44 41  1  0  0  0  0
 45 53  1  1  0  0  0
 46 45  1  0  0  0  0
 47 46  1  0  0  0  0
 48 12  1  0  0  0  0
 48 46  2  0  0  0  0
 49 48  1  0  0  0  0
 50 49  1  0  0  0  0
 51 49  1  0  0  0  0
 52 49  1  0  0  0  0
 53 56  1  0  0  0  0
 53 54  1  0  0  0  0
 55 53  1  0  0  0  0
 57  1  1  0  0  0  0
 58  1  1  0  0  0  0
 59  8  1  0  0  0  0
M  END
$$$$
