CSD_code = XICTAE | q = 1 | S = 0 | Stoichiometry = C25H27ClN2OPPd(1+) | MND = 4
 OpenBabel04212202123D

 58 62  0  0  1  0  0  0  0  0999 V2000
   -5.3881   -3.0931   -1.9857 Pd  0  0  0  0  0  0  0  0  0  0  0  0
   -5.0924   -2.2215    0.0190 Cl  0  0  0  0  0  0  0  0  0  0  0  0
   -4.1285   -1.6071   -3.0018 P   0  0  0  0  0  4  0  0  0  0  0  0
   -6.5075   -4.8688   -1.1234 O   0  0  0  0  0  0  0  0  0  0  0  0
   -5.7868   -3.9082   -3.8262 N   0  0  2  0  0  0  0  0  0  0  0  0
   -7.0489   -4.3224   -3.9476 N   0  0  1  0  0  0  0  0  0  0  0  0
   -7.9842   -4.1010   -2.8465 C   0  0  1  0  0  0  0  0  0  0  0  0
   -9.3630   -4.2281   -3.4988 C   0  0  0  0  0  0  0  0  0  0  0  0
   -9.1115   -3.8025   -4.9427 C   0  0  0  0  0  0  0  0  0  0  0  0
   -7.7329   -4.3927   -5.2307 C   0  0  0  0  0  0  0  0  0  0  0  0
   -7.7644   -5.1198   -1.7219 C   0  0  0  0  0  0  0  0  0  0  0  0
   -6.3269   -5.4880    0.1398 C   0  0  0  0  0  0  0  0  0  0  0  0
   -3.0465   -2.5534   -4.1029 C   0  0  0  0  0  0  0  0  0  0  0  0
   -3.5603   -3.6511   -4.8223 C   0  0  0  0  0  0  0  0  0  0  0  0
   -4.9370   -4.1024   -4.7795 C   0  0  0  0  0  3  0  0  0  0  0  0
   -2.6986   -4.3260   -5.6944 C   0  0  0  0  0  0  0  0  0  0  0  0
   -1.3733   -3.9602   -5.8246 C   0  0  0  0  0  0  0  0  0  0  0  0
   -0.8754   -2.8866   -5.1027 C   0  0  0  0  0  0  0  0  0  0  0  0
   -1.7132   -2.1861   -4.2527 C   0  0  0  0  0  0  0  0  0  0  0  0
   -5.2551   -0.6688   -4.0684 C   0  0  0  0  0  0  0  0  0  0  0  0
   -4.8979   -0.2042   -5.3292 C   0  0  0  0  0  0  0  0  0  0  0  0
   -5.8331    0.4694   -6.0970 C   0  0  0  0  0  0  0  0  0  0  0  0
   -7.1147    0.6778   -5.6119 C   0  0  0  0  0  0  0  0  0  0  0  0
   -7.4713    0.2189   -4.3516 C   0  0  0  0  0  0  0  0  0  0  0  0
   -6.5446   -0.4574   -3.5796 C   0  0  0  0  0  0  0  0  0  0  0  0
   -3.0962   -0.4614   -2.0728 C   0  0  0  0  0  0  0  0  0  0  0  0
   -3.1530    0.9150   -2.2613 C   0  0  0  0  0  0  0  0  0  0  0  0
   -2.3440    1.7355   -1.4936 C   0  0  0  0  0  0  0  0  0  0  0  0
   -1.4947    1.1881   -0.5456 C   0  0  0  0  0  0  0  0  0  0  0  0
   -1.4451   -0.1860   -0.3549 C   0  0  0  0  0  0  0  0  0  0  0  0
   -2.2472   -1.0147   -1.1140 C   0  0  0  0  0  0  0  0  0  0  0  0
   -5.2379   -4.6901   -5.6441 H   0  0  0  0  0  0  0  0  0  0  0  0
   -3.0784   -5.1615   -6.2638 H   0  0  0  0  0  0  0  0  0  0  0  0
   -0.7289   -4.5098   -6.4927 H   0  0  0  0  0  0  0  0  0  0  0  0
    0.1568   -2.5915   -5.2058 H   0  0  0  0  0  0  0  0  0  0  0  0
   -1.3344   -1.3383   -3.6997 H   0  0  0  0  0  0  0  0  0  0  0  0
   -3.8967   -0.3721   -5.7008 H   0  0  0  0  0  0  0  0  0  0  0  0
   -5.5612    0.8330   -7.0760 H   0  0  0  0  0  0  0  0  0  0  0  0
   -7.8383    1.2027   -6.2160 H   0  0  0  0  0  0  0  0  0  0  0  0
   -8.4680    0.3940   -3.9756 H   0  0  0  0  0  0  0  0  0  0  0  0
   -6.7929   -0.8098   -2.5737 H   0  0  0  0  0  0  0  0  0  0  0  0
   -3.8236    1.3355   -2.9975 H   0  0  0  0  0  0  0  0  0  0  0  0
   -2.3826    2.8052   -1.6318 H   0  0  0  0  0  0  0  0  0  0  0  0
   -0.8739    1.8351    0.0548 H   0  0  0  0  0  0  0  0  0  0  0  0
   -0.7888   -0.6051    0.3920 H   0  0  0  0  0  0  0  0  0  0  0  0
   -2.2417   -2.0898   -0.9691 H   0  0  0  0  0  0  0  0  0  0  0  0
   -7.8383   -3.0808   -2.4195 H   0  0  0  0  0  0  0  0  0  0  0  0
  -10.1085   -3.6127   -3.0020 H   0  0  0  0  0  0  0  0  0  0  0  0
   -9.6923   -5.2673   -3.4670 H   0  0  0  0  0  0  0  0  0  0  0  0
   -9.0717   -2.7147   -5.0151 H   0  0  0  0  0  0  0  0  0  0  0  0
   -9.8711   -4.1714   -5.6262 H   0  0  0  0  0  0  0  0  0  0  0  0
   -7.8088   -5.4328   -5.5646 H   0  0  0  0  0  0  0  0  0  0  0  0
   -7.1887   -3.8149   -5.9827 H   0  0  0  0  0  0  0  0  0  0  0  0
   -8.5671   -5.0117   -0.9787 H   0  0  0  0  0  0  0  0  0  0  0  0
   -7.7865   -6.1435   -2.1257 H   0  0  0  0  0  0  0  0  0  0  0  0
   -6.3562   -6.5776    0.0371 H   0  0  0  0  0  0  0  0  0  0  0  0
   -7.0985   -5.1646    0.8458 H   0  0  0  0  0  0  0  0  0  0  0  0
   -5.3484   -5.1749    0.5049 H   0  0  0  0  0  0  0  0  0  0  0  0
  1  2  1  0  0  0  0
  3 26  1  0  0  0  0
  3  1  1  0  0  0  0
  4 12  1  0  0  0  0
  5 15  1  1  0  0  0
  5  1  1  0  0  0  0
  6 10  1  6  0  0  0
  6  5  1  0  0  0  0
  6  7  1  0  0  0  0
  7 47  1  1  0  0  0
  7 11  1  0  0  0  0
  8 49  1  0  0  0  0
  8 48  1  0  0  0  0
  8  7  1  0  0  0  0
  9  8  1  0  0  0  0
 10  9  1  0  0  0  0
 11  4  1  0  0  0  0
 11 54  1  0  0  0  0
 12 58  1  0  0  0  0
 12 57  1  0  0  0  0
 13  3  1  0  0  0  0
 14 15  1  0  0  0  0
 14 13  2  0  0  0  0
 16 14  1  0  0  0  0
 17 16  2  0  0  0  0
 17 18  1  0  0  0  0
 18 19  2  0  0  0  0
 19 13  1  0  0  0  0
 19 36  1  0  0  0  0
 20 25  1  0  0  0  0
 20  3  1  0  0  0  0
 21 20  2  0  0  0  0
 22 23  2  0  0  0  0
 22 21  1  0  0  0  0
 23 24  1  0  0  0  0
 24 40  1  0  0  0  0
 24 25  2  0  0  0  0
 25 41  1  0  0  0  0
 26 31  1  0  0  0  0
 27 26  2  0  0  0  0
 27 28  1  0  0  0  0
 28 29  2  0  0  0  0
 29 30  1  0  0  0  0
 29 44  1  0  0  0  0
 30 45  1  0  0  0  0
 31 46  1  0  0  0  0
 31 30  2  0  0  0  0
 32 15  1  0  0  0  0
 33 16  1  0  0  0  0
 34 17  1  0  0  0  0
 35 18  1  0  0  0  0
 37 21  1  0  0  0  0
 38 22  1  0  0  0  0
 39 23  1  0  0  0  0
 42 27  1  0  0  0  0
 43 28  1  0  0  0  0
 50  9  1  0  0  0  0
 51  9  1  0  0  0  0
 52 10  1  0  0  0  0
 53 10  1  0  0  0  0
 55 11  1  0  0  0  0
 56 12  1  0  0  0  0
M  END
$$$$
