CSD_code = XICWUE | q = 0 | S = 0 | Stoichiometry = C20H12Cl2N2O2Ru | MND = 6
 OpenBabel04212202123D

 39 43  0  0  1  0  0  0  0  0999 V2000
    1.7070    3.4248   -0.2746 Ru  0  0  0  0  0  0  0  0  0  0  0  0
   -0.3581    4.6562   -0.5100 Cl  0  0  0  0  0  0  0  0  0  0  0  0
    3.5712    1.9541   -0.0515 Cl  0  0  0  0  0  0  0  0  0  0  0  0
    2.2598    4.6409    1.0176 C   0  0  0  0  0  2  0  0  0  0  0  0
    2.5337    5.4513    1.7707 O   0  0  0  0  0  1  0  0  0  0  0  0
    2.4974    4.5567   -1.5190 C   0  0  0  0  0  2  0  0  0  0  0  0
    2.9101    5.3176   -2.2604 O   0  0  0  0  0  1  0  0  0  0  0  0
    0.5843    2.2212    0.9613 N   0  0  0  0  0  0  0  0  0  0  0  0
    0.8259    2.1347   -1.6149 N   0  0  0  0  0  0  0  0  0  0  0  0
    0.6286    2.1555    2.3128 C   0  0  2  0  0  3  0  0  0  0  0  0
    1.8241    2.4615    2.9965 C   0  0  0  0  0  0  0  0  0  0  0  0
    2.7130    2.6810    2.4198 H   0  0  0  0  0  0  0  0  0  0  0  0
    1.8677    2.4242    4.3632 C   0  0  0  0  0  0  0  0  0  0  0  0
    2.7887    2.6536    4.8768 H   0  0  0  0  0  0  0  0  0  0  0  0
    0.7283    2.0848    5.1097 C   0  0  0  0  0  0  0  0  0  0  0  0
    0.7816    2.0794    6.1878 H   0  0  0  0  0  0  0  0  0  0  0  0
   -0.4335    1.7437    4.4744 C   0  0  0  0  0  0  0  0  0  0  0  0
   -1.3096    1.4541    5.0358 H   0  0  0  0  0  0  0  0  0  0  0  0
   -0.5084    1.7514    3.0680 C   0  0  0  0  0  0  0  0  0  0  0  0
   -1.6661    1.3708    2.3612 C   0  0  0  0  0  0  0  0  0  0  0  0
   -2.5520    1.0835    2.9080 H   0  0  0  0  0  0  0  0  0  0  0  0
   -1.6455    1.3492    0.9956 C   0  0  0  0  0  0  0  0  0  0  0  0
   -2.5141    1.0326    0.4435 H   0  0  0  0  0  0  0  0  0  0  0  0
   -0.4932    1.7876    0.3119 C   0  0  0  0  0  0  0  0  0  0  0  0
   -0.3555    1.7371   -1.1494 C   0  0  0  0  0  0  0  0  0  0  0  0
   -1.3617    1.2423   -2.0039 C   0  0  0  0  0  0  0  0  0  0  0  0
   -2.3190    0.9555   -1.6026 H   0  0  0  0  0  0  0  0  0  0  0  0
   -1.1273    1.1701   -3.3476 C   0  0  0  0  0  0  0  0  0  0  0  0
   -1.8967    0.8374   -4.0287 H   0  0  0  0  0  0  0  0  0  0  0  0
    0.1431    1.5125   -3.8510 C   0  0  0  0  0  0  0  0  0  0  0  0
    0.4786    1.4098   -5.2150 C   0  0  0  0  0  3  0  0  0  0  0  0
   -0.2787    1.0746   -5.9083 H   0  0  0  0  0  0  0  0  0  0  0  0
    1.7396    1.7176   -5.6450 C   0  0  0  0  0  0  0  0  0  0  0  0
    1.9926    1.6393   -6.6914 H   0  0  0  0  0  0  0  0  0  0  0  0
    2.7213    2.1174   -4.7246 C   0  0  0  0  0  0  0  0  0  0  0  0
    3.7226    2.3198   -5.0724 H   0  0  0  0  0  0  0  0  0  0  0  0
    2.4241    2.2471   -3.3956 C   0  0  0  0  0  0  0  0  0  0  0  0
    3.1910    2.5134   -2.6802 H   0  0  0  0  0  0  0  0  0  0  0  0
    1.1210    1.9775   -2.9268 C   0  0  0  0  0  0  0  0  0  0  0  0
  1  3  1  0  0  0  0
  1  8  1  0  0  0  0
  1  4  1  0  0  0  0
  2  1  1  0  0  0  0
  4  5  1  0  0  0  0
  6  1  1  0  0  0  0
  7  6  1  0  0  0  0
  8 10  1  0  0  0  0
  9 25  1  0  0  0  0
  9  1  1  0  0  0  0
 10 11  1  6  0  0  0
 10 19  1  0  0  0  0
 11 13  2  0  0  0  0
 12 11  1  0  0  0  0
 13 14  1  0  0  0  0
 13 15  1  0  0  0  0
 15 16  1  0  0  0  0
 17 18  1  0  0  0  0
 17 15  2  0  0  0  0
 19 17  1  0  0  0  0
 20 21  1  0  0  0  0
 20 19  2  0  0  0  0
 22 20  1  0  0  0  0
 23 22  1  0  0  0  0
 24  8  1  0  0  0  0
 24 22  2  0  0  0  0
 25 24  1  0  0  0  0
 26 27  1  0  0  0  0
 26 25  2  0  0  0  0
 28 26  1  0  0  0  0
 29 28  1  0  0  0  0
 30 28  2  0  0  0  0
 30 39  1  0  0  0  0
 31 30  1  0  0  0  0
 32 31  1  0  0  0  0
 33 31  1  0  0  0  0
 33 35  2  0  0  0  0
 34 33  1  0  0  0  0
 35 37  1  0  0  0  0
 36 35  1  0  0  0  0
 37 39  2  0  0  0  0
 37 38  1  0  0  0  0
 39  9  1  0  0  0  0
M  END
$$$$
