CSD_code = XIGCUO | q = 0 | S = 0 | Stoichiometry = C23H18ClNPdS | MND = 4
 OpenBabel04212202123D

 45 50  0  0  1  0  0  0  0  0999 V2000
    7.3536    4.4654   10.7056 Pd  0  0  2  0  0  0  0  0  0  0  0  0
    7.7292    2.5070    9.7094 Cl  0  0  0  0  0  0  0  0  0  0  0  0
    9.4082    5.5242    9.6268 S   0  0  1  0  0  3  0  0  0  0  0  0
    7.2425    6.1207   11.7546 N   0  0  0  0  0  0  0  0  0  0  0  0
    5.4245    4.1491   12.9518 C   0  0  0  0  0  0  0  0  0  0  0  0
    5.6768    3.8469   11.5851 C   0  0  0  0  0  0  0  0  0  0  0  0
    6.1360    5.1448   13.6810 C   0  0  0  0  0  0  0  0  0  0  0  0
    4.8120    3.0289   10.8976 C   0  0  0  0  0  3  0  0  0  0  0  0
    4.9886    2.7997    9.8530 H   0  0  0  0  0  0  0  0  0  0  0  0
    5.9637    5.2647   15.0887 C   0  0  1  0  0  3  0  0  0  0  0  0
    4.9471    4.4994   15.7345 C   0  0  0  0  0  0  0  0  0  0  0  0
    6.9028    6.1417   12.9976 C   0  0  0  0  0  0  0  0  0  0  0  0
    7.1266    7.0475   13.5650 H   0  0  0  0  0  0  0  0  0  0  0  0
    4.7617    4.6183   17.1337 C   0  0  0  0  0  0  0  0  0  0  0  0
    3.9796    4.0334   17.5960 H   0  0  0  0  0  0  0  0  0  0  0  0
    4.3505    3.4638   13.6120 C   0  0  0  0  0  0  0  0  0  0  0  0
    8.5023    6.2285    8.2462 C   0  0  0  0  0  0  0  0  0  0  0  0
    3.5061    2.6065   12.8655 C   0  0  0  0  0  0  0  0  0  0  0  0
    2.7021    2.1027   13.3821 H   0  0  0  0  0  0  0  0  0  0  0  0
    4.1360    3.6620   14.9720 C   0  0  0  0  0  0  0  0  0  0  0  0
    3.3189    3.1426   15.4537 H   0  0  0  0  0  0  0  0  0  0  0  0
    7.8847    7.2745   11.1752 C   0  0  0  0  0  0  0  0  0  0  0  0
    7.8954    8.1196   11.8826 H   0  0  0  0  0  0  0  0  0  0  0  0
    7.3192    7.5774   10.2830 H   0  0  0  0  0  0  0  0  0  0  0  0
    5.5568    5.4341   17.8802 C   0  0  0  0  0  0  0  0  0  0  0  0
    5.4167    5.5177   18.9476 H   0  0  0  0  0  0  0  0  0  0  0  0
    3.7093    2.4255   11.5320 C   0  0  0  0  0  0  0  0  0  0  0  0
    3.0559    1.7858   10.9570 H   0  0  0  0  0  0  0  0  0  0  0  0
    6.7773    6.0827   15.9059 C   0  0  0  0  0  0  0  0  0  0  0  0
    7.6009    6.6293   15.4720 H   0  0  0  0  0  0  0  0  0  0  0  0
    9.3245    6.9568   10.7689 C   0  0  0  0  0  0  0  0  0  0  0  0
    9.9161    6.6609   11.6373 H   0  0  0  0  0  0  0  0  0  0  0  0
    9.7869    7.8175   10.2863 H   0  0  0  0  0  0  0  0  0  0  0  0
    7.2611    5.7138    7.8926 C   0  0  0  0  0  0  0  0  0  0  0  0
    6.8361    4.8623    8.4458 H   0  0  0  0  0  0  0  0  0  0  0  0
    6.5830    6.1635   17.2561 C   0  0  0  0  0  0  0  0  0  0  0  0
    7.2300    6.7856   17.8572 H   0  0  0  0  0  0  0  0  0  0  0  0
    7.1314    7.3227    6.1127 C   0  0  0  0  0  0  0  0  0  0  0  0
    6.5954    7.7525    5.2799 H   0  0  0  0  0  0  0  0  0  0  0  0
    8.3748    7.8225    6.4653 C   0  0  0  0  0  0  0  0  0  0  0  0
    8.8112    8.6367    5.9062 H   0  0  0  0  0  0  0  0  0  0  0  0
    9.0680    7.2718    7.5285 C   0  0  0  0  0  0  0  0  0  0  0  0
   10.0455    7.6443    7.7968 H   0  0  0  0  0  0  0  0  0  0  0  0
    6.5798    6.2679    6.8211 C   0  0  0  0  0  0  0  0  0  0  0  0
    5.6160    5.8712    6.5405 H   0  0  0  0  0  0  0  0  0  0  0  0
  1  2  1  1  0  0  0
  1  6  2  0  0  0  0
  1  4  1  0  0  0  0
  3 17  1  6  0  0  0
  3  1  1  0  0  0  0
  3 31  1  0  0  0  0
  4 12  1  0  0  0  0
  5 16  2  0  0  0  0
  5  7  1  0  0  0  0
  6  5  1  0  0  0  0
  8 27  1  0  0  0  0
  8  6  1  0  0  0  0
  9  8  1  0  0  0  0
 10  7  1  1  0  0  0
 10 11  1  0  0  0  0
 10 29  1  0  0  0  0
 11 14  1  0  0  0  0
 12 13  1  0  0  0  0
 12  7  2  0  0  0  0
 14 15  1  0  0  0  0
 14 25  2  0  0  0  0
 16 20  1  0  0  0  0
 18 19  1  0  0  0  0
 18 16  1  0  0  0  0
 20 21  1  0  0  0  0
 20 11  2  0  0  0  0
 22  4  1  0  0  0  0
 22 23  1  0  0  0  0
 24 22  1  0  0  0  0
 25 26  1  0  0  0  0
 27 18  2  0  0  0  0
 28 27  1  0  0  0  0
 29 36  2  0  0  0  0
 30 29  1  0  0  0  0
 31 22  1  0  0  0  0
 31 32  1  0  0  0  0
 33 31  1  0  0  0  0
 34 17  1  0  0  0  0
 34 35  1  0  0  0  0
 36 37  1  0  0  0  0
 36 25  1  0  0  0  0
 38 40  2  0  0  0  0
 38 44  1  0  0  0  0
 39 38  1  0  0  0  0
 40 42  1  0  0  0  0
 41 40  1  0  0  0  0
 42 43  1  0  0  0  0
 42 17  2  0  0  0  0
 44 34  2  0  0  0  0
 45 44  1  0  0  0  0
M  END
$$$$
