CSD_code = XIGMIL | q = -1 | S = 0 | Stoichiometry = C14H9Cl2N2OZn(1-) | MND = 4
 OpenBabel04212202123D

 29 31  0  0  0  0  0  0  0  0999 V2000
   12.8356    5.0322    2.9868 C   0  0  0  0  0  0  0  0  0  0  0  0
   11.5657    4.4252    3.2784 C   0  0  0  0  0  0  0  0  0  0  0  0
   11.5536    3.4409    4.3146 C   0  0  0  0  0  0  0  0  0  0  0  0
   10.5982    2.9878    4.5345 H   0  0  0  0  0  0  0  0  0  0  0  0
   12.6784    3.0836    4.9966 C   0  0  0  0  0  0  0  0  0  0  0  0
   12.6249    2.3333    5.7746 H   0  0  0  0  0  0  0  0  0  0  0  0
   13.9128    3.6806    4.7008 C   0  0  0  0  0  0  0  0  0  0  0  0
   14.7998    3.3907    5.2454 H   0  0  0  0  0  0  0  0  0  0  0  0
   13.9733    4.6289    3.7196 C   0  0  0  0  0  0  0  0  0  0  0  0
   14.9207    5.0980    3.4832 H   0  0  0  0  0  0  0  0  0  0  0  0
   13.0318    6.0204    1.9943 C   0  0  0  0  0  3  0  0  0  0  0  0
   14.0709    6.3597    1.8801 H   0  0  0  0  0  0  0  0  0  0  0  0
   12.5035    7.4631    0.2549 C   0  0  0  0  0  0  0  0  0  0  0  0
   13.6061    7.2123   -0.5711 C   0  0  0  0  0  0  0  0  0  0  0  0
   14.1750    6.3031   -0.4389 H   0  0  0  0  0  0  0  0  0  0  0  0
   13.9363    8.0886   -1.5803 C   0  0  0  0  0  0  0  0  0  0  0  0
   14.7824    7.8892   -2.2234 H   0  0  0  0  0  0  0  0  0  0  0  0
   13.1727    9.2404   -1.7839 C   0  0  0  0  0  0  0  0  0  0  0  0
   12.0594    9.4856   -0.9727 C   0  0  0  0  0  0  0  0  0  0  0  0
   11.4612   10.3689   -1.1426 H   0  0  0  0  0  0  0  0  0  0  0  0
   11.7276    8.6049    0.0304 C   0  0  0  0  0  0  0  0  0  0  0  0
   10.8676    8.7853    0.6579 H   0  0  0  0  0  0  0  0  0  0  0  0
   13.5274   10.1450   -2.8028 C   0  0  0  0  0  0  0  0  0  0  0  0
   12.1315    6.5809    1.2542 N   0  0  0  0  0  0  0  0  0  0  0  0
   13.8344   10.8863   -3.6255 N   0  0  0  0  0  0  0  0  0  0  0  0
   10.4770    4.6918    2.6842 O   0  0  0  0  0  0  0  0  0  0  0  0
    9.6245    5.3076   -0.6590 Cl  0  0  0  0  0  0  0  0  0  0  0  0
    8.9636    7.7545    2.2396 Cl  0  0  0  0  0  0  0  0  0  0  0  0
   10.1170    6.0603    1.3649 Zn  0  0  0  0  0  0  0  0  0  0  0  0
  1  2  2  0  0  0  0
  1  9  1  0  0  0  0
  2  3  1  0  0  0  0
  3  4  1  0  0  0  0
  3  5  2  0  0  0  0
  5  6  1  0  0  0  0
  7  5  1  0  0  0  0
  7  8  1  0  0  0  0
  9  7  2  0  0  0  0
 10  9  1  0  0  0  0
 11  1  1  0  0  0  0
 12 11  1  0  0  0  0
 13 24  1  0  0  0  0
 14 15  1  0  0  0  0
 14 13  2  0  0  0  0
 16 14  1  0  0  0  0
 17 16  1  0  0  0  0
 18 16  2  0  0  0  0
 18 19  1  0  0  0  0
 19 21  2  0  0  0  0
 20 19  1  0  0  0  0
 21 13  1  0  0  0  0
 21 22  1  0  0  0  0
 23 18  1  0  0  0  0
 24 29  1  0  0  0  0
 24 11  1  0  0  0  0
 25 23  3  0  0  0  0
 26  2  1  0  0  0  0
 27 29  1  0  0  0  0
 29 28  1  0  0  0  0
 29 26  1  0  0  0  0
M  END
$$$$
