CSD_code = XIGNAE | q = -1 | S = 0 | Stoichiometry = C14H9Cl2N2OZn(1-) | MND = 4
 OpenBabel04212202123D

 29 31  0  0  0  0  0  0  0  0999 V2000
   -0.3562    7.0356    8.0162 Zn  0  0  0  0  0  0  0  0  0  0  0  0
   -2.2515    8.0942    8.4594 Cl  0  0  0  0  0  0  0  0  0  0  0  0
    1.0116    7.8020    6.4343 Cl  0  0  0  0  0  0  0  0  0  0  0  0
   -0.4949    5.1067    7.9690 O   0  0  0  0  0  0  0  0  0  0  0  0
    0.6466    6.9887    9.8424 N   0  0  0  0  0  0  0  0  0  0  0  0
    1.6957   12.9227   12.8312 N   0  0  0  0  0  0  0  0  0  0  0  0
    0.6861    4.5652    9.9895 C   0  0  0  0  0  0  0  0  0  0  0  0
   -0.0122    4.2521    8.7729 C   0  0  0  0  0  0  0  0  0  0  0  0
   -0.1708    2.8646    8.4691 C   0  0  0  0  0  0  0  0  0  0  0  0
   -0.6939    2.6306    7.5536 H   0  0  0  0  0  0  0  0  0  0  0  0
    0.3069    1.8792    9.2808 C   0  0  0  0  0  0  0  0  0  0  0  0
    0.1649    0.8403    9.0130 H   0  0  0  0  0  0  0  0  0  0  0  0
    0.9845    2.1971   10.4672 C   0  0  0  0  0  0  0  0  0  0  0  0
    1.3590    1.4100   11.1056 H   0  0  0  0  0  0  0  0  0  0  0  0
    1.1620    3.5103   10.7986 C   0  0  0  0  0  0  0  0  0  0  0  0
    1.6850    3.7683   11.7115 H   0  0  0  0  0  0  0  0  0  0  0  0
    0.9312    5.8811   10.4460 C   0  0  0  0  0  3  0  0  0  0  0  0
    1.4551    5.9449   11.4101 H   0  0  0  0  0  0  0  0  0  0  0  0
    0.8667    8.2003   10.4746 C   0  0  0  0  0  0  0  0  0  0  0  0
    0.5542    8.3882   11.8264 C   0  0  0  0  0  0  0  0  0  0  0  0
    0.1158    7.5768   12.3895 H   0  0  0  0  0  0  0  0  0  0  0  0
    0.7530    9.6118   12.4254 C   0  0  0  0  0  0  0  0  0  0  0  0
    0.5025    9.7586   13.4669 H   0  0  0  0  0  0  0  0  0  0  0  0
    1.2751   10.6756   11.6858 C   0  0  0  0  0  0  0  0  0  0  0  0
    1.5705   10.4975   10.3299 C   0  0  0  0  0  0  0  0  0  0  0  0
    1.9587   11.3265    9.7564 H   0  0  0  0  0  0  0  0  0  0  0  0
    1.3637    9.2762    9.7319 C   0  0  0  0  0  0  0  0  0  0  0  0
    1.5846    9.1322    8.6848 H   0  0  0  0  0  0  0  0  0  0  0  0
    1.4999   11.9181   12.3088 C   0  0  0  0  0  0  0  0  0  0  0  0
  1  2  1  0  0  0  0
  1  5  1  0  0  0  0
  3  1  1  0  0  0  0
  4  1  1  0  0  0  0
  4  8  1  0  0  0  0
  5 17  1  0  0  0  0
  5 19  1  0  0  0  0
  7 17  1  0  0  0  0
  7 15  1  0  0  0  0
  8  7  2  0  0  0  0
  9  8  1  0  0  0  0
  9 11  2  0  0  0  0
 10  9  1  0  0  0  0
 11 13  1  0  0  0  0
 12 11  1  0  0  0  0
 13 15  2  0  0  0  0
 13 14  1  0  0  0  0
 15 16  1  0  0  0  0
 17 18  1  0  0  0  0
 19 20  1  0  0  0  0
 20 21  1  0  0  0  0
 20 22  2  0  0  0  0
 22 23  1  0  0  0  0
 24 29  1  0  0  0  0
 24 22  1  0  0  0  0
 25 24  2  0  0  0  0
 26 25  1  0  0  0  0
 27 25  1  0  0  0  0
 27 19  2  0  0  0  0
 28 27  1  0  0  0  0
 29  6  3  0  0  0  0
M  END
$$$$
