CSD_code = XIJTEQ | q = 0 | S = 0 | Stoichiometry = C15H9ClNO4Re | MND = 6
 OpenBabel04212202123D

 31 33  0  0  1  0  0  0  0  0999 V2000
    2.6882    4.9159    1.8155 Re  0  0  0  0  0  0  0  0  0  0  0  0
    4.7660    5.7047    2.7022 Cl  0  0  0  0  0  0  0  0  0  0  0  0
    3.3394    3.0736    1.8740 C   0  0  0  0  0  2  0  0  0  0  0  0
    3.8401    2.0500    1.8700 O   0  0  0  0  0  1  0  0  0  0  0  0
    1.8331    4.7610    3.5535 C   0  0  0  0  0  2  0  0  0  0  0  0
    1.3572    4.7471    4.5966 O   0  0  0  0  0  1  0  0  0  0  0  0
    1.0655    4.4505    0.8544 C   0  0  0  0  0  2  0  0  0  0  0  0
    0.1196    4.2114    0.2556 O   0  0  0  0  0  1  0  0  0  0  0  0
    2.4480    7.0288    1.5754 N   0  0  0  0  0  0  0  0  0  0  0  0
    3.5305    7.5338    0.9593 C   0  0  2  0  0  3  0  0  0  0  0  0
    3.7079    8.9019    0.7846 C   0  0  0  0  0  0  0  0  0  0  0  0
    4.5694    9.2703    0.2506 H   0  0  0  0  0  0  0  0  0  0  0  0
    2.7593    9.7668    1.3006 C   0  0  0  0  0  0  0  0  0  0  0  0
    2.8778   10.8340    1.1920 H   0  0  0  0  0  0  0  0  0  0  0  0
    1.6528    9.2378    1.9500 C   0  0  0  0  0  0  0  0  0  0  0  0
    0.8915    9.8772    2.3664 H   0  0  0  0  0  0  0  0  0  0  0  0
    1.5357    7.8627    2.0570 C   0  0  0  0  0  0  0  0  0  0  0  0
    0.6855    7.4081    2.5488 H   0  0  0  0  0  0  0  0  0  0  0  0
    4.4152    6.4913    0.3660 C   0  0  1  0  0  3  0  0  0  0  0  0
    3.8980    5.4039    0.0588 O   0  0  0  0  0  0  0  0  0  0  0  0
    5.7514    6.8627   -0.1322 C   0  0  0  0  0  0  0  0  0  0  0  0
    6.5946    7.7042    0.5911 C   0  0  0  0  0  0  0  0  0  0  0  0
    6.2814    8.0782    1.5549 H   0  0  0  0  0  0  0  0  0  0  0  0
    7.8503    8.0063    0.1003 C   0  0  0  0  0  0  0  0  0  0  0  0
    8.5060    8.6499    0.6677 H   0  0  0  0  0  0  0  0  0  0  0  0
    8.2724    7.4790   -1.1104 C   0  0  0  0  0  0  0  0  0  0  0  0
    9.2536    7.7215   -1.4906 H   0  0  0  0  0  0  0  0  0  0  0  0
    7.4439    6.6276   -1.8235 C   0  0  0  0  0  0  0  0  0  0  0  0
    7.7772    6.2046   -2.7592 H   0  0  0  0  0  0  0  0  0  0  0  0
    6.1921    6.3094   -1.3331 C   0  0  0  0  0  0  0  0  0  0  0  0
    5.5380    5.6401   -1.8725 H   0  0  0  0  0  0  0  0  0  0  0  0
  1  3  1  0  0  0  0
  1  2  1  0  0  0  0
  1  5  1  0  0  0  0
  4  3  1  0  0  0  0
  5  6  1  0  0  0  0
  7  1  1  0  0  0  0
  8  7  1  0  0  0  0
  9  1  1  0  0  0  0
  9 17  1  0  0  0  0
 10 11  1  6  0  0  0
 10  9  1  0  0  0  0
 11 13  2  0  0  0  0
 12 11  1  0  0  0  0
 13 15  1  0  0  0  0
 14 13  1  0  0  0  0
 15 17  2  0  0  0  0
 15 16  1  0  0  0  0
 17 18  1  0  0  0  0
 19 21  1  6  0  0  0
 19 10  1  0  0  0  0
 20 19  1  0  0  0  0
 20  1  1  0  0  0  0
 21 22  1  0  0  0  0
 22 23  1  0  0  0  0
 24 22  2  0  0  0  0
 24 25  1  0  0  0  0
 26 24  1  0  0  0  0
 27 26  1  0  0  0  0
 28 30  1  0  0  0  0
 28 26  2  0  0  0  0
 29 28  1  0  0  0  0
 30 21  2  0  0  0  0
 31 30  1  0  0  0  0
M  END
$$$$
