CSD_code = XIJTOA | q = 0 | S = 0 | Stoichiometry = C22H26Cl2OSiTi | MND = 8
 OpenBabel04212202123D

 53 56  0  0  1  0  0  0  0  0999 V2000
    7.8381    4.7183    4.1847 Ti  0  0  0  0  0  0  0  0  0  0  0  0
    7.7477    4.2481    6.3122 Cl  0  0  0  0  0  0  0  0  0  0  0  0
    9.8816    4.0266    3.8730 Cl  0  0  0  0  0  0  0  0  0  0  0  0
    4.5990    5.4791    3.8735 Si  0  0  0  0  0  0  0  0  0  0  0  0
    6.8454    3.5283    3.5962 O   0  0  0  0  0  0  0  0  0  0  0  0
    6.3086    6.2433    3.6592 C   0  0  1  0  0  0  0  0  0  0  0  0
    7.1136    6.8252    4.6801 C   0  0  0  0  0  0  0  0  0  0  0  0
    8.4267    7.0080    4.2196 C   0  0  0  0  0  0  0  0  0  0  0  0
    8.4688    6.6009    2.8516 C   0  0  0  0  0  0  0  0  0  0  0  0
    9.4902    6.6073    1.8824 C   0  0  0  0  0  0  0  0  0  0  0  0
    9.2143    6.1269    0.6279 C   0  0  0  0  0  0  0  0  0  0  0  0
    7.9382    5.6370    0.2929 C   0  0  0  0  0  0  0  0  0  0  0  0
    6.9114    5.6304    1.2035 C   0  0  0  0  0  0  0  0  0  0  0  0
    7.1530    6.1187    2.5030 C   0  0  0  0  0  0  0  0  0  0  0  0
    3.2837    6.5913    3.0507 C   0  0  0  0  0  0  0  0  0  0  0  0
    4.2616    5.2570    5.7413 C   0  0  0  0  0  0  0  0  0  0  0  0
    4.5827    3.7614    3.0422 C   0  0  0  0  0  0  0  0  0  0  0  0
    3.4473    3.2259    2.4516 C   0  0  0  0  0  0  0  0  0  0  0  0
    3.4600    1.9720    1.8631 C   0  0  0  0  0  0  0  0  0  0  0  0
    2.2294    1.4051    1.2217 C   0  0  0  0  0  0  0  0  0  0  0  0
    4.6489    1.2500    1.8517 C   0  0  0  0  0  0  0  0  0  0  0  0
    5.8186    1.7334    2.4157 C   0  0  0  0  0  0  0  0  0  0  0  0
    5.7667    3.0030    3.0275 C   0  0  0  0  0  0  0  0  0  0  0  0
    7.1377    0.9727    2.3679 C   0  0  0  0  0  0  0  0  0  0  0  0
    7.6787    0.7590    3.7916 C   0  0  0  0  0  0  0  0  0  0  0  0
    8.1385    1.7882    1.5318 C   0  0  0  0  0  0  0  0  0  0  0  0
    6.9901   -0.4065    1.7153 C   0  0  0  0  0  0  0  0  0  0  0  0
    6.7453    7.1341    5.6525 H   0  0  0  0  0  0  0  0  0  0  0  0
    9.2265    7.5098    4.7520 H   0  0  0  0  0  0  0  0  0  0  0  0
   10.4707    6.9916    2.1300 H   0  0  0  0  0  0  0  0  0  0  0  0
    9.9865    6.1240   -0.1267 H   0  0  0  0  0  0  0  0  0  0  0  0
    7.7694    5.2699   -0.7088 H   0  0  0  0  0  0  0  0  0  0  0  0
    5.9234    5.2799    0.9304 H   0  0  0  0  0  0  0  0  0  0  0  0
    3.4069    6.6479    1.9743 H   0  0  0  0  0  0  0  0  0  0  0  0
    2.2872    6.2166    3.2529 H   0  0  0  0  0  0  0  0  0  0  0  0
    3.3364    7.6015    3.4415 H   0  0  0  0  0  0  0  0  0  0  0  0
    4.1651    6.2157    6.2427 H   0  0  0  0  0  0  0  0  0  0  0  0
    3.3402    4.7080    5.9106 H   0  0  0  0  0  0  0  0  0  0  0  0
    5.0716    4.7063    6.2191 H   0  0  0  0  0  0  0  0  0  0  0  0
    2.5354    3.8040    2.4572 H   0  0  0  0  0  0  0  0  0  0  0  0
    2.2669    1.5554    0.1424 H   0  0  0  0  0  0  0  0  0  0  0  0
    2.1541    0.3360    1.4071 H   0  0  0  0  0  0  0  0  0  0  0  0
    1.3353    1.8931    1.6008 H   0  0  0  0  0  0  0  0  0  0  0  0
    4.6413    0.2805    1.3808 H   0  0  0  0  0  0  0  0  0  0  0  0
    6.9406    0.2349    4.3969 H   0  0  0  0  0  0  0  0  0  0  0  0
    8.5843    0.1570    3.7522 H   0  0  0  0  0  0  0  0  0  0  0  0
    7.9248    1.7046    4.2842 H   0  0  0  0  0  0  0  0  0  0  0  0
    7.7620    1.9157    0.5179 H   0  0  0  0  0  0  0  0  0  0  0  0
    9.0923    1.2673    1.4853 H   0  0  0  0  0  0  0  0  0  0  0  0
    8.3128    2.7787    1.9627 H   0  0  0  0  0  0  0  0  0  0  0  0
    7.9564   -0.9057    1.7122 H   0  0  0  0  0  0  0  0  0  0  0  0
    6.6557   -0.3217    0.6841 H   0  0  0  0  0  0  0  0  0  0  0  0
    6.2917   -1.0292    2.2695 H   0  0  0  0  0  0  0  0  0  0  0  0
  1  2  1  0  0  0  0
  3  1  1  0  0  0  0
  4 16  1  0  0  0  0
  5  1  1  0  0  0  0
  6 14  1  6  0  0  0
  6  4  1  0  0  0  0
  6  1  1  0  0  0  0
  6  7  1  0  0  0  0
  7 28  1  0  0  0  0
  8  7  2  0  0  0  0
  8 29  1  0  0  0  0
  9  8  1  0  0  0  0
 10 30  1  0  0  0  0
 10  9  2  0  0  0  0
 11 10  1  0  0  0  0
 12 11  2  0  0  0  0
 12 13  1  0  0  0  0
 13 14  2  0  0  0  0
 14  9  1  0  0  0  0
 15 35  1  0  0  0  0
 15 36  1  0  0  0  0
 15  4  1  0  0  0  0
 16 38  1  0  0  0  0
 16 39  1  0  0  0  0
 16 37  1  0  0  0  0
 17  4  1  0  0  0  0
 18 40  1  0  0  0  0
 18 17  2  0  0  0  0
 19 18  1  0  0  0  0
 20 42  1  0  0  0  0
 20 43  1  0  0  0  0
 20 19  1  0  0  0  0
 21 19  2  0  0  0  0
 21 22  1  0  0  0  0
 22 23  2  0  0  0  0
 23 17  1  0  0  0  0
 23  5  1  0  0  0  0
 24 22  1  0  0  0  0
 24 25  1  0  0  0  0
 25 47  1  0  0  0  0
 25 45  1  0  0  0  0
 26 50  1  0  0  0  0
 26 24  1  0  0  0  0
 27 53  1  0  0  0  0
 27 24  1  0  0  0  0
 31 11  1  0  0  0  0
 32 12  1  0  0  0  0
 33 13  1  0  0  0  0
 34 15  1  0  0  0  0
 41 20  1  0  0  0  0
 44 21  1  0  0  0  0
 46 25  1  0  0  0  0
 48 26  1  0  0  0  0
 49 26  1  0  0  0  0
 51 27  1  0  0  0  0
 52 27  1  0  0  0  0
M  END
$$$$
