CSD_code = XIKKAG | q = 0 | S = 0 | Stoichiometry = C24H27AuClO6P | MND = 2
 OpenBabel04212202123D

 60 62  0  0  0  0  0  0  0  0999 V2000
    2.4173    9.1163    1.8726 Au  0  0  0  0  0  0  0  0  0  0  0  0
    2.9635    6.9818    2.4706 Cl  0  0  0  0  0  0  0  0  0  0  0  0
    2.0729   11.2663    1.3154 P   0  0  0  0  0  4  0  0  0  0  0  0
    0.8265   13.4262    3.2261 O   0  0  0  0  0  0  0  0  0  0  0  0
    0.1009   10.1014    0.0876 O   0  0  0  0  0  0  0  0  0  0  0  0
    0.5732   12.6925   -1.0681 O   0  0  0  0  0  0  0  0  0  0  0  0
    4.4283   10.5406    0.3820 O   0  0  0  0  0  0  0  0  0  0  0  0
    3.8457   10.6470    3.5839 O   0  0  0  0  0  0  0  0  0  0  0  0
    2.3574   14.0625    0.8140 O   0  0  0  0  0  0  0  0  0  0  0  0
    0.3778   11.8203    1.5781 C   0  0  0  0  0  0  0  0  0  0  0  0
   -0.1008   12.7547    2.4983 C   0  0  0  0  0  0  0  0  0  0  0  0
   -1.4773   12.9340    2.6192 C   0  0  0  0  0  0  0  0  0  0  0  0
   -1.8788   13.6649    3.3028 H   0  0  0  0  0  0  0  0  0  0  0  0
   -2.3494   12.1661    1.8696 C   0  0  0  0  0  0  0  0  0  0  0  0
   -3.4127   12.3212    1.9783 H   0  0  0  0  0  0  0  0  0  0  0  0
   -1.8920   11.1922    0.9984 C   0  0  0  0  0  0  0  0  0  0  0  0
   -2.5945   10.5882    0.4470 H   0  0  0  0  0  0  0  0  0  0  0  0
   -0.5238   11.0172    0.8673 C   0  0  0  0  0  0  0  0  0  0  0  0
    0.3988   14.3566    4.1887 C   0  0  0  0  0  0  0  0  0  0  0  0
   -0.1542   15.1855    3.7338 H   0  0  0  0  0  0  0  0  0  0  0  0
    1.3101   14.7398    4.6467 H   0  0  0  0  0  0  0  0  0  0  0  0
   -0.2211   13.8856    4.9583 H   0  0  0  0  0  0  0  0  0  0  0  0
   -0.6736    9.1747   -0.6361 C   0  0  0  0  0  0  0  0  0  0  0  0
   -1.3062    8.5794    0.0288 H   0  0  0  0  0  0  0  0  0  0  0  0
    0.0372    8.5186   -1.1359 H   0  0  0  0  0  0  0  0  0  0  0  0
   -1.2967    9.6766   -1.3837 H   0  0  0  0  0  0  0  0  0  0  0  0
    2.5343   11.5904   -0.4072 C   0  0  0  0  0  0  0  0  0  0  0  0
    1.7748   12.1772   -1.4233 C   0  0  0  0  0  0  0  0  0  0  0  0
    2.2906   12.2124   -2.7163 C   0  0  0  0  0  0  0  0  0  0  0  0
    1.7280   12.6573   -3.5215 H   0  0  0  0  0  0  0  0  0  0  0  0
    3.5370   11.6766   -2.9864 C   0  0  0  0  0  0  0  0  0  0  0  0
    3.9188   11.7132   -3.9958 H   0  0  0  0  0  0  0  0  0  0  0  0
    4.3052   11.1010   -1.9911 C   0  0  0  0  0  0  0  0  0  0  0  0
    5.2763   10.6952   -2.2242 H   0  0  0  0  0  0  0  0  0  0  0  0
    3.7979   11.0624   -0.6998 C   0  0  0  0  0  0  0  0  0  0  0  0
   -0.2611   13.2307   -2.0615 C   0  0  0  0  0  0  0  0  0  0  0  0
    0.1889   14.1064   -2.5425 H   0  0  0  0  0  0  0  0  0  0  0  0
   -1.1718   13.5326   -1.5449 H   0  0  0  0  0  0  0  0  0  0  0  0
   -0.5102   12.4893   -2.8284 H   0  0  0  0  0  0  0  0  0  0  0  0
    5.6207    9.8105    0.2032 C   0  0  0  0  0  0  0  0  0  0  0  0
    5.4902    9.0076   -0.5272 H   0  0  0  0  0  0  0  0  0  0  0  0
    5.8453    9.3704    1.1733 H   0  0  0  0  0  0  0  0  0  0  0  0
    6.4428   10.4643   -0.1057 H   0  0  0  0  0  0  0  0  0  0  0  0
    3.1721   12.4038    2.1984 C   0  0  0  0  0  0  0  0  0  0  0  0
    4.0000   11.9410    3.2248 C   0  0  0  0  0  0  0  0  0  0  0  0
    4.9025   12.8200    3.8204 C   0  0  0  0  0  0  0  0  0  0  0  0
    5.5531   12.4879    4.6134 H   0  0  0  0  0  0  0  0  0  0  0  0
    4.9573   14.1352    3.4002 C   0  0  0  0  0  0  0  0  0  0  0  0
    5.6585   14.8097    3.8697 H   0  0  0  0  0  0  0  0  0  0  0  0
    4.1292   14.6120    2.3985 C   0  0  0  0  0  0  0  0  0  0  0  0
    4.1919   15.6470    2.1020 H   0  0  0  0  0  0  0  0  0  0  0  0
    3.2334   13.7404    1.7935 C   0  0  0  0  0  0  0  0  0  0  0  0
    4.7605   10.0451    4.4713 C   0  0  0  0  0  0  0  0  0  0  0  0
    5.7928   10.1720    4.1310 H   0  0  0  0  0  0  0  0  0  0  0  0
    4.5052    8.9858    4.4674 H   0  0  0  0  0  0  0  0  0  0  0  0
    4.6559   10.4444    5.4849 H   0  0  0  0  0  0  0  0  0  0  0  0
    2.2618   15.3995    0.3986 C   0  0  0  0  0  0  0  0  0  0  0  0
    2.0185   16.0638    1.2346 H   0  0  0  0  0  0  0  0  0  0  0  0
    1.4508   15.4265   -0.3276 H   0  0  0  0  0  0  0  0  0  0  0  0
    3.1869   15.7415   -0.0788 H   0  0  0  0  0  0  0  0  0  0  0  0
  1  2  1  0  0  0  0
  3 10  1  0  0  0  0
  3  1  1  0  0  0  0
  3 44  1  0  0  0  0
  4 19  1  0  0  0  0
  5 18  1  0  0  0  0
  8 53  1  0  0  0  0
  9 52  1  0  0  0  0
 10 11  1  0  0  0  0
 11 12  2  0  0  0  0
 11  4  1  0  0  0  0
 12 13  1  0  0  0  0
 14 15  1  0  0  0  0
 14 12  1  0  0  0  0
 16 14  2  0  0  0  0
 17 16  1  0  0  0  0
 18 16  1  0  0  0  0
 18 10  2  0  0  0  0
 19 21  1  0  0  0  0
 19 22  1  0  0  0  0
 20 19  1  0  0  0  0
 23 24  1  0  0  0  0
 23  5  1  0  0  0  0
 25 23  1  0  0  0  0
 26 23  1  0  0  0  0
 27  3  1  0  0  0  0
 28  6  1  0  0  0  0
 28 27  2  0  0  0  0
 29 28  1  0  0  0  0
 30 29  1  0  0  0  0
 31 29  2  0  0  0  0
 31 33  1  0  0  0  0
 32 31  1  0  0  0  0
 33 35  2  0  0  0  0
 34 33  1  0  0  0  0
 35 27  1  0  0  0  0
 35  7  1  0  0  0  0
 36 38  1  0  0  0  0
 36  6  1  0  0  0  0
 37 36  1  0  0  0  0
 39 36  1  0  0  0  0
 40  7  1  0  0  0  0
 40 42  1  0  0  0  0
 41 40  1  0  0  0  0
 43 40  1  0  0  0  0
 44 45  1  0  0  0  0
 45  8  1  0  0  0  0
 45 46  2  0  0  0  0
 46 47  1  0  0  0  0
 48 46  1  0  0  0  0
 48 49  1  0  0  0  0
 50 48  2  0  0  0  0
 51 50  1  0  0  0  0
 52 44  2  0  0  0  0
 52 50  1  0  0  0  0
 53 56  1  0  0  0  0
 54 53  1  0  0  0  0
 55 53  1  0  0  0  0
 57  9  1  0  0  0  0
 57 58  1  0  0  0  0
 59 57  1  0  0  0  0
 60 57  1  0  0  0  0
M  END
$$$$
