CSD_code = XIKLUY | q = 0 | S = 0 | Stoichiometry = C5H12AuClN2 | MND = 2
 OpenBabel04212202123D

 21 20  0  0  0  0  0  0  0  0999 V2000
    0.5505    6.7970    4.1885 Au  0  0  0  0  0  0  0  0  0  0  0  0
    2.6614    7.5981    4.2112 Cl  0  0  0  0  0  0  0  0  0  0  0  0
   -2.2653    6.4935    5.0754 N   0  0  0  0  0  0  0  0  0  0  0  0
   -1.7360    5.1474    3.2578 N   0  0  0  0  0  0  0  0  0  0  0  0
   -1.3907    6.0557    4.1699 C   0  0  0  0  0  3  0  0  0  0  0  0
   -1.9630    7.6524    5.8865 C   0  0  0  0  0  0  0  0  0  0  0  0
   -3.5147    5.8806    5.4941 C   0  0  0  0  0  0  0  0  0  0  0  0
   -0.7272    4.4980    2.4500 C   0  0  0  0  0  0  0  0  0  0  0  0
   -3.0696    4.7584    2.8312 C   0  0  0  0  0  0  0  0  0  0  0  0
   -1.8319    7.3660    6.9331 H   0  0  0  0  0  0  0  0  0  0  0  0
   -2.7859    8.3670    5.8180 H   0  0  0  0  0  0  0  0  0  0  0  0
   -1.0496    8.1278    5.5370 H   0  0  0  0  0  0  0  0  0  0  0  0
   -3.5397    4.8264    5.2400 H   0  0  0  0  0  0  0  0  0  0  0  0
   -4.3866    6.3895    5.0743 H   0  0  0  0  0  0  0  0  0  0  0  0
   -3.5772    5.9594    6.5813 H   0  0  0  0  0  0  0  0  0  0  0  0
    0.2660    4.7741    2.7966 H   0  0  0  0  0  0  0  0  0  0  0  0
   -0.8278    4.7898    1.4016 H   0  0  0  0  0  0  0  0  0  0  0  0
   -0.8429    3.4147    2.5256 H   0  0  0  0  0  0  0  0  0  0  0  0
   -3.3710    3.7923    3.2451 H   0  0  0  0  0  0  0  0  0  0  0  0
   -3.0582    4.6633    1.7436 H   0  0  0  0  0  0  0  0  0  0  0  0
   -3.8011    5.5177    3.0857 H   0  0  0  0  0  0  0  0  0  0  0  0
  1  2  1  0  0  0  0
  3  7  1  0  0  0  0
  3  6  1  0  0  0  0
  4  5  1  0  0  0  0
  5  1  1  0  0  0  0
  5  3  1  0  0  0  0
  6 10  1  0  0  0  0
  7 15  1  0  0  0  0
  8 18  1  0  0  0  0
  8 16  1  0  0  0  0
  8  4  1  0  0  0  0
  9 21  1  0  0  0  0
  9 19  1  0  0  0  0
  9  4  1  0  0  0  0
 11  6  1  0  0  0  0
 12  6  1  0  0  0  0
 13  7  1  0  0  0  0
 14  7  1  0  0  0  0
 17  8  1  0  0  0  0
 20  9  1  0  0  0  0
M  END
$$$$
