CSD_code = XIKWIA | q = 0 | S = 0 | Stoichiometry = C22H19AuClOP | MND = 2
 OpenBabel04212202123D

 45 49  0  0  1  0  0  0  0  0999 V2000
    6.1260    5.7790    3.8637 Au  0  0  0  0  0  0  0  0  0  0  0  0
    2.7915    6.1817    8.0970 C   0  0  0  0  0  0  0  0  0  0  0  0
    3.5221    5.3885    8.1386 H   0  0  0  0  0  0  0  0  0  0  0  0
    2.1371    6.6197    9.2447 C   0  0  0  0  0  0  0  0  0  0  0  0
    2.3591    6.1506   10.1913 H   0  0  0  0  0  0  0  0  0  0  0  0
    1.2072    7.6444    9.1937 C   0  0  0  0  0  0  0  0  0  0  0  0
    0.7155    7.9606   10.1015 H   0  0  0  0  0  0  0  0  0  0  0  0
    0.8933    8.2758    7.9934 C   0  0  0  0  0  0  0  0  0  0  0  0
    0.1747    9.0806    7.9592 H   0  0  0  0  0  0  0  0  0  0  0  0
    1.5252    7.8281    6.8585 C   0  0  0  0  0  0  0  0  0  0  0  0
    2.4616    6.7925    6.9113 C   0  0  0  0  0  0  0  0  0  0  0  0
    2.9359    6.6554    5.4881 C   0  0  2  0  0  0  0  0  0  0  0  0
    3.3333    5.6909    5.1766 H   0  0  0  0  0  0  0  0  0  0  0  0
    3.8680    7.8813    5.2437 C   0  0  2  0  0  0  0  0  0  0  0  0
    4.6041    7.9778    6.0492 H   0  0  0  0  0  0  0  0  0  0  0  0
    2.8420    9.0278    5.1992 C   0  0  0  0  0  0  0  0  0  0  0  0
    2.9955    9.7671    5.9836 H   0  0  0  0  0  0  0  0  0  0  0  0
    2.8337    9.5258    4.2299 H   0  0  0  0  0  0  0  0  0  0  0  0
    1.5189    8.2416    5.4068 C   0  0  1  0  0  0  0  0  0  0  0  0
    0.6225    8.7119    5.0130 H   0  0  0  0  0  0  0  0  0  0  0  0
    5.6661    9.1340    3.3302 C   0  0  0  0  0  0  0  0  0  0  0  0
    6.2344    9.2423    2.0606 C   0  0  0  0  0  0  0  0  0  0  0  0
    6.0789    8.4454    1.3438 H   0  0  0  0  0  0  0  0  0  0  0  0
    6.9819   10.3539    1.7262 C   0  0  0  0  0  0  0  0  0  0  0  0
    7.4148   10.4364    0.7405 H   0  0  0  0  0  0  0  0  0  0  0  0
    7.1813   11.3589    2.6609 C   0  0  0  0  0  0  0  0  0  0  0  0
    7.7672   12.2278    2.4016 H   0  0  0  0  0  0  0  0  0  0  0  0
    6.6382   11.2446    3.9294 C   0  0  0  0  0  0  0  0  0  0  0  0
    6.8035   12.0227    4.6600 H   0  0  0  0  0  0  0  0  0  0  0  0
    5.8864   10.1334    4.2713 C   0  0  0  0  0  0  0  0  0  0  0  0
    5.4743   10.0483    5.2660 H   0  0  0  0  0  0  0  0  0  0  0  0
    3.5404    7.4790    2.3915 C   0  0  0  0  0  0  0  0  0  0  0  0
    3.0803    6.2105    2.0514 C   0  0  0  0  0  0  0  0  0  0  0  0
    3.5102    5.3424    2.5346 H   0  0  0  0  0  0  0  0  0  0  0  0
    2.0879    6.0661    1.1011 C   0  0  0  0  0  0  0  0  0  0  0  0
    1.7285    5.0813    0.8436 H   0  0  0  0  0  0  0  0  0  0  0  0
    1.5602    7.1850    0.4774 C   0  0  0  0  0  0  0  0  0  0  0  0
    0.7847    7.0733   -0.2656 H   0  0  0  0  0  0  0  0  0  0  0  0
    2.0334    8.4475    0.7960 C   0  0  0  0  0  0  0  0  0  0  0  0
    1.6303    9.3181    0.2995 H   0  0  0  0  0  0  0  0  0  0  0  0
    3.0235    8.6004    1.7490 C   0  0  0  0  0  0  0  0  0  0  0  0
    3.4042    9.5869    1.9797 H   0  0  0  0  0  0  0  0  0  0  0  0
    7.3974    3.9229    4.0922 Cl  0  0  0  0  0  0  0  0  0  0  0  0
    1.7865    7.0149    4.7424 O   0  0  0  0  0  0  0  0  0  0  0  0
    4.8045    7.5820    3.6836 P   0  0  0  0  0  4  0  0  0  0  0  0
  1 43  1  0  0  0  0
  2  3  1  0  0  0  0
  2  4  1  0  0  0  0
  4  5  1  0  0  0  0
  6  4  2  0  0  0  0
  6  7  1  0  0  0  0
  8  6  1  0  0  0  0
  9  8  1  0  0  0  0
 10 11  1  0  0  0  0
 10  8  2  0  0  0  0
 11  2  2  0  0  0  0
 12 13  1  6  0  0  0
 12 11  1  0  0  0  0
 14 12  1  0  0  0  0
 14 15  1  1  0  0  0
 16 14  1  0  0  0  0
 16 19  1  0  0  0  0
 16 17  1  0  0  0  0
 18 16  1  0  0  0  0
 19 20  1  6  0  0  0
 19 10  1  0  0  0  0
 21 45  1  0  0  0  0
 21 30  1  0  0  0  0
 22 21  2  0  0  0  0
 23 22  1  0  0  0  0
 24 22  1  0  0  0  0
 24 26  2  0  0  0  0
 25 24  1  0  0  0  0
 26 28  1  0  0  0  0
 27 26  1  0  0  0  0
 28 30  2  0  0  0  0
 28 29  1  0  0  0  0
 30 31  1  0  0  0  0
 32 45  1  0  0  0  0
 33 32  1  0  0  0  0
 33 34  1  0  0  0  0
 35 33  2  0  0  0  0
 36 35  1  0  0  0  0
 37 39  2  0  0  0  0
 37 35  1  0  0  0  0
 38 37  1  0  0  0  0
 39 41  1  0  0  0  0
 40 39  1  0  0  0  0
 41 42  1  0  0  0  0
 41 32  2  0  0  0  0
 44 19  1  0  0  0  0
 44 12  1  0  0  0  0
 45  1  1  0  0  0  0
 45 14  1  0  0  0  0
M  END
$$$$
