CSD_code = XIKYOH | q = 0 | S = 0 | Stoichiometry = C20H22CdCl2N6 | MND = 6
 OpenBabel04212202123D

 51 56  0  0  1  0  0  0  0  0999 V2000
    3.0558    1.9717    3.5936 Cd  0  0  0  0  0  0  0  0  0  0  0  0
    2.0379    0.0733    2.5202 Cl  0  0  0  0  0  0  0  0  0  0  0  0
    4.1074    1.3263    5.6603 Cl  0  0  0  0  0  0  0  0  0  0  0  0
    5.0763    1.4062    2.3744 N   0  0  0  0  0  0  0  0  0  0  0  0
    2.9979    2.9224    1.4266 N   0  0  0  0  0  0  0  0  0  0  0  0
    2.8811    1.8535   -0.4852 N   0  0  0  0  0  0  0  0  0  0  0  0
    3.0415    1.1570   -1.1940 H   0  0  0  0  0  0  0  0  0  0  0  0
    1.0403    2.3352    4.8955 N   0  0  0  0  0  0  0  0  0  0  0  0
    3.0731    4.1401    4.5410 N   0  0  0  0  0  0  0  0  0  0  0  0
    3.2016    4.6545    6.6694 N   0  0  0  0  0  0  0  0  0  0  0  0
    3.0531    4.6198    7.6644 H   0  0  0  0  0  0  0  0  0  0  0  0
    6.0858    0.7089    2.8634 C   0  0  0  0  0  3  0  0  0  0  0  0
    6.3065    0.8781    3.9103 H   0  0  0  0  0  0  0  0  0  0  0  0
    6.8132   -0.1979    2.1047 C   0  0  0  0  0  0  0  0  0  0  0  0
    7.6219   -0.7573    2.5473 H   0  0  0  0  0  0  0  0  0  0  0  0
    6.4654   -0.3724    0.7741 C   0  0  0  0  0  0  0  0  0  0  0  0
    7.0051   -1.0705    0.1504 H   0  0  0  0  0  0  0  0  0  0  0  0
    5.4097    0.3541    0.2547 C   0  0  0  0  0  0  0  0  0  0  0  0
    5.1198    0.2357   -0.7783 H   0  0  0  0  0  0  0  0  0  0  0  0
    4.7239    1.2341    1.0945 C   0  0  0  0  0  0  0  0  0  0  0  0
    3.5705    1.9994    0.6736 C   0  0  2  0  0  3  0  0  0  0  0  0
    1.8083    2.7007   -0.4433 C   0  0  0  0  0  0  0  0  0  0  0  0
    1.9033    3.3638    0.7607 C   0  0  0  0  0  0  0  0  0  0  0  0
    0.0526    1.4673    5.0202 C   0  0  0  0  0  3  0  0  0  0  0  0
   -0.1646    0.8771    4.1382 H   0  0  0  0  0  0  0  0  0  0  0  0
   -0.6570    1.2973    6.2011 C   0  0  0  0  0  0  0  0  0  0  0  0
   -1.4477    0.5669    6.2643 H   0  0  0  0  0  0  0  0  0  0  0  0
   -0.3148    2.0789    7.2938 C   0  0  0  0  0  0  0  0  0  0  0  0
   -0.8412    1.9756    8.2318 H   0  0  0  0  0  0  0  0  0  0  0  0
    0.7181    2.9901    7.1711 C   0  0  0  0  0  0  0  0  0  0  0  0
    1.0031    3.6099    8.0076 H   0  0  0  0  0  0  0  0  0  0  0  0
    1.3876    3.0841    5.9493 C   0  0  0  0  0  0  0  0  0  0  0  0
    2.5181    3.9591    5.7267 C   0  0  2  0  0  3  0  0  0  0  0  0
    4.2528    5.2743    6.0520 C   0  0  0  0  0  0  0  0  0  0  0  0
    4.1507    4.9425    4.7187 C   0  0  0  0  0  0  0  0  0  0  0  0
    0.8094    2.7703   -1.5389 C   0  0  0  0  0  0  0  0  0  0  0  0
    0.2498    1.8368   -1.6015 H   0  0  0  0  0  0  0  0  0  0  0  0
    1.2969    2.9412   -2.4987 H   0  0  0  0  0  0  0  0  0  0  0  0
    0.1119    3.5807   -1.3509 H   0  0  0  0  0  0  0  0  0  0  0  0
    1.0135    4.4034    1.3442 C   0  0  0  0  0  0  0  0  0  0  0  0
    1.1233    5.3508    0.8162 H   0  0  0  0  0  0  0  0  0  0  0  0
    1.2855    4.5424    2.3884 H   0  0  0  0  0  0  0  0  0  0  0  0
   -0.0270    4.0916    1.2824 H   0  0  0  0  0  0  0  0  0  0  0  0
    5.2402    6.0934    6.7984 C   0  0  0  0  0  0  0  0  0  0  0  0
    5.8143    5.4665    7.4810 H   0  0  0  0  0  0  0  0  0  0  0  0
    4.7411    6.8666    7.3827 H   0  0  0  0  0  0  0  0  0  0  0  0
    5.9260    6.5677    6.1031 H   0  0  0  0  0  0  0  0  0  0  0  0
    5.0183    5.3321    3.5747 C   0  0  0  0  0  0  0  0  0  0  0  0
    4.7457    4.7250    2.7139 H   0  0  0  0  0  0  0  0  0  0  0  0
    6.0654    5.1626    3.8167 H   0  0  0  0  0  0  0  0  0  0  0  0
    4.8859    6.3855    3.3269 H   0  0  0  0  0  0  0  0  0  0  0  0
  1  9  1  0  0  0  0
  1  8  1  0  0  0  0
  1  3  1  0  0  0  0
  2  1  1  0  0  0  0
  4 12  1  0  0  0  0
  4  1  1  0  0  0  0
  5  1  1  0  0  0  0
  6 22  1  0  0  0  0
  6 21  1  0  0  0  0
  7  6  1  0  0  0  0
  8 24  1  0  0  0  0
  8 32  1  0  0  0  0
  9 35  1  0  0  0  0
  9 33  1  0  0  0  0
 10 11  1  0  0  0  0
 12 13  1  0  0  0  0
 14 15  1  0  0  0  0
 14 12  1  0  0  0  0
 16 14  2  0  0  0  0
 17 16  1  0  0  0  0
 18 16  1  0  0  0  0
 18 20  2  0  0  0  0
 19 18  1  0  0  0  0
 20  4  1  0  0  0  0
 21 20  1  1  0  0  0
 21  5  1  0  0  0  0
 22 23  2  0  0  0  0
 23 40  1  0  0  0  0
 23  5  1  0  0  0  0
 24 26  1  0  0  0  0
 25 24  1  0  0  0  0
 26 27  1  0  0  0  0
 26 28  2  0  0  0  0
 28 29  1  0  0  0  0
 30 28  1  0  0  0  0
 30 31  1  0  0  0  0
 32 30  2  0  0  0  0
 33 32  1  1  0  0  0
 33 10  1  0  0  0  0
 34 10  1  0  0  0  0
 34 44  1  0  0  0  0
 35 34  2  0  0  0  0
 36 39  1  0  0  0  0
 36 22  1  0  0  0  0
 37 36  1  0  0  0  0
 38 36  1  0  0  0  0
 40 42  1  0  0  0  0
 41 40  1  0  0  0  0
 43 40  1  0  0  0  0
 44 46  1  0  0  0  0
 44 45  1  0  0  0  0
 47 44  1  0  0  0  0
 48 50  1  0  0  0  0
 48 35  1  0  0  0  0
 49 48  1  0  0  0  0
 51 48  1  0  0  0  0
M  END
$$$$
