CSD_code = XILDIG | q = 0 | S = 0 | Stoichiometry = C26H30Cl2N2Zr | MND = 11
 OpenBabel04212202123D

 61 64  0  0  1  0  0  0  0  0999 V2000
    8.2142   11.0392    3.1928 Zr  0  0  0  0  0  0  0  0  0  0  0  0
    9.3794   11.7422    1.2274 Cl  0  0  0  0  0  0  0  0  0  0  0  0
   10.3816   10.1250    3.6663 Cl  0  0  0  0  0  0  0  0  0  0  0  0
    7.4835    9.0927    3.6635 N   0  0  0  0  0  0  0  0  0  0  0  0
    6.5293   10.8102    1.8336 N   0  0  0  0  0  0  0  0  0  0  0  0
    8.7637    7.1572    2.8253 C   0  0  0  0  0  0  0  0  0  0  0  0
    9.8022    7.4077    3.0514 H   0  0  0  0  0  0  0  0  0  0  0  0
    8.7444    6.5265    1.9410 H   0  0  0  0  0  0  0  0  0  0  0  0
    8.3586    6.6162    3.6777 H   0  0  0  0  0  0  0  0  0  0  0  0
    8.0229    8.4523    2.6103 C   0  0  0  0  0  0  0  0  0  0  0  0
    7.8805    8.9375    1.3091 C   0  0  0  0  0  0  0  0  0  0  0  0
    8.3303    8.3671    0.5068 H   0  0  0  0  0  0  0  0  0  0  0  0
    6.9337    9.9316    0.9417 C   0  0  1  0  0  3  0  0  0  0  0  0
    6.3578    9.8368   -0.4459 C   0  0  0  0  0  0  0  0  0  0  0  0
    5.4007   10.3495   -0.5042 H   0  0  0  0  0  0  0  0  0  0  0  0
    6.2283    8.7950   -0.7305 H   0  0  0  0  0  0  0  0  0  0  0  0
    7.0487   10.2961   -1.1510 H   0  0  0  0  0  0  0  0  0  0  0  0
    5.4261   11.6764    1.6185 C   0  0  0  0  0  0  0  0  0  0  0  0
    5.4207   12.7011    0.6581 C   0  0  0  0  0  0  0  0  0  0  0  0
    4.2910   13.5023    0.5299 C   0  0  0  0  0  0  0  0  0  0  0  0
    4.2968   14.2837   -0.2160 H   0  0  0  0  0  0  0  0  0  0  0  0
    3.1801   13.3221    1.3277 C   0  0  0  0  0  0  0  0  0  0  0  0
    2.3109   13.9501    1.2061 H   0  0  0  0  0  0  0  0  0  0  0  0
    3.2040   12.3412    2.3014 C   0  0  0  0  0  0  0  0  0  0  0  0
    2.3529   12.2047    2.9525 H   0  0  0  0  0  0  0  0  0  0  0  0
    4.3122   11.5244    2.4664 C   0  0  0  0  0  0  0  0  0  0  0  0
    6.5904   13.0060   -0.2284 C   0  0  0  0  0  0  0  0  0  0  0  0
    6.3860   12.6892   -1.2512 H   0  0  0  0  0  0  0  0  0  0  0  0
    7.5015   12.5243    0.1149 H   0  0  0  0  0  0  0  0  0  0  0  0
    6.7559   14.0821   -0.2526 H   0  0  0  0  0  0  0  0  0  0  0  0
    4.2914   10.4983    3.5623 C   0  0  0  0  0  0  0  0  0  0  0  0
    3.7249   10.8738    4.4126 H   0  0  0  0  0  0  0  0  0  0  0  0
    5.3024   10.2484    3.8895 H   0  0  0  0  0  0  0  0  0  0  0  0
    3.8006    9.5885    3.2185 H   0  0  0  0  0  0  0  0  0  0  0  0
    6.9287    8.3344    4.7233 C   0  0  0  0  0  0  0  0  0  0  0  0
    5.8487    7.4741    4.4286 C   0  0  0  0  0  0  0  0  0  0  0  0
    5.1937    6.8202    5.4596 C   0  0  0  0  0  0  0  0  0  0  0  0
    4.3643    6.1695    5.2230 H   0  0  0  0  0  0  0  0  0  0  0  0
    5.5819    6.9863    6.7763 C   0  0  0  0  0  0  0  0  0  0  0  0
    5.0565    6.4760    7.5689 H   0  0  0  0  0  0  0  0  0  0  0  0
    6.6623    7.7962    7.0591 C   0  0  0  0  0  0  0  0  0  0  0  0
    6.9995    7.9100    8.0793 H   0  0  0  0  0  0  0  0  0  0  0  0
    7.3511    8.4641    6.0534 C   0  0  0  0  0  0  0  0  0  0  0  0
    5.3895    7.2293    3.0183 C   0  0  0  0  0  0  0  0  0  0  0  0
    5.9878    6.4438    2.5558 H   0  0  0  0  0  0  0  0  0  0  0  0
    5.4781    8.1226    2.4049 H   0  0  0  0  0  0  0  0  0  0  0  0
    4.3527    6.8990    3.0178 H   0  0  0  0  0  0  0  0  0  0  0  0
    8.5677    9.2518    6.4380 C   0  0  0  0  0  0  0  0  0  0  0  0
    8.2996   10.0902    7.0809 H   0  0  0  0  0  0  0  0  0  0  0  0
    9.1033    9.6095    5.5595 H   0  0  0  0  0  0  0  0  0  0  0  0
    9.2404    8.6115    7.0088 H   0  0  0  0  0  0  0  0  0  0  0  0
    6.7729   12.8604    4.1500 C   0  0  0  0  0  0  0  0  0  0  0  0
    5.7147   13.0116    3.9919 H   0  0  0  0  0  0  0  0  0  0  0  0
    7.8067   13.5017    3.4359 C   0  0  0  0  0  0  0  0  0  0  0  0
    7.6768   14.1790    2.6008 H   0  0  0  0  0  0  0  0  0  0  0  0
    9.0269   13.2177    4.0863 C   0  0  0  0  0  0  0  0  0  0  0  0
    9.9966   13.6266    3.8262 H   0  0  0  0  0  0  0  0  0  0  0  0
    8.7504   12.3969    5.1998 C   0  0  0  0  0  0  0  0  0  0  0  0
    9.4727   12.1055    5.9528 H   0  0  0  0  0  0  0  0  0  0  0  0
    7.3540   12.1584    5.2323 C   0  0  2  0  0  0  0  0  0  0  0  0
    6.8024   11.6791    6.0320 H   0  0  0  0  0  0  0  0  0  0  0  0
  1  4  1  0  0  0  0
  1  3  1  0  0  0  0
  1 60  1  0  0  0  0
  2  1  1  0  0  0  0
  4 35  1  0  0  0  0
  5  1  1  0  0  0  0
  6  7  1  0  0  0  0
  6  9  1  0  0  0  0
  8  6  1  0  0  0  0
 10  6  1  0  0  0  0
 10  4  1  0  0  0  0
 11 10  2  0  0  0  0
 12 11  1  0  0  0  0
 13 14  1  1  0  0  0
 13 11  1  0  0  0  0
 13  5  1  0  0  0  0
 15 14  1  0  0  0  0
 16 14  1  0  0  0  0
 17 14  1  0  0  0  0
 18  5  1  0  0  0  0
 18 26  1  0  0  0  0
 19 18  2  0  0  0  0
 20 19  1  0  0  0  0
 20 22  2  0  0  0  0
 21 20  1  0  0  0  0
 22 24  1  0  0  0  0
 23 22  1  0  0  0  0
 24 26  2  0  0  0  0
 24 25  1  0  0  0  0
 26 31  1  0  0  0  0
 27 29  1  0  0  0  0
 27 19  1  0  0  0  0
 28 27  1  0  0  0  0
 30 27  1  0  0  0  0
 31 33  1  0  0  0  0
 31 32  1  0  0  0  0
 34 31  1  0  0  0  0
 35 43  1  0  0  0  0
 36 35  2  0  0  0  0
 36 37  1  0  0  0  0
 37 39  2  0  0  0  0
 38 37  1  0  0  0  0
 39 41  1  0  0  0  0
 39 40  1  0  0  0  0
 41 42  1  0  0  0  0
 43 48  1  0  0  0  0
 43 41  2  0  0  0  0
 44 36  1  0  0  0  0
 45 44  1  0  0  0  0
 46 44  1  0  0  0  0
 47 44  1  0  0  0  0
 48 51  1  0  0  0  0
 48 49  1  0  0  0  0
 50 48  1  0  0  0  0
 52 60  1  0  0  0  0
 53 52  1  0  0  0  0
 54 56  1  0  0  0  0
 54 52  2  0  0  0  0
 55 54  1  0  0  0  0
 56 58  2  0  0  0  0
 57 56  1  0  0  0  0
 58 60  1  0  0  0  0
 58 59  1  0  0  0  0
 60 61  1  1  0  0  0
M  END
$$$$
