CSD_code = XILFEE | q = 0 | S = 0 | Stoichiometry = C18H14Cl2PdSe2 | MND = 4
 OpenBabel04212202123D

 37 38  0  0  0  0  0  0  0  0999 V2000
    6.6138    3.5371    0.2182 Pd  0  0  0  0  0  0  0  0  0  0  0  0
    7.4918    3.6765   -1.8706 Cl  0  0  0  0  0  0  0  0  0  0  0  0
    4.7002    2.5870   -0.5366 Cl  0  0  0  0  0  0  0  0  0  0  0  0
    8.5997    4.5899    0.8946 Se  0  0  0  0  0  0  0  0  0  0  0  0
    5.7298    3.4421    2.3993 Se  0  0  0  0  0  0  0  0  0  0  0  0
    9.5140    2.9387    1.3461 C   0  0  0  0  0  0  0  0  0  0  0  0
   10.4501    2.9102    2.3702 C   0  0  0  0  0  0  0  0  0  0  0  0
   10.6553    3.8027    2.9439 H   0  0  0  0  0  0  0  0  0  0  0  0
   11.1106    1.7284    2.6547 C   0  0  0  0  0  0  0  0  0  0  0  0
   11.8349    1.7024    3.4551 H   0  0  0  0  0  0  0  0  0  0  0  0
   10.8542    0.5901    1.9096 C   0  0  0  0  0  0  0  0  0  0  0  0
   11.3792   -0.3271    2.1286 H   0  0  0  0  0  0  0  0  0  0  0  0
    9.9265    0.6280    0.8821 C   0  0  0  0  0  0  0  0  0  0  0  0
    9.7270   -0.2572    0.2982 H   0  0  0  0  0  0  0  0  0  0  0  0
    9.2461    1.7990    0.5966 C   0  0  0  0  0  0  0  0  0  0  0  0
    8.5190    1.8279   -0.2198 H   0  0  0  0  0  0  0  0  0  0  0  0
    8.1332    5.0995    2.7277 C   0  0  0  0  0  0  0  0  0  0  0  0
    8.9571    5.9824    3.4138 C   0  0  0  0  0  0  0  0  0  0  0  0
    9.8484    6.3552    2.9280 H   0  0  0  0  0  0  0  0  0  0  0  0
    8.6315    6.3918    4.6962 C   0  0  0  0  0  0  0  0  0  0  0  0
    9.2772    7.0804    5.2194 H   0  0  0  0  0  0  0  0  0  0  0  0
    7.4728    5.9293    5.2976 C   0  0  0  0  0  0  0  0  0  0  0  0
    7.2100    6.2543    6.2927 H   0  0  0  0  0  0  0  0  0  0  0  0
    6.6399    5.0575    4.6167 C   0  0  0  0  0  0  0  0  0  0  0  0
    5.7268    4.6995    5.0716 H   0  0  0  0  0  0  0  0  0  0  0  0
    6.9651    4.6343    3.3339 C   0  0  0  0  0  0  0  0  0  0  0  0
    6.6674    1.7748    2.7311 C   0  0  0  0  0  0  0  0  0  0  0  0
    7.5065    1.6091    3.8236 C   0  0  0  0  0  0  0  0  0  0  0  0
    7.6747    2.4228    4.5150 H   0  0  0  0  0  0  0  0  0  0  0  0
    8.1329    0.3902    4.0176 C   0  0  0  0  0  0  0  0  0  0  0  0
    8.7928    0.2624    4.8626 H   0  0  0  0  0  0  0  0  0  0  0  0
    7.9093   -0.6588    3.1428 C   0  0  0  0  0  0  0  0  0  0  0  0
    8.3952   -1.6085    3.3059 H   0  0  0  0  0  0  0  0  0  0  0  0
    7.0605   -0.4894    2.0607 C   0  0  0  0  0  0  0  0  0  0  0  0
    6.8817   -1.3055    1.3775 H   0  0  0  0  0  0  0  0  0  0  0  0
    6.4392    0.7278    1.8436 C   0  0  0  0  0  0  0  0  0  0  0  0
    5.7716    0.8649    0.9959 H   0  0  0  0  0  0  0  0  0  0  0  0
  2  1  1  0  0  0  0
  3  1  1  0  0  0  0
  4  6  1  0  0  0  0
  4 17  1  0  0  0  0
  5 27  1  0  0  0  0
  5 26  1  0  0  0  0
  6  7  1  0  0  0  0
  7  9  2  0  0  0  0
  7  8  1  0  0  0  0
  9 10  1  0  0  0  0
 11 12  1  0  0  0  0
 11  9  1  0  0  0  0
 13 11  2  0  0  0  0
 14 13  1  0  0  0  0
 15 13  1  0  0  0  0
 15  6  2  0  0  0  0
 16 15  1  0  0  0  0
 17 26  2  0  0  0  0
 17 18  1  0  0  0  0
 18 20  2  0  0  0  0
 19 18  1  0  0  0  0
 20 21  1  0  0  0  0
 20 22  1  0  0  0  0
 22 23  1  0  0  0  0
 24 25  1  0  0  0  0
 24 22  2  0  0  0  0
 26 24  1  0  0  0  0
 27 28  1  0  0  0  0
 28 30  2  0  0  0  0
 28 29  1  0  0  0  0
 30 31  1  0  0  0  0
 32 33  1  0  0  0  0
 32 30  1  0  0  0  0
 34 32  2  0  0  0  0
 35 34  1  0  0  0  0
 36 34  1  0  0  0  0
 36 27  2  0  0  0  0
 37 36  1  0  0  0  0
M  END
$$$$
