CSD_code = XILMEM | q = 0 | S = 0 | Stoichiometry = C5H8AuBr2NO2S2 | MND = 4
 OpenBabel04212202123D

 21 21  0  0  0  0  0  0  0  0999 V2000
    4.0020    5.0108   11.0869 Au  0  0  0  0  0  0  0  0  0  0  0  0
    4.5593    6.9693   12.3915 Br  0  0  0  0  0  0  0  0  0  0  0  0
    2.6021    6.3177    9.6096 Br  0  0  0  0  0  0  0  0  0  0  0  0
    3.6758    2.8814   10.0407 S   0  0  0  0  0  0  0  0  0  0  0  0
    5.2933    3.4165   12.3293 S   0  0  0  0  0  0  0  0  0  0  0  0
    5.0229    0.9646   11.2973 N   0  0  0  0  0  0  0  0  0  0  0  0
    4.7253    2.2488   11.2274 C   0  0  0  0  0  3  0  0  0  0  0  0
    6.0149    0.4568   12.2149 C   0  0  0  0  0  0  0  0  0  0  0  0
    6.2185    1.1980   12.9852 H   0  0  0  0  0  0  0  0  0  0  0  0
    6.9398    0.2409   11.6760 H   0  0  0  0  0  0  0  0  0  0  0  0
    5.6422   -0.4543   12.6830 H   0  0  0  0  0  0  0  0  0  0  0  0
    6.4734    0.8850    8.9912 O   0  0  0  0  0  0  0  0  0  0  0  0
    4.5800    0.0768   10.2509 C   0  0  0  0  0  0  0  0  0  0  0  0
    4.6577   -0.9565   10.5937 H   0  0  0  0  0  0  0  0  0  0  0  0
    3.5395    0.2839    9.9851 H   0  0  0  0  0  0  0  0  0  0  0  0
    5.4516    0.2578    8.9971 C   0  0  0  0  0  0  0  0  0  0  0  0
    4.9204   -0.3749    7.9660 O   0  0  0  0  0  0  0  0  0  0  0  0
    5.6228   -0.2773    6.7271 C   0  0  0  0  0  0  0  0  0  0  0  0
    5.6158    0.7549    6.3737 H   0  0  0  0  0  0  0  0  0  0  0  0
    5.0944   -0.9227    6.0312 H   0  0  0  0  0  0  0  0  0  0  0  0
    6.6564   -0.6041    6.8514 H   0  0  0  0  0  0  0  0  0  0  0  0
  1  5  1  0  0  0  0
  1  2  1  0  0  0  0
  3  1  1  0  0  0  0
  4  1  1  0  0  0  0
  4  7  1  0  0  0  0
  6  8  1  0  0  0  0
  7  6  1  0  0  0  0
  7  5  1  0  0  0  0
  8 11  1  0  0  0  0
  8  9  1  0  0  0  0
 10  8  1  0  0  0  0
 12 16  2  0  0  0  0
 13 14  1  0  0  0  0
 13  6  1  0  0  0  0
 15 13  1  0  0  0  0
 16 13  1  0  0  0  0
 17 16  1  0  0  0  0
 18 21  1  0  0  0  0
 18 17  1  0  0  0  0
 19 18  1  0  0  0  0
 20 18  1  0  0  0  0
M  END
$$$$
