CSD_code = XILPAL | q = 0 | S = 0 | Stoichiometry = C28H24AuClNOP | MND = 2
 OpenBabel04212202123D

 57 61  0  0  1  0  0  0  0  0999 V2000
    5.7335    3.1879   11.3164 Au  0  0  0  0  0  0  0  0  0  0  0  0
    3.5681    3.8532   11.1793 Cl  0  0  0  0  0  0  0  0  0  0  0  0
    5.7864    0.4300   10.8925 P   0  0  0  0  0  0  0  0  0  0  0  0
    9.5256    0.3215   12.2458 O   0  0  0  0  0  0  0  0  0  0  0  0
    8.7297    2.7942   11.7863 N   0  0  0  0  0  0  0  0  0  0  0  0
    9.4435    2.1037   12.0609 H   0  0  0  0  0  0  0  0  0  0  0  0
    7.5371    2.3012   11.4754 C   0  0  1  0  0  3  0  0  0  0  0  0
    7.3936    0.8891   11.4780 C   0  0  1  0  0  3  0  0  0  0  0  0
    8.3552   -0.0133   12.0549 C   0  0  0  0  0  0  0  0  0  0  0  0
    7.8751   -1.3612   12.5480 C   0  0  0  0  0  0  0  0  0  0  0  0
    8.4881   -1.6539   13.3986 H   0  0  0  0  0  0  0  0  0  0  0  0
    8.0049   -2.1100   11.7679 H   0  0  0  0  0  0  0  0  0  0  0  0
    6.8283   -1.3243   12.8443 H   0  0  0  0  0  0  0  0  0  0  0  0
    9.1192    4.1264   11.9102 C   0  0  0  0  0  0  0  0  0  0  0  0
   10.2556    4.3929   12.6742 C   0  0  0  0  0  0  0  0  0  0  0  0
   10.7756    3.5733   13.1499 H   0  0  0  0  0  0  0  0  0  0  0  0
   10.7059    5.6892   12.8273 C   0  0  0  0  0  0  0  0  0  0  0  0
   11.5825    5.8836   13.4270 H   0  0  0  0  0  0  0  0  0  0  0  0
   10.0368    6.7357   12.2133 C   0  0  0  0  0  0  0  0  0  0  0  0
   10.3877    7.7492   12.3341 H   0  0  0  0  0  0  0  0  0  0  0  0
    8.9216    6.4725   11.4358 C   0  0  0  0  0  0  0  0  0  0  0  0
    8.4035    7.2806   10.9417 H   0  0  0  0  0  0  0  0  0  0  0  0
    8.4638    5.1779   11.2761 C   0  0  0  0  0  0  0  0  0  0  0  0
    7.6017    4.9783   10.6581 H   0  0  0  0  0  0  0  0  0  0  0  0
    4.4078    0.4976   12.0659 C   0  0  0  0  0  0  0  0  0  0  0  0
    4.6539    0.9751   13.3496 C   0  0  0  0  0  0  0  0  0  0  0  0
    5.6558    1.2881   13.6167 H   0  0  0  0  0  0  0  0  0  0  0  0
    3.6215    1.0606   14.2627 C   0  0  0  0  0  0  0  0  0  0  0  0
    3.8117    1.4407   15.2551 H   0  0  0  0  0  0  0  0  0  0  0  0
    2.3409    0.6758   13.8965 C   0  0  0  0  0  0  0  0  0  0  0  0
    1.5287    0.7689   14.6015 H   0  0  0  0  0  0  0  0  0  0  0  0
    2.1016    0.1681   12.6310 C   0  0  0  0  0  0  0  0  0  0  0  0
    1.1063   -0.1435   12.3509 H   0  0  0  0  0  0  0  0  0  0  0  0
    3.1338    0.0612   11.7158 C   0  0  0  0  0  0  0  0  0  0  0  0
    2.9524   -0.3669   10.7394 H   0  0  0  0  0  0  0  0  0  0  0  0
    5.4327    1.2141    9.2873 C   0  0  0  0  0  0  0  0  0  0  0  0
    4.1365    1.4860    8.8648 C   0  0  0  0  0  0  0  0  0  0  0  0
    3.2990    1.3276    9.5249 H   0  0  0  0  0  0  0  0  0  0  0  0
    3.9259    2.0390    7.6148 C   0  0  0  0  0  0  0  0  0  0  0  0
    2.9190    2.2664    7.2994 H   0  0  0  0  0  0  0  0  0  0  0  0
    4.9958    2.3151    6.7803 C   0  0  0  0  0  0  0  0  0  0  0  0
    4.8247    2.7498    5.8070 H   0  0  0  0  0  0  0  0  0  0  0  0
    6.2891    2.0547    7.2048 C   0  0  0  0  0  0  0  0  0  0  0  0
    7.1284    2.2872    6.5660 H   0  0  0  0  0  0  0  0  0  0  0  0
    6.5109    1.5065    8.4531 C   0  0  0  0  0  0  0  0  0  0  0  0
    7.5219    1.3426    8.8030 H   0  0  0  0  0  0  0  0  0  0  0  0
    5.8096   -1.3256   10.3676 C   0  0  0  0  0  0  0  0  0  0  0  0
    5.0783   -2.3225   11.0060 C   0  0  0  0  0  0  0  0  0  0  0  0
    4.4627   -2.0840   11.8621 H   0  0  0  0  0  0  0  0  0  0  0  0
    5.1476   -3.6294   10.5572 C   0  0  0  0  0  0  0  0  0  0  0  0
    4.5750   -4.3962   11.0577 H   0  0  0  0  0  0  0  0  0  0  0  0
    5.9501   -3.9557    9.4769 C   0  0  0  0  0  0  0  0  0  0  0  0
    6.0026   -4.9771    9.1311 H   0  0  0  0  0  0  0  0  0  0  0  0
    6.6900   -2.9696    8.8445 C   0  0  0  0  0  0  0  0  0  0  0  0
    7.3236   -3.2201    8.0067 H   0  0  0  0  0  0  0  0  0  0  0  0
    6.6191   -1.6614    9.2854 C   0  0  0  0  0  0  0  0  0  0  0  0
    7.1991   -0.8951    8.7920 H   0  0  0  0  0  0  0  0  0  0  0  0
  1  7  1  0  0  0  0
  2  1  1  0  0  0  0
  3  1  1  0  0  0  0
  3  8  1  0  0  0  0
  3 25  1  0  0  0  0
  5 14  1  0  0  0  0
  5  6  1  0  0  0  0
  7  8  1  0  0  0  0
  7  5  1  1  0  0  0
  8  9  1  1  0  0  0
  9  4  2  0  0  0  0
  9 10  1  0  0  0  0
 10 13  1  0  0  0  0
 10 11  1  0  0  0  0
 12 10  1  0  0  0  0
 14 15  1  0  0  0  0
 15 17  2  0  0  0  0
 15 16  1  0  0  0  0
 17 18  1  0  0  0  0
 19 20  1  0  0  0  0
 19 17  1  0  0  0  0
 21 19  2  0  0  0  0
 22 21  1  0  0  0  0
 23 21  1  0  0  0  0
 23 14  2  0  0  0  0
 24 23  1  0  0  0  0
 25 26  1  0  0  0  0
 26 27  1  0  0  0  0
 26 28  2  0  0  0  0
 28 29  1  0  0  0  0
 30 28  1  0  0  0  0
 30 31  1  0  0  0  0
 32 30  2  0  0  0  0
 33 32  1  0  0  0  0
 34 25  2  0  0  0  0
 34 32  1  0  0  0  0
 35 34  1  0  0  0  0
 36  3  1  0  0  0  0
 37 36  1  0  0  0  0
 37 38  1  0  0  0  0
 39 37  2  0  0  0  0
 40 39  1  0  0  0  0
 41 43  2  0  0  0  0
 41 39  1  0  0  0  0
 42 41  1  0  0  0  0
 43 45  1  0  0  0  0
 44 43  1  0  0  0  0
 45 46  1  0  0  0  0
 45 36  2  0  0  0  0
 47  3  1  0  0  0  0
 47 48  1  0  0  0  0
 48 49  1  0  0  0  0
 50 48  2  0  0  0  0
 50 51  1  0  0  0  0
 52 50  1  0  0  0  0
 53 52  1  0  0  0  0
 54 56  1  0  0  0  0
 54 52  2  0  0  0  0
 55 54  1  0  0  0  0
 56 47  2  0  0  0  0
 57 56  1  0  0  0  0
M  END
$$$$
