CSD_code = XILXUL | q = 0 | S = 0 | Stoichiometry = C19H23Br2ClN2O2W | MND = 6
 OpenBabel04212202123D

 50 53  0  0  1  0  0  0  0  0999 V2000
    2.5798   -2.4597  -11.8812 W   0  0  0  0  0  0  0  0  0  0  0  0
    1.0122   -5.6639  -10.3931 Br  0  0  0  0  0  0  0  0  0  0  0  0
    4.6531   -1.9500   -8.7068 Br  0  0  0  0  0  0  0  0  0  0  0  0
    4.3628   -3.5126  -13.1900 Cl  0  0  0  0  0  0  0  0  0  0  0  0
    1.3939   -3.4735  -12.8831 O   0  0  0  0  0  0  0  0  0  0  0  0
    3.7135   -1.0039  -11.7016 O   0  0  0  0  0  0  0  0  0  0  0  0
    2.8166   -3.4087  -10.3862 N   0  0  0  0  0  2  0  0  0  0  0  0
    2.4048   -1.4181  -13.7103 N   0  0  0  0  0  0  0  0  0  0  0  0
    0.8776   -1.2358  -11.0834 C   0  0  0  0  0  0  0  0  0  0  0  0
    0.4738   -0.4986  -11.7968 H   0  0  0  0  0  0  0  0  0  0  0  0
    1.1504   -0.6562  -10.1890 H   0  0  0  0  0  0  0  0  0  0  0  0
    0.0168   -1.8501  -10.7808 H   0  0  0  0  0  0  0  0  0  0  0  0
    2.9145   -4.0320   -9.2320 C   0  0  0  0  0  0  0  0  0  0  0  0
    3.7528   -3.5571   -8.2066 C   0  0  0  0  0  0  0  0  0  0  0  0
    3.8500   -4.1878   -6.9912 C   0  0  0  0  0  0  0  0  0  0  0  0
    4.5015   -3.7940   -6.2265 H   0  0  0  0  0  0  0  0  0  0  0  0
    3.0948   -5.3382   -6.7494 C   0  0  0  0  0  0  0  0  0  0  0  0
    2.2390   -5.8289   -7.7361 C   0  0  0  0  0  0  0  0  0  0  0  0
    1.6400   -6.7076   -7.5532 H   0  0  0  0  0  0  0  0  0  0  0  0
    2.1579   -5.1820   -8.9457 C   0  0  0  0  0  0  0  0  0  0  0  0
    3.2149   -6.0395   -5.4303 C   0  0  0  0  0  0  0  0  0  0  0  0
    2.3860   -6.7260   -5.2805 H   0  0  0  0  0  0  0  0  0  0  0  0
    3.2304   -5.3205   -4.6138 H   0  0  0  0  0  0  0  0  0  0  0  0
    4.1433   -6.6099   -5.3905 H   0  0  0  0  0  0  0  0  0  0  0  0
    1.7086   -1.9907  -14.6891 C   0  0  1  0  0  3  0  0  0  0  0  0
    1.7293   -1.4544  -15.9686 C   0  0  0  0  0  0  0  0  0  0  0  0
    1.1610   -1.9033  -16.7668 H   0  0  0  0  0  0  0  0  0  0  0  0
    2.5158   -0.3326  -16.1972 C   0  0  0  0  0  0  0  0  0  0  0  0
    2.5467    0.1093  -17.1818 H   0  0  0  0  0  0  0  0  0  0  0  0
    3.2912    0.2018  -15.1761 C   0  0  0  0  0  0  0  0  0  0  0  0
    3.9403    1.0430  -15.3568 H   0  0  0  0  0  0  0  0  0  0  0  0
    3.2196   -0.3874  -13.9220 C   0  0  0  0  0  0  0  0  0  0  0  0
    1.0140   -3.2676  -14.2064 C   0  0  0  0  0  0  0  0  0  0  0  0
    1.4930   -4.4566  -15.0605 C   0  0  0  0  0  0  0  0  0  0  0  0
    1.0353   -5.3650  -14.6753 H   0  0  0  0  0  0  0  0  0  0  0  0
    2.5758   -4.5489  -14.9705 H   0  0  0  0  0  0  0  0  0  0  0  0
    1.2230   -4.3271  -16.1048 H   0  0  0  0  0  0  0  0  0  0  0  0
   -0.5148   -3.1037  -14.2846 C   0  0  0  0  0  0  0  0  0  0  0  0
   -0.8228   -2.2699  -13.6546 H   0  0  0  0  0  0  0  0  0  0  0  0
   -0.9828   -4.0104  -13.9095 H   0  0  0  0  0  0  0  0  0  0  0  0
   -0.8351   -2.9253  -15.3075 H   0  0  0  0  0  0  0  0  0  0  0  0
    4.0375   -0.0577  -12.6699 C   0  0  0  0  0  0  0  0  0  0  0  0
    5.5375   -0.1677  -13.0017 C   0  0  0  0  0  0  0  0  0  0  0  0
    6.1061    0.0120  -12.0921 H   0  0  0  0  0  0  0  0  0  0  0  0
    5.8277    0.5525  -13.7615 H   0  0  0  0  0  0  0  0  0  0  0  0
    5.7539   -1.1775  -13.3517 H   0  0  0  0  0  0  0  0  0  0  0  0
    3.6809    1.3492  -12.1560 C   0  0  0  0  0  0  0  0  0  0  0  0
    4.2552    1.5473  -11.2544 H   0  0  0  0  0  0  0  0  0  0  0  0
    2.6211    1.3860  -11.9059 H   0  0  0  0  0  0  0  0  0  0  0  0
    3.9055    2.1048  -12.9038 H   0  0  0  0  0  0  0  0  0  0  0  0
  1  6  1  0  0  0  0
  1  9  1  0  0  0  0
  1  7  1  0  0  0  0
  2 20  1  0  0  0  0
  3 14  1  0  0  0  0
  4  1  1  0  0  0  0
  5  1  1  0  0  0  0
  7 13  1  0  0  0  0
  8  1  1  0  0  0  0
  9 12  1  0  0  0  0
  9 11  1  0  0  0  0
 10  9  1  0  0  0  0
 13 20  2  0  0  0  0
 13 14  1  0  0  0  0
 14 15  2  0  0  0  0
 15 17  1  0  0  0  0
 15 16  1  0  0  0  0
 17 21  1  0  0  0  0
 18 19  1  0  0  0  0
 18 17  2  0  0  0  0
 20 18  1  0  0  0  0
 21 24  1  0  0  0  0
 21 22  1  0  0  0  0
 21 23  1  0  0  0  0
 25 26  1  6  0  0  0
 25 33  1  0  0  0  0
 25  8  1  0  0  0  0
 27 26  1  0  0  0  0
 28 26  2  0  0  0  0
 28 30  1  0  0  0  0
 29 28  1  0  0  0  0
 30 32  2  0  0  0  0
 31 30  1  0  0  0  0
 32  8  1  0  0  0  0
 32 42  1  0  0  0  0
 33  5  1  0  0  0  0
 34 36  1  0  0  0  0
 34 35  1  0  0  0  0
 34 33  1  0  0  0  0
 37 34  1  0  0  0  0
 38 33  1  0  0  0  0
 38 40  1  0  0  0  0
 38 39  1  0  0  0  0
 41 38  1  0  0  0  0
 42 47  1  0  0  0  0
 42  6  1  0  0  0  0
 43 42  1  0  0  0  0
 43 44  1  0  0  0  0
 45 43  1  0  0  0  0
 46 43  1  0  0  0  0
 47 49  1  0  0  0  0
 47 48  1  0  0  0  0
 50 47  1  0  0  0  0
M  END
$$$$
