CSD_code = XIMGEG | q = 0 | S = 0 | Stoichiometry = C18H15ClN2Pt | MND = 4
 OpenBabel04212202123D

 37 41  0  0  0  0  0  0  0  0999 V2000
    4.7241    1.8040   11.2727 Pt  0  0  1  0  0  0  0  0  0  0  0  0
    3.3253    2.9360   12.7400 Cl  0  0  0  0  0  0  0  0  0  0  0  0
    5.7140    3.3737   10.4892 N   0  0  0  0  0  0  0  0  0  0  0  0
    4.1288   -0.0835   11.6480 N   0  0  0  0  0  0  0  0  0  0  0  0
    5.8814    0.8670   10.0592 C   0  0  0  0  0  0  0  0  0  0  0  0
    6.7711    1.6107    9.2842 C   0  0  0  0  0  0  0  0  0  0  0  0
    7.6087    0.9240    8.4086 C   0  0  0  0  0  0  0  0  0  0  0  0
    8.3193    1.4445    7.7826 H   0  0  0  0  0  0  0  0  0  0  0  0
    7.5258   -0.4615    8.3420 C   0  0  0  0  0  0  0  0  0  0  0  0
    8.1783   -0.9888    7.6610 H   0  0  0  0  0  0  0  0  0  0  0  0
    6.6368   -1.1956    9.1180 C   0  0  0  0  0  0  0  0  0  0  0  0
    6.6149   -2.2721    9.0264 H   0  0  0  0  0  0  0  0  0  0  0  0
    5.7928   -0.5235    9.9987 C   0  0  0  0  0  0  0  0  0  0  0  0
    6.6516    3.0415    9.5531 C   0  0  0  0  0  0  0  0  0  0  0  0
    7.4041    4.0395    8.9414 C   0  0  0  0  0  0  0  0  0  0  0  0
    8.1420    3.7668    8.2035 H   0  0  0  0  0  0  0  0  0  0  0  0
    7.2058    5.3637    9.2796 C   0  0  0  0  0  0  0  0  0  0  0  0
    7.7890    6.1412    8.8078 H   0  0  0  0  0  0  0  0  0  0  0  0
    6.2479    5.6937   10.2362 C   0  0  0  0  0  0  0  0  0  0  0  0
    5.5309    4.6511   10.8070 C   0  0  0  0  0  3  0  0  0  0  0  0
    4.7728    4.8476   11.5565 H   0  0  0  0  0  0  0  0  0  0  0  0
    4.7821   -1.0386   10.9193 C   0  0  0  0  0  0  0  0  0  0  0  0
    4.4613   -2.3803   11.0914 C   0  0  0  0  0  0  0  0  0  0  0  0
    4.9811   -3.1263   10.5112 H   0  0  0  0  0  0  0  0  0  0  0  0
    3.4853   -2.7514   11.9980 C   0  0  0  0  0  0  0  0  0  0  0  0
    3.2362   -3.7940   12.1325 H   0  0  0  0  0  0  0  0  0  0  0  0
    2.8263   -1.7736   12.7358 C   0  0  0  0  0  0  0  0  0  0  0  0
    3.1933   -0.4506   12.5147 C   0  0  0  0  0  0  0  0  0  0  0  0
    2.7109    0.3515   13.0618 H   0  0  0  0  0  0  0  0  0  0  0  0
    5.9944    7.1129   10.6298 C   0  0  0  0  0  0  0  0  0  0  0  0
    6.9257    7.6021   10.9104 H   0  0  0  0  0  0  0  0  0  0  0  0
    5.3028    7.1634   11.4658 H   0  0  0  0  0  0  0  0  0  0  0  0
    5.5681    7.6644    9.7923 H   0  0  0  0  0  0  0  0  0  0  0  0
    1.7683   -2.1035   13.7385 C   0  0  0  0  0  0  0  0  0  0  0  0
    0.8680   -1.5235   13.5447 H   0  0  0  0  0  0  0  0  0  0  0  0
    2.1119   -1.8529   14.7413 H   0  0  0  0  0  0  0  0  0  0  0  0
    1.5213   -3.1614   13.7094 H   0  0  0  0  0  0  0  0  0  0  0  0
  1  4  1  0  0  0  0
  1  2  1  6  0  0  0
  3 20  1  0  0  0  0
  3  1  1  0  0  0  0
  4 28  1  0  0  0  0
  5  1  2  0  0  0  0
  6 14  1  0  0  0  0
  6  5  1  0  0  0  0
  7  6  2  0  0  0  0
  8  7  1  0  0  0  0
  9  7  1  0  0  0  0
  9 11  2  0  0  0  0
 10  9  1  0  0  0  0
 11 13  1  0  0  0  0
 12 11  1  0  0  0  0
 13  5  1  0  0  0  0
 13 22  2  0  0  0  0
 14  3  1  0  0  0  0
 15 17  1  0  0  0  0
 15 14  2  0  0  0  0
 16 15  1  0  0  0  0
 17 19  2  0  0  0  0
 18 17  1  0  0  0  0
 19 30  1  0  0  0  0
 19 20  1  0  0  0  0
 20 21  1  0  0  0  0
 22 23  1  0  0  0  0
 22  4  1  0  0  0  0
 23 25  2  0  0  0  0
 24 23  1  0  0  0  0
 25 26  1  0  0  0  0
 25 27  1  0  0  0  0
 27 34  1  0  0  0  0
 28 27  2  0  0  0  0
 28 29  1  0  0  0  0
 30 31  1  0  0  0  0
 30 32  1  0  0  0  0
 33 30  1  0  0  0  0
 34 36  1  0  0  0  0
 35 34  1  0  0  0  0
 37 34  1  0  0  0  0
M  END
$$$$
