CSD_code = XIMHEG | q = 0 | S = 0 | Stoichiometry = C29H20Cl2N2PdS | MND = 4
 OpenBabel04212202123D

 55 61  0  0  1  0  0  0  0  0999 V2000
   -0.4614    0.4354    4.6660 Pd  0  0  0  0  0  0  0  0  0  0  0  0
   -1.3291   -1.4134    3.7795 Cl  0  0  0  0  0  0  0  0  0  0  0  0
   -2.4044    1.5227    4.5833 Cl  0  0  0  0  0  0  0  0  0  0  0  0
    2.9439    3.1239   -0.1964 S   0  0  0  0  0  0  0  0  0  0  0  0
    1.3409   -0.4648    4.6785 N   0  0  0  0  0  0  0  0  0  0  0  0
    0.4121    2.1140    5.3634 N   0  0  0  0  0  0  0  0  0  0  0  0
    2.1867    0.2291    3.9083 C   0  0  0  0  0  0  0  0  0  0  0  0
    3.4489   -0.2538    3.5914 C   0  0  0  0  0  0  0  0  0  0  0  0
    3.8257   -1.4941    4.0810 C   0  0  0  0  0  0  0  0  0  0  0  0
    2.9352   -2.2056    4.8729 C   0  0  0  0  0  0  0  0  0  0  0  0
    1.6950   -1.6558    5.1480 C   0  0  0  0  0  0  0  0  0  0  0  0
   -0.0063    2.9303    6.3493 C   0  0  0  0  0  0  0  0  0  0  0  0
    0.5035    4.1870    6.5072 C   0  0  0  0  0  0  0  0  0  0  0  0
    1.5231    4.6452    5.6431 C   0  0  0  0  0  0  0  0  0  0  0  0
    1.9893    3.7647    4.6296 C   0  0  0  0  0  0  0  0  0  0  0  0
    1.3511    2.5049    4.5201 C   0  0  0  0  0  0  0  0  0  0  0  0
    2.0877    5.9316    5.7430 C   0  0  0  0  0  0  0  0  0  0  0  0
    3.0768    6.3226    4.8833 C   0  0  0  0  0  0  0  0  0  0  0  0
    3.5597    5.4396    3.9045 C   0  0  0  0  0  0  0  0  0  0  0  0
    3.0347    4.1840    3.7804 C   0  0  0  0  0  3  0  0  0  0  0  0
    1.6685    1.5381    3.4364 C   0  0  0  0  0  0  0  0  0  0  0  0
    1.4975    1.8394    2.1304 C   0  0  1  0  0  3  0  0  0  0  0  0
    0.9568    3.1305    1.7046 C   0  0  0  0  0  0  0  0  0  0  0  0
   -0.1803    3.6611    2.3063 C   0  0  0  0  0  0  0  0  0  0  0  0
   -0.6576    4.9114    1.9541 C   0  0  0  0  0  0  0  0  0  0  0  0
    0.0192    5.6298    0.9691 C   0  0  0  0  0  0  0  0  0  0  0  0
    1.1090    5.0908    0.3152 C   0  0  0  0  0  0  0  0  0  0  0  0
    1.5683    3.8290    0.6659 C   0  0  0  0  0  0  0  0  0  0  0  0
    2.5199    1.4092   -0.0713 C   0  0  0  0  0  0  0  0  0  0  0  0
    2.8966    0.5478   -1.0929 C   0  0  0  0  0  0  0  0  0  0  0  0
    2.5454   -0.7869   -1.0290 C   0  0  0  0  0  0  0  0  0  0  0  0
    1.7948   -1.2631    0.0376 C   0  0  0  0  0  0  0  0  0  0  0  0
    1.4378   -0.4140    1.0659 C   0  0  0  0  0  0  0  0  0  0  0  0
    1.8315    0.9224    1.0418 C   0  0  0  0  0  0  0  0  0  0  0  0
   -1.8643    5.4785    2.6322 C   0  0  0  0  0  0  0  0  0  0  0  0
    4.1066    0.3254    2.9626 H   0  0  0  0  0  0  0  0  0  0  0  0
    4.7967   -1.9009    3.8435 H   0  0  0  0  0  0  0  0  0  0  0  0
    3.1937   -3.1760    5.2645 H   0  0  0  0  0  0  0  0  0  0  0  0
    0.9541   -2.1782    5.7413 H   0  0  0  0  0  0  0  0  0  0  0  0
   -0.7924    2.5385    6.9827 H   0  0  0  0  0  0  0  0  0  0  0  0
    0.1300    4.8359    7.2835 H   0  0  0  0  0  0  0  0  0  0  0  0
    1.7241    6.5992    6.5101 H   0  0  0  0  0  0  0  0  0  0  0  0
    3.5023    7.3121    4.9585 H   0  0  0  0  0  0  0  0  0  0  0  0
    4.3545    5.7599    3.2481 H   0  0  0  0  0  0  0  0  0  0  0  0
    3.4166    3.5021    3.0368 H   0  0  0  0  0  0  0  0  0  0  0  0
   -0.7190    3.0611    3.0326 H   0  0  0  0  0  0  0  0  0  0  0  0
   -0.3334    6.6120    0.6905 H   0  0  0  0  0  0  0  0  0  0  0  0
    1.6039    5.6344   -0.4750 H   0  0  0  0  0  0  0  0  0  0  0  0
    3.4477    0.9367   -1.9354 H   0  0  0  0  0  0  0  0  0  0  0  0
    2.8337   -1.4525   -1.8284 H   0  0  0  0  0  0  0  0  0  0  0  0
    1.4826   -2.2954    0.0638 H   0  0  0  0  0  0  0  0  0  0  0  0
    0.8139   -0.7654    1.8794 H   0  0  0  0  0  0  0  0  0  0  0  0
   -1.5686    6.2743    3.3166 H   0  0  0  0  0  0  0  0  0  0  0  0
   -2.3797    4.7081    3.1999 H   0  0  0  0  0  0  0  0  0  0  0  0
   -2.5516    5.9034    1.9035 H   0  0  0  0  0  0  0  0  0  0  0  0
  1  5  1  0  0  0  0
  1  6  1  0  0  0  0
  2  1  1  0  0  0  0
  3  1  1  0  0  0  0
  4 29  1  0  0  0  0
  4 28  1  0  0  0  0
  5 11  1  0  0  0  0
  6 12  1  0  0  0  0
  7  5  1  0  0  0  0
  8  7  1  0  0  0  0
  8  9  2  0  0  0  0
  9 10  1  0  0  0  0
 10 11  2  0  0  0  0
 10 38  1  0  0  0  0
 11 39  1  0  0  0  0
 12 13  2  0  0  0  0
 12 40  1  0  0  0  0
 13 41  1  0  0  0  0
 14 17  2  0  0  0  0
 14 13  1  0  0  0  0
 15 14  1  0  0  0  0
 16 15  2  0  0  0  0
 16  6  1  0  0  0  0
 17 42  1  0  0  0  0
 18 43  1  0  0  0  0
 18 17  1  0  0  0  0
 19 18  2  0  0  0  0
 20 19  1  0  0  0  0
 20 15  1  0  0  0  0
 21  7  2  0  0  0  0
 21 16  1  0  0  0  0
 22 21  1  6  0  0  0
 23 22  1  0  0  0  0
 23 24  1  0  0  0  0
 24 46  1  0  0  0  0
 25 24  2  0  0  0  0
 25 35  1  0  0  0  0
 26 25  1  0  0  0  0
 27 28  1  0  0  0  0
 27 26  2  0  0  0  0
 28 23  2  0  0  0  0
 29 34  1  0  0  0  0
 30 31  1  0  0  0  0
 30 29  2  0  0  0  0
 31 32  2  0  0  0  0
 32 51  1  0  0  0  0
 32 33  1  0  0  0  0
 33 52  1  0  0  0  0
 34 33  2  0  0  0  0
 34 22  1  0  0  0  0
 35 54  1  0  0  0  0
 35 53  1  0  0  0  0
 36  8  1  0  0  0  0
 37  9  1  0  0  0  0
 44 19  1  0  0  0  0
 45 20  1  0  0  0  0
 47 26  1  0  0  0  0
 48 27  1  0  0  0  0
 49 30  1  0  0  0  0
 50 31  1  0  0  0  0
 55 35  1  0  0  0  0
M  END
$$$$
