CSD_code = XIMROB | q = 0 | S = 0 | Stoichiometry = C13H30I2N6Ni | MND = 4
 OpenBabel04212202123D

 52 53  0  0  1  0  0  0  0  0999 V2000
   11.9160    6.6200    2.1871 I   0  0  0  0  0  0  0  0  0  0  0  0
    9.2761    8.8654    3.5857 I   0  0  0  0  0  0  0  0  0  0  0  0
    9.5317    6.5601    2.5636 Ni  0  0  0  0  0  0  0  0  0  0  0  0
    9.3366    5.0056    4.0611 N   0  0  0  0  0  0  0  0  0  0  0  0
   10.6535    4.5317    5.9382 N   0  0  0  0  0  0  0  0  0  0  0  0
   11.1275    3.5548    3.8751 N   0  0  0  0  0  0  0  0  0  0  0  0
    7.7018    6.4184    2.2479 N   0  0  1  0  0  0  0  0  0  0  0  0
    6.5349    7.4983    0.5118 N   0  0  0  0  0  0  0  0  0  0  0  0
    8.8210    6.7481    0.3234 N   0  0  0  0  0  4  0  0  0  0  0  0
   10.3646    4.4099    4.6038 C   0  0  0  0  0  3  0  0  0  0  0  0
   11.1665    3.4523    6.7425 C   0  0  0  0  0  0  0  0  0  0  0  0
   11.0571    2.5115    6.2092 H   0  0  0  0  0  0  0  0  0  0  0  0
   10.5860    3.3982    7.6690 H   0  0  0  0  0  0  0  0  0  0  0  0
   12.2185    3.5944    7.0120 H   0  0  0  0  0  0  0  0  0  0  0  0
   10.6450    5.8330    6.5661 C   0  0  0  0  0  0  0  0  0  0  0  0
   10.4856    6.6034    5.8144 H   0  0  0  0  0  0  0  0  0  0  0  0
   11.6155    6.0157    7.0359 H   0  0  0  0  0  0  0  0  0  0  0  0
    9.8681    5.9106    7.3325 H   0  0  0  0  0  0  0  0  0  0  0  0
   10.6439    3.0512    2.6139 C   0  0  0  0  0  0  0  0  0  0  0  0
    9.5561    3.0854    2.6125 H   0  0  0  0  0  0  0  0  0  0  0  0
   10.9752    2.0169    2.4970 H   0  0  0  0  0  0  0  0  0  0  0  0
   11.0251    3.6345    1.7705 H   0  0  0  0  0  0  0  0  0  0  0  0
   12.5545    3.4298    4.0693 C   0  0  0  0  0  0  0  0  0  0  0  0
   12.8971    4.1375    4.8178 H   0  0  0  0  0  0  0  0  0  0  0  0
   13.0710    3.6621    3.1356 H   0  0  0  0  0  0  0  0  0  0  0  0
   12.8197    2.4135    4.3744 H   0  0  0  0  0  0  0  0  0  0  0  0
    8.1913    5.3172    4.9040 C   0  0  0  0  0  0  0  0  0  0  0  0
    8.2047    6.3526    5.2684 H   0  0  0  0  0  0  0  0  0  0  0  0
    8.1952    4.6528    5.7782 H   0  0  0  0  0  0  0  0  0  0  0  0
    6.8946    5.0933    4.1158 C   0  0  0  0  0  0  0  0  0  0  0  0
    6.0600    5.0118    4.8143 H   0  0  0  0  0  0  0  0  0  0  0  0
    6.9718    4.1563    3.5585 H   0  0  0  0  0  0  0  0  0  0  0  0
    6.6037    6.2481    3.1531 C   0  0  0  0  0  0  0  0  0  0  0  0
    5.6817    6.0456    2.5913 H   0  0  0  0  0  0  0  0  0  0  0  0
    6.4549    7.1571    3.7495 H   0  0  0  0  0  0  0  0  0  0  0  0
    7.6202    6.8785    1.0493 C   0  0  1  0  0  3  0  0  0  0  0  0
    5.7814    8.4910    1.2498 C   0  0  0  0  0  0  0  0  0  0  0  0
    6.2914    8.7417    2.1758 H   0  0  0  0  0  0  0  0  0  0  0  0
    4.7676    8.1447    1.4688 H   0  0  0  0  0  0  0  0  0  0  0  0
    5.7155    9.4018    0.6496 H   0  0  0  0  0  0  0  0  0  0  0  0
    6.2049    7.4114   -0.8900 C   0  0  0  0  0  0  0  0  0  0  0  0
    6.4700    8.3253   -1.4328 H   0  0  0  0  0  0  0  0  0  0  0  0
    5.1256    7.2624   -0.9811 H   0  0  0  0  0  0  0  0  0  0  0  0
    6.7026    6.5601   -1.3476 H   0  0  0  0  0  0  0  0  0  0  0  0
    9.1293    5.4335   -0.2168 C   0  0  0  0  0  0  0  0  0  0  0  0
   10.2072    5.3471   -0.3637 H   0  0  0  0  0  0  0  0  0  0  0  0
    8.6387    5.2699   -1.1876 H   0  0  0  0  0  0  0  0  0  0  0  0
    8.8012    4.6590    0.4770 H   0  0  0  0  0  0  0  0  0  0  0  0
    9.2060    7.8343   -0.5594 C   0  0  0  0  0  0  0  0  0  0  0  0
    8.8554    8.7802   -0.1485 H   0  0  0  0  0  0  0  0  0  0  0  0
    8.8268    7.7123   -1.5806 H   0  0  0  0  0  0  0  0  0  0  0  0
   10.2968    7.8671   -0.6018 H   0  0  0  0  0  0  0  0  0  0  0  0
  1  3  1  0  0  0  0
  3  2  1  0  0  0  0
  3  4  1  0  0  0  0
  4 10  1  0  0  0  0
  4 27  1  0  0  0  0
  5 15  1  0  0  0  0
  5 11  1  0  0  0  0
  6 23  1  0  0  0  0
  6 10  1  0  0  0  0
  7  3  1  0  0  0  0
  7 33  1  1  0  0  0
  8 37  1  0  0  0  0
  9 36  1  0  0  0  0
  9  3  1  0  0  0  0
 10  5  1  0  0  0  0
 11 14  1  0  0  0  0
 11 13  1  0  0  0  0
 12 11  1  0  0  0  0
 15 17  1  0  0  0  0
 15 18  1  0  0  0  0
 16 15  1  0  0  0  0
 19  6  1  0  0  0  0
 20 19  1  0  0  0  0
 21 19  1  0  0  0  0
 22 19  1  0  0  0  0
 23 26  1  0  0  0  0
 23 24  1  0  0  0  0
 25 23  1  0  0  0  0
 27 28  1  0  0  0  0
 27 29  1  0  0  0  0
 30 31  1  0  0  0  0
 30 27  1  0  0  0  0
 32 30  1  0  0  0  0
 33 35  1  0  0  0  0
 33 30  1  0  0  0  0
 34 33  1  0  0  0  0
 36  8  1  1  0  0  0
 36  7  1  0  0  0  0
 37 39  1  0  0  0  0
 37 38  1  0  0  0  0
 40 37  1  0  0  0  0
 41  8  1  0  0  0  0
 42 41  1  0  0  0  0
 43 41  1  0  0  0  0
 44 41  1  0  0  0  0
 45  9  1  0  0  0  0
 45 48  1  0  0  0  0
 46 45  1  0  0  0  0
 47 45  1  0  0  0  0
 49 50  1  0  0  0  0
 49  9  1  0  0  0  0
 51 49  1  0  0  0  0
 52 49  1  0  0  0  0
M  END
$$$$
