CSD_code = XIMTOF | q = 0 | S = 0 | Stoichiometry = C19H19ClN2Pd | MND = 4
 OpenBabel04212202123D

 42 46  0  0  1  0  0  0  0  0999 V2000
    9.7025    8.1806    6.1682 Pd  0  0  2  0  0  0  0  0  0  0  0  0
    9.3929    7.0381    4.2867 Cl  0  0  0  0  0  0  0  0  0  0  0  0
   10.2135    9.8674    5.2541 C   0  0  0  0  0  0  0  0  0  0  0  0
   10.0743    9.3279    7.9627 N   0  0  2  0  0  4  0  0  0  0  0  0
    9.1985    6.4262    7.3360 N   0  0  0  0  0  0  0  0  0  0  0  0
    9.9324   10.3104    3.9879 C   0  0  0  0  0  0  0  0  0  0  0  0
    9.4223    9.6686    3.2806 H   0  0  0  0  0  0  0  0  0  0  0  0
   10.3099   11.6050    3.5583 C   0  0  0  0  0  0  0  0  0  0  0  0
   10.0357   12.0651    2.2541 C   0  0  0  0  0  0  0  0  0  0  0  0
    9.5257   11.4031    1.5690 H   0  0  0  0  0  0  0  0  0  0  0  0
   10.4086   13.3207    1.8621 C   0  0  0  0  0  0  0  0  0  0  0  0
   10.1958   13.6653    0.8602 H   0  0  0  0  0  0  0  0  0  0  0  0
   11.0722   14.1751    2.7557 C   0  0  0  0  0  0  0  0  0  0  0  0
   11.3604   15.1642    2.4295 H   0  0  0  0  0  0  0  0  0  0  0  0
   11.3520   13.7585    4.0274 C   0  0  0  0  0  0  0  0  0  0  0  0
   11.8643   14.4123    4.7201 H   0  0  0  0  0  0  0  0  0  0  0  0
   10.9813   12.4697    4.4603 C   0  0  0  0  0  0  0  0  0  0  0  0
   11.2508   12.0089    5.7663 C   0  0  0  0  0  0  0  0  0  0  0  0
   11.7569   12.6705    6.4583 H   0  0  0  0  0  0  0  0  0  0  0  0
   10.8847   10.7490    6.1510 C   0  0  0  0  0  0  0  0  0  0  0  0
   11.1691   10.2166    7.5357 C   0  0  0  0  0  0  0  0  0  0  0  0
   12.0966    9.6301    7.5033 H   0  0  0  0  0  0  0  0  0  0  0  0
   11.3048   11.0346    8.2618 H   0  0  0  0  0  0  0  0  0  0  0  0
   10.4711    8.5149    9.1159 C   0  0  0  0  0  0  0  0  0  0  0  0
    9.5933    8.3251    9.7418 H   0  0  0  0  0  0  0  0  0  0  0  0
   11.2046    9.0589    9.7271 H   0  0  0  0  0  0  0  0  0  0  0  0
   11.0641    7.1596    8.6805 C   0  0  0  0  0  0  0  0  0  0  0  0
   11.6509    7.3053    7.7577 H   0  0  0  0  0  0  0  0  0  0  0  0
   11.7221    6.7746    9.4604 H   0  0  0  0  0  0  0  0  0  0  0  0
    9.9666    6.1676    8.3967 C   0  0  1  0  0  3  0  0  0  0  0  0
    9.7427    5.0576    9.1998 C   0  0  0  0  0  0  0  0  0  0  0  0
   10.3767    4.8683   10.0527 H   0  0  0  0  0  0  0  0  0  0  0  0
    8.7051    4.1949    8.8823 C   0  0  0  0  0  0  0  0  0  0  0  0
    8.5167    3.3215    9.4886 H   0  0  0  0  0  0  0  0  0  0  0  0
    7.9213    4.4711    7.7734 C   0  0  0  0  0  0  0  0  0  0  0  0
    7.1094    3.8214    7.4891 H   0  0  0  0  0  0  0  0  0  0  0  0
    8.2049    5.6022    7.0247 C   0  0  0  0  0  0  0  0  0  0  0  0
    7.6370    5.8559    6.1360 H   0  0  0  0  0  0  0  0  0  0  0  0
    8.8814   10.1195    8.2542 C   0  0  0  0  0  0  0  0  0  0  0  0
    9.0356   10.7662    9.1298 H   0  0  0  0  0  0  0  0  0  0  0  0
    8.0335    9.4577    8.4451 H   0  0  0  0  0  0  0  0  0  0  0  0
    8.6462   10.7479    7.3932 H   0  0  0  0  0  0  0  0  0  0  0  0
  1  2  1  6  0  0  0
  1  5  1  0  0  0  0
  1  4  1  0  0  0  0
  3 20  1  0  0  0  0
  3  1  1  0  0  0  0
  4 39  1  1  0  0  0
  4 24  1  0  0  0  0
  5 30  1  0  0  0  0
  6  3  2  0  0  0  0
  7  6  1  0  0  0  0
  8  6  1  0  0  0  0
  8 17  1  0  0  0  0
  9  8  2  0  0  0  0
 10  9  1  0  0  0  0
 11  9  1  0  0  0  0
 11 13  2  0  0  0  0
 12 11  1  0  0  0  0
 13 15  1  0  0  0  0
 14 13  1  0  0  0  0
 15 17  2  0  0  0  0
 15 16  1  0  0  0  0
 17 18  1  0  0  0  0
 18 20  2  0  0  0  0
 18 19  1  0  0  0  0
 20 21  1  0  0  0  0
 21  4  1  0  0  0  0
 21 23  1  0  0  0  0
 22 21  1  0  0  0  0
 24 26  1  0  0  0  0
 24 25  1  0  0  0  0
 27 24  1  0  0  0  0
 27 29  1  0  0  0  0
 28 27  1  0  0  0  0
 30 27  1  0  0  0  0
 30 31  1  1  0  0  0
 31 32  1  0  0  0  0
 33 31  2  0  0  0  0
 33 34  1  0  0  0  0
 35 33  1  0  0  0  0
 36 35  1  0  0  0  0
 37  5  1  0  0  0  0
 37 35  2  0  0  0  0
 38 37  1  0  0  0  0
 39 41  1  0  0  0  0
 39 40  1  0  0  0  0
 42 39  1  0  0  0  0
M  END
$$$$
