CSD_code = XIMTUL | q = 0 | S = 0 | Stoichiometry = C19H19BrN2Pd | MND = 4
 OpenBabel04212202123D

 42 46  0  0  1  0  0  0  0  0999 V2000
    2.5433   13.4201    0.9497 Pd  0  0  2  0  0  0  0  0  0  0  0  0
    2.3504   15.7478    0.7039 Br  0  0  0  0  0  0  0  0  0  0  0  0
    1.8720   13.1863   -3.3355 C   0  0  0  0  0  0  0  0  0  0  0  0
    2.5544   11.2238    1.1669 N   0  0  1  0  0  4  0  0  0  0  0  0
    3.1643   13.6304    3.0340 N   0  0  0  0  0  0  0  0  0  0  0  0
    1.4482   10.8679    0.2595 C   0  0  0  0  0  0  0  0  0  0  0  0
    1.4411    9.7817    0.0712 H   0  0  0  0  0  0  0  0  0  0  0  0
    0.5010   11.1370    0.7468 H   0  0  0  0  0  0  0  0  0  0  0  0
    2.0366   12.9890   -0.9223 C   0  0  0  0  0  0  0  0  0  0  0  0
    3.8089   10.6819    0.6503 C   0  0  0  0  0  0  0  0  0  0  0  0
    4.6452   11.0325    1.2591 H   0  0  0  0  0  0  0  0  0  0  0  0
    3.9578   11.0231   -0.3760 H   0  0  0  0  0  0  0  0  0  0  0  0
    3.8004    9.5825    0.6553 H   0  0  0  0  0  0  0  0  0  0  0  0
    1.2707   11.0981   -2.2418 C   0  0  0  0  0  0  0  0  0  0  0  0
    0.9232   10.0747   -2.3094 H   0  0  0  0  0  0  0  0  0  0  0  0
    2.2873   10.7455    2.5268 C   0  0  0  0  0  0  0  0  0  0  0  0
    3.2326   10.4730    3.0075 H   0  0  0  0  0  0  0  0  0  0  0  0
    1.6589    9.8447    2.4941 H   0  0  0  0  0  0  0  0  0  0  0  0
    2.1880   13.7268   -2.0661 C   0  0  0  0  0  0  0  0  0  0  0  0
    2.5409   14.7497   -2.0305 H   0  0  0  0  0  0  0  0  0  0  0  0
    1.4011   11.8519   -3.4269 C   0  0  0  0  0  0  0  0  0  0  0  0
    4.0949   14.4917    3.4305 C   0  0  0  0  0  3  0  0  0  0  0  0
    4.4801   15.1669    2.6737 H   0  0  0  0  0  0  0  0  0  0  0  0
    1.5741   11.6468   -1.0267 C   0  0  0  0  0  0  0  0  0  0  0  0
    1.2328   12.0777   -5.8227 C   0  0  0  0  0  0  0  0  0  0  0  0
    0.9893   11.6649   -6.7911 H   0  0  0  0  0  0  0  0  0  0  0  0
    2.0118   13.9409   -4.5180 C   0  0  0  0  0  0  0  0  0  0  0  0
    2.3685   14.9580   -4.4437 H   0  0  0  0  0  0  0  0  0  0  0  0
    3.0203   12.7825    5.2490 C   0  0  0  0  0  0  0  0  0  0  0  0
    2.5665   12.0929    5.9444 H   0  0  0  0  0  0  0  0  0  0  0  0
    2.6244   12.7895    3.9183 C   0  0  0  0  0  0  0  0  0  0  0  0
    1.0874   11.3204   -4.6938 C   0  0  0  0  0  0  0  0  0  0  0  0
    0.7277   10.3025   -4.7559 H   0  0  0  0  0  0  0  0  0  0  0  0
    1.5987   11.8278    3.3819 C   0  0  0  0  0  0  0  0  0  0  0  0
    0.8823   12.3842    2.7540 H   0  0  0  0  0  0  0  0  0  0  0  0
    1.0559   11.3611    4.2045 H   0  0  0  0  0  0  0  0  0  0  0  0
    4.5411   14.5488    4.7404 C   0  0  0  0  0  0  0  0  0  0  0  0
    5.2951   15.2647    5.0249 H   0  0  0  0  0  0  0  0  0  0  0  0
    1.6988   13.3983   -5.7333 C   0  0  0  0  0  0  0  0  0  0  0  0
    1.8070   13.9829   -6.6355 H   0  0  0  0  0  0  0  0  0  0  0  0
    3.9922   13.6772    5.6675 C   0  0  0  0  0  0  0  0  0  0  0  0
    4.3108   13.6944    6.6989 H   0  0  0  0  0  0  0  0  0  0  0  0
  1  2  1  1  0  0  0
  1  4  1  0  0  0  0
  1  5  1  0  0  0  0
  3 19  1  0  0  0  0
  4 10  1  6  0  0  0
  4 16  1  0  0  0  0
  5 22  1  0  0  0  0
  5 31  1  0  0  0  0
  6  8  1  0  0  0  0
  6  4  1  0  0  0  0
  7  6  1  0  0  0  0
  9  1  1  0  0  0  0
 10 13  1  0  0  0  0
 10 11  1  0  0  0  0
 12 10  1  0  0  0  0
 14 24  2  0  0  0  0
 15 14  1  0  0  0  0
 16 17  1  0  0  0  0
 16 34  1  0  0  0  0
 18 16  1  0  0  0  0
 19 20  1  0  0  0  0
 19  9  2  0  0  0  0
 21  3  1  0  0  0  0
 21 14  1  0  0  0  0
 22 37  1  0  0  0  0
 23 22  1  0  0  0  0
 24  9  1  0  0  0  0
 24  6  1  0  0  0  0
 25 39  2  0  0  0  0
 25 32  1  0  0  0  0
 26 25  1  0  0  0  0
 27 28  1  0  0  0  0
 27  3  2  0  0  0  0
 29 41  1  0  0  0  0
 29 30  1  0  0  0  0
 31 29  2  0  0  0  0
 32 21  2  0  0  0  0
 33 32  1  0  0  0  0
 34 31  1  0  0  0  0
 34 36  1  0  0  0  0
 35 34  1  0  0  0  0
 37 38  1  0  0  0  0
 37 41  2  0  0  0  0
 39 27  1  0  0  0  0
 40 39  1  0  0  0  0
 41 42  1  0  0  0  0
M  END
$$$$
