CSD_code = XIMTIZ | q = 0 | S = 0 | Stoichiometry = C26H18Br2Cl2N4Pd | MND = 4
 OpenBabel04212202123D

 53 58  0  0  1  0  0  0  0  0999 V2000
    7.5985    0.0002   12.0714 Pd  0  0  0  0  0  0  0  0  0  0  0  0
    6.4717    4.5486    9.1116 Br  0  0  0  0  0  0  0  0  0  0  0  0
    9.0443    1.6213   11.3396 Cl  0  0  0  0  0  0  0  0  0  0  0  0
    6.4562    0.4009   10.5240 N   0  0  0  0  0  0  0  0  0  0  0  0
    5.3822    1.6084    9.0157 N   0  0  0  0  0  0  0  0  0  0  0  0
    4.9369    2.4005    8.5813 H   0  0  0  0  0  0  0  0  0  0  0  0
    6.2655   -0.3820    9.4198 C   0  0  0  0  0  0  0  0  0  0  0  0
    6.6226   -1.7054    9.1832 C   0  0  0  0  0  0  0  0  0  0  0  0
    7.1197   -2.2787    9.9551 H   0  0  0  0  0  0  0  0  0  0  0  0
    6.2877   -2.2325    7.9551 C   0  0  0  0  0  0  0  0  0  0  0  0
    6.5416   -3.2569    7.7281 H   0  0  0  0  0  0  0  0  0  0  0  0
    5.6185   -1.4743    6.9885 C   0  0  0  0  0  0  0  0  0  0  0  0
    5.3805   -1.9313    6.0400 H   0  0  0  0  0  0  0  0  0  0  0  0
    5.2502   -0.1633    7.2136 C   0  0  0  0  0  0  0  0  0  0  0  0
    4.7299    0.4158    6.4668 H   0  0  0  0  0  0  0  0  0  0  0  0
    5.5814    0.3771    8.4472 C   0  0  0  0  0  0  0  0  0  0  0  0
    5.9305    1.5809   10.2615 C   0  0  1  0  0  3  0  0  0  0  0  0
    5.9345    2.6676   11.2346 C   0  0  0  0  0  0  0  0  0  0  0  0
    6.1776    4.0027   10.9123 C   0  0  0  0  0  0  0  0  0  0  0  0
    6.2361    4.9808   11.8903 C   0  0  0  0  0  0  0  0  0  0  0  0
    6.4424    6.0024   11.6098 H   0  0  0  0  0  0  0  0  0  0  0  0
    6.0398    4.6411   13.2161 C   0  0  0  0  0  0  0  0  0  0  0  0
    6.0897    5.4063   13.9752 H   0  0  0  0  0  0  0  0  0  0  0  0
    5.7809    3.3234   13.5617 C   0  0  0  0  0  0  0  0  0  0  0  0
    5.6119    3.0560   14.5940 H   0  0  0  0  0  0  0  0  0  0  0  0
    5.7393    2.3426   12.5865 C   0  0  0  0  0  0  0  0  0  0  0  0
    5.4964    1.3133   12.8636 H   0  0  0  0  0  0  0  0  0  0  0  0
    8.7256   -4.5498   15.0297 Br  0  0  0  0  0  0  0  0  0  0  0  0
    6.1533   -1.6217   12.8034 Cl  0  0  0  0  0  0  0  0  0  0  0  0
    8.7408   -0.4011   13.6188 N   0  0  0  0  0  0  0  0  0  0  0  0
    9.8177   -1.6079   15.1255 N   0  0  0  0  0  0  0  0  0  0  0  0
   10.2642   -2.3997   15.5593 H   0  0  0  0  0  0  0  0  0  0  0  0
    8.9322    0.3817   14.7229 C   0  0  0  0  0  0  0  0  0  0  0  0
    8.5743    1.7048   14.9601 C   0  0  0  0  0  0  0  0  0  0  0  0
    8.0759    2.2778   14.1889 H   0  0  0  0  0  0  0  0  0  0  0  0
    8.9101    2.2319   16.1880 C   0  0  0  0  0  0  0  0  0  0  0  0
    8.6555    3.2560   16.4155 H   0  0  0  0  0  0  0  0  0  0  0  0
    9.5810    1.4740   17.1536 C   0  0  0  0  0  0  0  0  0  0  0  0
    9.8197    1.9311   18.1020 H   0  0  0  0  0  0  0  0  0  0  0  0
    9.9502    0.1634   16.9279 C   0  0  0  0  0  0  0  0  0  0  0  0
   10.4718   -0.4154   17.6739 H   0  0  0  0  0  0  0  0  0  0  0  0
    9.6180   -0.3770   15.6945 C   0  0  0  0  0  0  0  0  0  0  0  0
    9.2677   -1.5808   13.8804 C   0  0  2  0  0  3  0  0  0  0  0  0
    9.2635   -2.6674   12.9073 C   0  0  0  0  0  0  0  0  0  0  0  0
    9.0207   -4.0026   13.2295 C   0  0  0  0  0  0  0  0  0  0  0  0
    8.9616   -4.9806   12.2515 C   0  0  0  0  0  0  0  0  0  0  0  0
    8.7554   -6.0021   12.5319 H   0  0  0  0  0  0  0  0  0  0  0  0
    9.1574   -4.6407   10.9257 C   0  0  0  0  0  0  0  0  0  0  0  0
    9.1077   -5.4059   10.1665 H   0  0  0  0  0  0  0  0  0  0  0  0
    9.4162   -3.3230   10.5801 C   0  0  0  0  0  0  0  0  0  0  0  0
    9.5851   -3.0556    9.5477 H   0  0  0  0  0  0  0  0  0  0  0  0
    9.4581   -2.3422   11.5553 C   0  0  0  0  0  0  0  0  0  0  0  0
    9.7010   -1.3129   11.2782 H   0  0  0  0  0  0  0  0  0  0  0  0
  1 29  1  0  0  0  0
  1 30  1  0  0  0  0
  2 19  1  0  0  0  0
  3  1  1  0  0  0  0
  4  1  1  0  0  0  0
  5 17  1  0  0  0  0
  6  5  1  0  0  0  0
  7  4  1  0  0  0  0
  8  7  1  0  0  0  0
  8  9  1  0  0  0  0
 10  8  2  0  0  0  0
 11 10  1  0  0  0  0
 12 14  2  0  0  0  0
 12 10  1  0  0  0  0
 13 12  1  0  0  0  0
 14 16  1  0  0  0  0
 15 14  1  0  0  0  0
 16  5  1  0  0  0  0
 16  7  2  0  0  0  0
 17  4  1  0  0  0  0
 17 18  1  1  0  0  0
 18 26  1  0  0  0  0
 19 18  2  0  0  0  0
 19 20  1  0  0  0  0
 20 22  2  0  0  0  0
 21 20  1  0  0  0  0
 22 24  1  0  0  0  0
 22 23  1  0  0  0  0
 24 25  1  0  0  0  0
 26 27  1  0  0  0  0
 26 24  2  0  0  0  0
 30 43  1  0  0  0  0
 30 33  1  0  0  0  0
 31 32  1  0  0  0  0
 31 42  1  0  0  0  0
 33 34  2  0  0  0  0
 33 42  1  0  0  0  0
 34 36  1  0  0  0  0
 35 34  1  0  0  0  0
 36 37  1  0  0  0  0
 36 38  2  0  0  0  0
 38 39  1  0  0  0  0
 40 38  1  0  0  0  0
 40 41  1  0  0  0  0
 42 40  2  0  0  0  0
 43 44  1  6  0  0  0
 43 31  1  0  0  0  0
 44 45  1  0  0  0  0
 45 28  1  0  0  0  0
 46 47  1  0  0  0  0
 46 45  2  0  0  0  0
 48 46  1  0  0  0  0
 49 48  1  0  0  0  0
 50 48  2  0  0  0  0
 50 52  1  0  0  0  0
 51 50  1  0  0  0  0
 52 44  2  0  0  0  0
 53 52  1  0  0  0  0
M  END
$$$$
