CSD_code = XIMWOI | q = 0 | S = 0 | Stoichiometry = C13H10AuCl3N4 | MND = 4
 OpenBabel04212202123D

 31 34  0  0  0  0  0  0  0  0999 V2000
    6.6583    3.3018    9.7068 Au  0  0  0  0  0  0  0  0  0  0  0  0
    6.3899    6.2624    9.8302 C   0  0  0  0  0  3  0  0  0  0  0  0
    6.2745    6.0208   10.8758 H   0  0  0  0  0  0  0  0  0  0  0  0
    6.2775    7.5606    9.3708 C   0  0  0  0  0  0  0  0  0  0  0  0
    6.0591    8.3580   10.0617 H   0  0  0  0  0  0  0  0  0  0  0  0
    6.4465    7.8041    8.0143 C   0  0  0  0  0  0  0  0  0  0  0  0
    6.3585    8.8051    7.6203 H   0  0  0  0  0  0  0  0  0  0  0  0
    6.7399    6.7460    7.1767 C   0  0  0  0  0  0  0  0  0  0  0  0
    6.9000    6.8953    6.1211 H   0  0  0  0  0  0  0  0  0  0  0  0
    6.8426    5.4616    7.7098 C   0  0  0  0  0  0  0  0  0  0  0  0
    7.1712    4.3140    6.8957 C   0  0  0  0  0  0  0  0  0  0  0  0
    7.0371    4.0644    5.5419 C   0  0  0  0  0  0  0  0  0  0  0  0
    6.6330    4.6530    4.7473 H   0  0  0  0  0  0  0  0  0  0  0  0
    7.5282    2.0081    4.2277 C   0  0  0  0  0  0  0  0  0  0  0  0
    7.5265    2.5920    2.9667 C   0  0  0  0  0  0  0  0  0  0  0  0
    7.4978    3.6649    2.8547 H   0  0  0  0  0  0  0  0  0  0  0  0
    7.5812    1.7825    1.8462 C   0  0  0  0  0  0  0  0  0  0  0  0
    7.5805    2.2321    0.8650 H   0  0  0  0  0  0  0  0  0  0  0  0
    7.6420    0.4052    1.9803 C   0  0  0  0  0  0  0  0  0  0  0  0
    7.6841   -0.2191    1.1011 H   0  0  0  0  0  0  0  0  0  0  0  0
    7.6521   -0.1697    3.2414 C   0  0  0  0  0  0  0  0  0  0  0  0
    7.7013   -1.2422    3.3476 H   0  0  0  0  0  0  0  0  0  0  0  0
    7.5949    0.6262    4.3696 C   0  0  0  0  0  0  0  0  0  0  0  0
    7.5986    0.2024    5.3610 H   0  0  0  0  0  0  0  0  0  0  0  0
    4.7300    2.9790    8.4890 Cl  0  0  0  0  0  0  0  0  0  0  0  0
    6.5987    1.2334   10.5001 Cl  0  0  0  0  0  0  0  0  0  0  0  0
    8.4094    3.8464   11.0587 Cl  0  0  0  0  0  0  0  0  0  0  0  0
    6.6523    5.2477    9.0171 N   0  0  0  0  0  0  0  0  0  0  0  0
    7.6912    3.1902    7.4570 N   0  0  0  0  0  0  0  0  0  0  0  0
    7.8646    2.3063    6.5623 N   0  0  0  0  0  2  0  0  0  0  0  0
    7.4718    2.7944    5.3896 N   0  0  0  0  0  0  0  0  0  0  0  0
  1 26  1  0  0  0  0
  1 27  1  0  0  0  0
  2  3  1  0  0  0  0
  4  2  1  0  0  0  0
  4  5  1  0  0  0  0
  6  4  2  0  0  0  0
  7  6  1  0  0  0  0
  8 10  2  0  0  0  0
  8  6  1  0  0  0  0
  9  8  1  0  0  0  0
 10 28  1  0  0  0  0
 11 29  1  0  0  0  0
 11 10  1  0  0  0  0
 12 11  2  0  0  0  0
 13 12  1  0  0  0  0
 14 23  1  0  0  0  0
 14 31  1  0  0  0  0
 15 14  2  0  0  0  0
 16 15  1  0  0  0  0
 17 19  2  0  0  0  0
 17 15  1  0  0  0  0
 18 17  1  0  0  0  0
 19 21  1  0  0  0  0
 20 19  1  0  0  0  0
 21 22  1  0  0  0  0
 21 23  2  0  0  0  0
 23 24  1  0  0  0  0
 25  1  1  0  0  0  0
 28  1  1  0  0  0  0
 28  2  1  0  0  0  0
 29  1  1  0  0  0  0
 30 29  1  0  0  0  0
 31 12  1  0  0  0  0
 31 30  1  0  0  0  0
M  END
$$$$
