CSD_code = XIMXOH | q = 1 | S = 0 | Stoichiometry = C18H27FO6Ta(1+) | MND = 7
 OpenBabel04212202123D

 53 54  0  0  1  0  0  0  0  0999 V2000
    0.0001    6.5463    1.2152 Ta  0  0  0  0  0  0  0  0  0  0  0  0
    0.0003    6.5460   -0.6489 F   0  0  0  0  0  0  0  0  0  0  0  0
   -2.1672   10.3526    0.6855 C   0  0  0  0  0  0  0  0  0  0  0  0
   -2.4329    9.9450   -0.2863 H   0  0  0  0  0  0  0  0  0  0  0  0
   -1.7317   11.3413    0.5641 H   0  0  0  0  0  0  0  0  0  0  0  0
   -3.0707   10.4506    1.2852 H   0  0  0  0  0  0  0  0  0  0  0  0
   -1.1969    9.4215    1.3538 C   0  0  0  0  0  0  0  0  0  0  0  0
   -0.5490    9.8022    2.5458 C   0  0  0  0  0  0  0  0  0  0  0  0
    0.4723    8.9974    3.0629 C   0  0  2  0  0  3  0  0  0  0  0  0
    1.2833    9.4567    4.2431 C   0  0  0  0  0  0  0  0  0  0  0  0
    0.6644    9.4895    5.1379 H   0  0  0  0  0  0  0  0  0  0  0  0
    1.6813   10.4537    4.0706 H   0  0  0  0  0  0  0  0  0  0  0  0
    2.1013    8.7599    4.4070 H   0  0  0  0  0  0  0  0  0  0  0  0
   -0.8860   11.1171    3.1973 C   0  0  0  0  0  0  0  0  0  0  0  0
   -0.7036   11.0807    4.2661 H   0  0  0  0  0  0  0  0  0  0  0  0
   -1.9305   11.3677    3.0440 H   0  0  0  0  0  0  0  0  0  0  0  0
   -0.2822   11.9223    2.7796 H   0  0  0  0  0  0  0  0  0  0  0  0
   -0.9809    8.3113    0.7709 O   0  0  0  0  0  0  0  0  0  0  0  0
    0.8033    7.8673    2.5541 O   0  0  0  0  0  0  0  0  0  0  0  0
   -2.2127    2.7662    0.6856 C   0  0  0  0  0  0  0  0  0  0  0  0
    4.3799    6.5204    0.6853 C   0  0  0  0  0  0  0  0  0  0  0  0
   -1.7268    2.7397   -0.2862 H   0  0  0  0  0  0  0  0  0  0  0  0
    4.1599    6.9543   -0.2865 H   0  0  0  0  0  0  0  0  0  0  0  0
   -3.2868    2.6491    0.5643 H   0  0  0  0  0  0  0  0  0  0  0  0
    5.0183    5.6487    0.5640 H   0  0  0  0  0  0  0  0  0  0  0  0
   -1.8459    1.9349    1.2855 H   0  0  0  0  0  0  0  0  0  0  0  0
    4.9165    7.2537    1.2852 H   0  0  0  0  0  0  0  0  0  0  0  0
   -1.8916    4.0723    1.3537 C   0  0  0  0  0  0  0  0  0  0  0  0
    3.0884    6.1461    1.3538 C   0  0  0  0  0  0  0  0  0  0  0  0
   -2.5452    4.4432    2.5457 C   0  0  0  0  0  0  0  0  0  0  0  0
    3.0940    5.3939    2.5454 C   0  0  0  0  0  0  0  0  0  0  0  0
   -2.3589    5.7301    3.0626 C   0  0  0  0  0  0  0  0  0  0  0  0
    1.8864    4.9109    3.0619 C   0  0  2  0  0  3  0  0  0  0  0  0
   -3.1621    6.2028    4.2429 C   0  0  0  0  0  0  0  0  0  0  0  0
    1.8787    3.9799    4.2429 C   0  0  0  0  0  0  0  0  0  0  0  0
   -2.8811    5.6503    5.1377 H   0  0  0  0  0  0  0  0  0  0  0  0
    2.2167    4.4996    5.1375 H   0  0  0  0  0  0  0  0  0  0  0  0
   -4.2245    6.0491    4.0704 H   0  0  0  0  0  0  0  0  0  0  0  0
    2.5431    3.1366    4.0705 H   0  0  0  0  0  0  0  0  0  0  0  0
   -2.9676    7.2596    4.4068 H   0  0  0  0  0  0  0  0  0  0  0  0
    0.8663    3.6199    4.4069 H   0  0  0  0  0  0  0  0  0  0  0  0
    4.4012    5.0284    3.1971 C   0  0  0  0  0  0  0  0  0  0  0  0
   -3.5154    3.4938    3.1973 C   0  0  0  0  0  0  0  0  0  0  0  0
    4.2784    4.8883    4.2658 H   0  0  0  0  0  0  0  0  0  0  0  0
   -3.5753    3.6702    4.2660 H   0  0  0  0  0  0  0  0  0  0  0  0
    5.1403    5.8079    3.0442 H   0  0  0  0  0  0  0  0  0  0  0  0
   -3.2101    2.4640    3.0442 H   0  0  0  0  0  0  0  0  0  0  0  0
    4.7969    4.1033    2.7792 H   0  0  0  0  0  0  0  0  0  0  0  0
   -4.5145    3.6139    2.7794 H   0  0  0  0  0  0  0  0  0  0  0  0
   -1.0380    4.8142    0.7707 O   0  0  0  0  0  0  0  0  0  0  0  0
    2.0191    6.5137    0.7705 O   0  0  0  0  0  0  0  0  0  0  0  0
   -1.5456    6.5818    2.5537 O   0  0  0  0  0  0  0  0  0  0  0  0
    0.7421    5.1897    2.5536 O   0  0  0  0  0  0  0  0  0  0  0  0
  1 53  1  0  0  0  0
  1 52  1  0  0  0  0
  1 19  1  0  0  0  0
  2  1  1  0  0  0  0
  3  6  1  0  0  0  0
  3  7  1  0  0  0  0
  4  3  1  0  0  0  0
  5  3  1  0  0  0  0
  7  8  2  0  0  0  0
  8  9  1  0  0  0  0
  8 14  1  0  0  0  0
  9 10  1  6  0  0  0
 10 13  1  0  0  0  0
 10 11  1  0  0  0  0
 12 10  1  0  0  0  0
 14 15  1  0  0  0  0
 16 14  1  0  0  0  0
 17 14  1  0  0  0  0
 18  1  1  0  0  0  0
 18  7  1  0  0  0  0
 19  9  1  0  0  0  0
 20 26  1  0  0  0  0
 20 28  1  0  0  0  0
 21 27  1  0  0  0  0
 21 29  1  0  0  0  0
 22 20  1  0  0  0  0
 23 21  1  0  0  0  0
 24 20  1  0  0  0  0
 25 21  1  0  0  0  0
 28 30  1  0  0  0  0
 29 31  2  0  0  0  0
 30 32  2  0  0  0  0
 30 43  1  0  0  0  0
 31 33  1  0  0  0  0
 31 42  1  0  0  0  0
 32 34  1  0  0  0  0
 33 35  1  6  0  0  0
 34 40  1  0  0  0  0
 34 36  1  0  0  0  0
 35 41  1  0  0  0  0
 35 37  1  0  0  0  0
 38 34  1  0  0  0  0
 39 35  1  0  0  0  0
 42 44  1  0  0  0  0
 43 45  1  0  0  0  0
 46 42  1  0  0  0  0
 47 43  1  0  0  0  0
 48 42  1  0  0  0  0
 49 43  1  0  0  0  0
 50 28  2  0  0  0  0
 51  1  1  0  0  0  0
 51 29  1  0  0  0  0
 52 32  1  0  0  0  0
 53 33  1  0  0  0  0
M  END
$$$$
