CSD_code = XIMYEY | q = 0 | S = 0 | Stoichiometry = C13H10Cl5OTa | MND = 6
 OpenBabel04212202123D

 30 31  0  0  0  0  0  0  0  0999 V2000
    8.6384   10.5965    8.9395 Ta  0  0  0  0  0  0  0  0  0  0  0  0
   10.0626   10.6937    7.0974 Cl  0  0  0  0  0  0  0  0  0  0  0  0
   10.4047   11.1608   10.3103 Cl  0  0  0  0  0  0  0  0  0  0  0  0
    7.7512   12.6386    8.8072 Cl  0  0  0  0  0  0  0  0  0  0  0  0
    7.4623    9.8093   10.7651 Cl  0  0  0  0  0  0  0  0  0  0  0  0
    7.0818    9.5718    7.5310 Cl  0  0  0  0  0  0  0  0  0  0  0  0
    9.6819    8.4539    9.0195 O   0  0  0  0  0  0  0  0  0  0  0  0
    9.7257    7.3958    8.3711 C   0  0  0  0  0  3  0  0  0  0  0  0
   11.0315    6.8409    7.9961 C   0  0  0  0  0  0  0  0  0  0  0  0
   11.2370    5.4716    7.8082 C   0  0  0  0  0  0  0  0  0  0  0  0
   10.4227    4.7793    7.9602 H   0  0  0  0  0  0  0  0  0  0  0  0
   12.4925    5.0059    7.4680 C   0  0  0  0  0  0  0  0  0  0  0  0
   12.6531    3.9472    7.3306 H   0  0  0  0  0  0  0  0  0  0  0  0
   13.5469    5.8930    7.3071 C   0  0  0  0  0  0  0  0  0  0  0  0
   14.5239    5.5220    7.0359 H   0  0  0  0  0  0  0  0  0  0  0  0
   13.3519    7.2523    7.5029 C   0  0  0  0  0  0  0  0  0  0  0  0
   14.1747    7.9401    7.3828 H   0  0  0  0  0  0  0  0  0  0  0  0
   12.1049    7.7269    7.8573 C   0  0  0  0  0  0  0  0  0  0  0  0
   11.9274    8.7819    8.0078 H   0  0  0  0  0  0  0  0  0  0  0  0
    8.4978    6.6979    7.9819 C   0  0  0  0  0  0  0  0  0  0  0  0
    8.3971    6.0130    6.7683 C   0  0  0  0  0  0  0  0  0  0  0  0
    9.2377    5.9945    6.0913 H   0  0  0  0  0  0  0  0  0  0  0  0
    7.2040    5.4136    6.4143 C   0  0  0  0  0  0  0  0  0  0  0  0
    7.1219    4.9009    5.4678 H   0  0  0  0  0  0  0  0  0  0  0  0
    6.1107    5.4769    7.2653 C   0  0  0  0  0  0  0  0  0  0  0  0
    5.1818    5.0049    6.9824 H   0  0  0  0  0  0  0  0  0  0  0  0
    6.2031    6.1570    8.4701 C   0  0  0  0  0  0  0  0  0  0  0  0
    5.3491    6.2161    9.1267 H   0  0  0  0  0  0  0  0  0  0  0  0
    7.3836    6.7793    8.8236 C   0  0  0  0  0  0  0  0  0  0  0  0
    7.4680    7.3205    9.7551 H   0  0  0  0  0  0  0  0  0  0  0  0
  1  7  1  0  0  0  0
  1  3  1  0  0  0  0
  1  5  1  0  0  0  0
  2  1  1  0  0  0  0
  4  1  1  0  0  0  0
  6  1  1  0  0  0  0
  8  7  1  0  0  0  0
  9  8  1  0  0  0  0
 10 11  1  0  0  0  0
 10  9  2  0  0  0  0
 12 10  1  0  0  0  0
 13 12  1  0  0  0  0
 14 12  2  0  0  0  0
 14 16  1  0  0  0  0
 15 14  1  0  0  0  0
 16 18  2  0  0  0  0
 17 16  1  0  0  0  0
 18  9  1  0  0  0  0
 18 19  1  0  0  0  0
 20  8  1  0  0  0  0
 20 29  1  0  0  0  0
 21 20  2  0  0  0  0
 22 21  1  0  0  0  0
 23 21  1  0  0  0  0
 23 25  2  0  0  0  0
 24 23  1  0  0  0  0
 25 27  1  0  0  0  0
 26 25  1  0  0  0  0
 27 29  2  0  0  0  0
 27 28  1  0  0  0  0
 29 30  1  0  0  0  0
M  END
$$$$
