CSD_code = XINNAK | q = 0 | S = 0 | Stoichiometry = C15H16Cl2N2O2RuS | MND = 6
 OpenBabel04212202123D

 39 42  0  0  1  0  0  0  0  0999 V2000
   -0.3573    9.5600    9.8259 Ru  0  0  0  0  0  0  0  0  0  0  0  0
    0.2038   11.6314    8.8295 Cl  0  0  0  0  0  0  0  0  0  0  0  0
   -0.9816   10.4424   11.9347 Cl  0  0  0  0  0  0  0  0  0  0  0  0
    0.5237    8.7209    7.8611 S   0  0  0  0  0  0  0  0  0  0  0  0
   -3.1454   10.0279    8.8531 O   0  0  0  0  0  1  0  0  0  0  0  0
    0.7476    7.2796    7.9519 O   0  0  0  0  0  1  0  0  0  0  0  0
   -0.5655    7.7243   10.5551 N   0  0  0  0  0  0  0  0  0  0  0  0
    1.4544    9.3356   10.6903 N   0  0  0  0  0  0  0  0  0  0  0  0
   -1.6396    6.9506   10.4228 C   0  0  0  0  0  3  0  0  0  0  0  0
   -2.5202    7.4199   10.0050 H   0  0  0  0  0  0  0  0  0  0  0  0
   -1.6599    5.6214   10.7963 C   0  0  0  0  0  0  0  0  0  0  0  0
   -2.5579    5.0400   10.6653 H   0  0  0  0  0  0  0  0  0  0  0  0
   -0.5096    5.0570   11.3315 C   0  0  0  0  0  0  0  0  0  0  0  0
   -0.4835    4.0178   11.6191 H   0  0  0  0  0  0  0  0  0  0  0  0
    0.6022    5.8606   11.4919 C   0  0  0  0  0  0  0  0  0  0  0  0
    1.5115    5.4541   11.9033 H   0  0  0  0  0  0  0  0  0  0  0  0
    0.5465    7.1978   11.1057 C   0  0  0  0  0  0  0  0  0  0  0  0
    1.6495    8.1417   11.2756 C   0  0  2  0  0  3  0  0  0  0  0  0
    2.7984    7.8851   12.0224 C   0  0  0  0  0  0  0  0  0  0  0  0
    2.9401    6.9263   12.4932 H   0  0  0  0  0  0  0  0  0  0  0  0
    3.7420    8.8841   12.1769 C   0  0  0  0  0  0  0  0  0  0  0  0
    4.6337    8.7068   12.7585 H   0  0  0  0  0  0  0  0  0  0  0  0
    3.5110   10.1189   11.5891 C   0  0  0  0  0  0  0  0  0  0  0  0
    4.2087   10.9327   11.7019 H   0  0  0  0  0  0  0  0  0  0  0  0
    2.3506   10.2993   10.8560 C   0  0  0  0  0  0  0  0  0  0  0  0
    2.1211   11.2496   10.3862 H   0  0  0  0  0  0  0  0  0  0  0  0
   -2.0803    9.8132    9.2049 C   0  0  0  0  0  2  0  0  0  0  0  0
    2.0850    9.4587    7.2305 C   0  0  0  0  0  0  0  0  0  0  0  0
    2.4880   10.1172    7.9949 H   0  0  0  0  0  0  0  0  0  0  0  0
    2.7447    8.6098    7.0587 H   0  0  0  0  0  0  0  0  0  0  0  0
    1.7160   10.1961    5.9593 C   0  0  0  0  0  0  0  0  0  0  0  0
    1.2913   11.1656    6.2254 H   0  0  0  0  0  0  0  0  0  0  0  0
    2.5899   10.3528    5.3266 H   0  0  0  0  0  0  0  0  0  0  0  0
    0.6586    9.3438    5.2640 C   0  0  0  0  0  0  0  0  0  0  0  0
    0.2383    9.8535    4.3971 H   0  0  0  0  0  0  0  0  0  0  0  0
    1.0953    8.3977    4.9368 H   0  0  0  0  0  0  0  0  0  0  0  0
   -0.3974    9.0823    6.3184 C   0  0  0  0  0  0  0  0  0  0  0  0
   -1.0487    8.2374    6.1119 H   0  0  0  0  0  0  0  0  0  0  0  0
   -0.9798    9.9774    6.5341 H   0  0  0  0  0  0  0  0  0  0  0  0
  1  7  1  0  0  0  0
  1  8  1  0  0  0  0
  1  3  1  0  0  0  0
  2  1  1  0  0  0  0
  4  6  1  0  0  0  0
  4  1  1  0  0  0  0
  5 27  1  0  0  0  0
  7 17  1  0  0  0  0
  8 25  1  0  0  0  0
  8 18  1  0  0  0  0
  9  7  1  0  0  0  0
  9 11  1  0  0  0  0
 10  9  1  0  0  0  0
 11 13  2  0  0  0  0
 12 11  1  0  0  0  0
 13 15  1  0  0  0  0
 13 14  1  0  0  0  0
 15 16  1  0  0  0  0
 17 15  2  0  0  0  0
 18 17  1  1  0  0  0
 18 19  1  0  0  0  0
 19 21  2  0  0  0  0
 19 20  1  0  0  0  0
 21 22  1  0  0  0  0
 23 24  1  0  0  0  0
 23 21  1  0  0  0  0
 25 23  2  0  0  0  0
 26 25  1  0  0  0  0
 27  1  1  0  0  0  0
 28  4  1  0  0  0  0
 28 29  1  0  0  0  0
 30 28  1  0  0  0  0
 31 32  1  0  0  0  0
 31 28  1  0  0  0  0
 33 31  1  0  0  0  0
 34 31  1  0  0  0  0
 34 37  1  0  0  0  0
 35 34  1  0  0  0  0
 36 34  1  0  0  0  0
 37 39  1  0  0  0  0
 37  4  1  0  0  0  0
 38 37  1  0  0  0  0
M  END
$$$$
