CSD_code = XINTIZ | q = 0 | S = 0 | Stoichiometry = C19H10ClN2O5Re | MND = 6
 OpenBabel04212202123D

 38 42  0  0  1  0  0  0  0  0999 V2000
    8.9021    3.3310    9.1910 Re  0  0  0  0  0  0  0  0  0  0  0  0
   10.5152    3.2195    7.4450 Cl  0  0  0  0  0  0  0  0  0  0  0  0
    8.0608    4.7857    7.7376 O   0  0  0  0  0  0  0  0  0  0  0  0
   10.4753    7.0193    5.3116 O   0  0  0  0  0  0  0  0  0  0  0  0
    6.7626    3.8752   11.3506 O   0  0  0  0  0  1  0  0  0  0  0  0
   10.5706    1.3251   10.8388 O   0  0  0  0  0  1  0  0  0  0  0  0
    7.3252    1.1227    7.7240 O   0  0  0  0  0  1  0  0  0  0  0  0
   10.0407    5.1008    9.7400 N   0  0  0  0  0  0  0  0  0  0  0  0
   11.2479    6.9377    9.4709 N   0  0  0  0  0  0  0  0  0  0  0  0
   10.4277    6.0199    8.8790 C   0  0  2  0  0  3  0  0  0  0  0  0
   10.6268    5.4079   10.9428 C   0  0  0  0  0  0  0  0  0  0  0  0
   10.5501    4.7725   12.1793 C   0  0  0  0  0  0  0  0  0  0  0  0
    9.9518    3.8820   12.3003 H   0  0  0  0  0  0  0  0  0  0  0  0
   11.2623    5.3288   13.2197 C   0  0  0  0  0  0  0  0  0  0  0  0
   11.2283    4.8625   14.1921 H   0  0  0  0  0  0  0  0  0  0  0  0
   12.0306    6.4849   13.0531 C   0  0  0  0  0  0  0  0  0  0  0  0
   12.5716    6.8816   13.8986 H   0  0  0  0  0  0  0  0  0  0  0  0
   12.1127    7.1313   11.8368 C   0  0  0  0  0  0  0  0  0  0  0  0
   12.7032    8.0252   11.7068 H   0  0  0  0  0  0  0  0  0  0  0  0
   11.3997    6.5760   10.7857 C   0  0  0  0  0  0  0  0  0  0  0  0
   10.0317    6.1211    7.4849 C   0  0  0  0  0  0  0  0  0  0  0  0
   10.7745    6.8321    6.5956 C   0  0  0  0  0  0  0  0  0  0  0  0
   11.7196    7.2945    6.8464 H   0  0  0  0  0  0  0  0  0  0  0  0
    9.3339    6.4722    4.8218 C   0  0  2  0  0  3  0  0  0  0  0  0
    8.4714    5.7197    5.6275 C   0  0  0  0  0  0  0  0  0  0  0  0
    8.8044    5.4633    7.0286 C   0  0  0  0  0  0  0  0  0  0  0  0
    7.3207    5.1656    5.0571 C   0  0  0  0  0  0  0  0  0  0  0  0
    6.6757    4.5730    5.6884 H   0  0  0  0  0  0  0  0  0  0  0  0
    7.0362    5.3697    3.7266 C   0  0  0  0  0  0  0  0  0  0  0  0
    6.1490    4.9370    3.2912 H   0  0  0  0  0  0  0  0  0  0  0  0
    7.8978    6.1274    2.9366 C   0  0  0  0  0  0  0  0  0  0  0  0
    7.6735    6.2812    1.8922 H   0  0  0  0  0  0  0  0  0  0  0  0
    9.0415    6.6773    3.4741 C   0  0  0  0  0  0  0  0  0  0  0  0
    9.7254    7.2595    2.8772 H   0  0  0  0  0  0  0  0  0  0  0  0
    7.5568    3.6539   10.5518 C   0  0  0  0  0  2  0  0  0  0  0  0
    9.9060    2.0579   10.2570 C   0  0  0  0  0  2  0  0  0  0  0  0
    7.8900    1.9041    8.3372 C   0  0  0  0  0  2  0  0  0  0  0  0
   11.6586    7.7422    9.0294 H   0  0  0  0  0  0  0  0  0  0  0  0
  1  8  1  0  0  0  0
  1 36  1  0  0  0  0
  1 35  1  0  0  0  0
  2  1  1  0  0  0  0
  3  1  1  0  0  0  0
  4 22  1  0  0  0  0
  7 37  1  0  0  0  0
  8 11  1  0  0  0  0
  9 20  1  0  0  0  0
 10 21  1  1  0  0  0
 10  9  1  0  0  0  0
 10  8  1  0  0  0  0
 11 12  1  0  0  0  0
 12 13  1  0  0  0  0
 12 14  2  0  0  0  0
 14 15  1  0  0  0  0
 16 14  1  0  0  0  0
 16 17  1  0  0  0  0
 18 16  2  0  0  0  0
 19 18  1  0  0  0  0
 20 11  2  0  0  0  0
 20 18  1  0  0  0  0
 22 23  1  0  0  0  0
 22 21  2  0  0  0  0
 24 33  1  6  0  0  0
 24  4  1  0  0  0  0
 24 25  1  0  0  0  0
 25 26  2  0  0  0  0
 26 21  1  0  0  0  0
 26  3  1  0  0  0  0
 27 25  1  0  0  0  0
 27 28  1  0  0  0  0
 29 27  2  0  0  0  0
 30 29  1  0  0  0  0
 31 33  2  0  0  0  0
 31 29  1  0  0  0  0
 32 31  1  0  0  0  0
 34 33  1  0  0  0  0
 35  5  1  0  0  0  0
 36  6  1  0  0  0  0
 37  1  1  0  0  0  0
 38  9  1  0  0  0  0
M  END
$$$$
