CSD_code = XIPHUZ | q = 0 | S = 0 | Stoichiometry = C8H18Cl4N2O2Pt | MND = 6
 OpenBabel04212202123D

 35 34  0  0  1  0  0  0  0  0999 V2000
    2.1610    6.6341    4.6445 Pt  0  0  0  0  0  0  0  0  0  0  0  0
    3.7682    5.7759    6.1617 Cl  0  0  0  0  0  0  0  0  0  0  0  0
    1.2097    4.4819    4.3555 Cl  0  0  0  0  0  0  0  0  0  0  0  0
   -0.4880    7.2542    7.9331 O   0  0  0  0  0  0  0  0  0  0  0  0
    0.8587    7.2084    6.0753 N   0  0  0  0  0  0  0  0  0  0  0  0
    0.3793    6.6654    7.1348 C   0  0  2  0  0  3  0  0  0  0  0  0
    0.7542    5.2991    7.5802 C   0  0  0  0  0  0  0  0  0  0  0  0
   -0.9675    8.5753    7.6601 C   0  0  0  0  0  0  0  0  0  0  0  0
   -1.9434    8.9407    8.7652 C   0  0  0  0  0  0  0  0  0  0  0  0
    0.5307    8.1522    5.8644 H   0  0  0  0  0  0  0  0  0  0  0  0
    0.2382    5.0598    8.5048 H   0  0  0  0  0  0  0  0  0  0  0  0
    1.8334    5.2416    7.7190 H   0  0  0  0  0  0  0  0  0  0  0  0
    0.4986    4.5784    6.8037 H   0  0  0  0  0  0  0  0  0  0  0  0
   -1.4699    8.5894    6.6851 H   0  0  0  0  0  0  0  0  0  0  0  0
   -0.1243    9.2768    7.6458 H   0  0  0  0  0  0  0  0  0  0  0  0
   -2.3310    9.9402    8.5927 H   0  0  0  0  0  0  0  0  0  0  0  0
   -2.7701    8.2362    8.7815 H   0  0  0  0  0  0  0  0  0  0  0  0
   -1.4433    8.9141    9.7292 H   0  0  0  0  0  0  0  0  0  0  0  0
    0.5530    7.4917    3.1280 Cl  0  0  0  0  0  0  0  0  0  0  0  0
    3.1131    8.7861    4.9340 Cl  0  0  0  0  0  0  0  0  0  0  0  0
    3.4637    6.0597    3.2139 N   0  0  0  0  0  0  0  0  0  0  0  0
    3.9429    6.6026    2.1544 C   0  0  2  0  0  3  0  0  0  0  0  0
    4.8100    6.0138    1.3559 O   0  0  0  0  0  0  0  0  0  0  0  0
    5.2895    4.6926    1.6289 C   0  0  0  0  0  0  0  0  0  0  0  0
    6.2655    4.3271    0.5239 C   0  0  0  0  0  0  0  0  0  0  0  0
    6.6533    3.3277    0.6967 H   0  0  0  0  0  0  0  0  0  0  0  0
    7.0920    5.0318    0.5074 H   0  0  0  0  0  0  0  0  0  0  0  0
    5.7654    4.3535   -0.4401 H   0  0  0  0  0  0  0  0  0  0  0  0
    5.7920    4.6786    2.6039 H   0  0  0  0  0  0  0  0  0  0  0  0
    4.4463    3.9912    1.6433 H   0  0  0  0  0  0  0  0  0  0  0  0
    3.5680    7.9690    1.7089 C   0  0  0  0  0  0  0  0  0  0  0  0
    4.0842    8.2084    0.7846 H   0  0  0  0  0  0  0  0  0  0  0  0
    2.4890    8.0266    1.5698 H   0  0  0  0  0  0  0  0  0  0  0  0
    3.8234    8.6896    2.4853 H   0  0  0  0  0  0  0  0  0  0  0  0
    3.7916    5.1158    3.4247 H   0  0  0  0  0  0  0  0  0  0  0  0
  1 20  1  0  0  0  0
  1  5  1  0  0  0  0
  1  2  1  0  0  0  0
  3  1  1  0  0  0  0
  5  6  1  0  0  0  0
  6  7  1  0  0  0  0
  6  4  1  6  0  0  0
  7 12  1  0  0  0  0
  7 11  1  0  0  0  0
  8  4  1  0  0  0  0
  8  9  1  0  0  0  0
  9 17  1  0  0  0  0
  9 18  1  0  0  0  0
 10  5  1  0  0  0  0
 13  7  1  0  0  0  0
 14  8  1  0  0  0  0
 15  8  1  0  0  0  0
 16  9  1  0  0  0  0
 19  1  1  0  0  0  0
 21 35  1  0  0  0  0
 21  1  1  0  0  0  0
 22 23  1  1  0  0  0
 22 21  1  0  0  0  0
 23 24  1  0  0  0  0
 24 30  1  0  0  0  0
 24 29  1  0  0  0  0
 25 26  1  0  0  0  0
 25 24  1  0  0  0  0
 27 25  1  0  0  0  0
 28 25  1  0  0  0  0
 31 22  1  0  0  0  0
 31 34  1  0  0  0  0
 32 31  1  0  0  0  0
 33 31  1  0  0  0  0
M  END
$$$$
