CSD_code = XIPJAH | q = 0 | S = 0 | Stoichiometry = C10H22Cl4N2O2Pt | MND = 6
 OpenBabel04212202123D

 41 40  0  0  1  0  0  0  0  0999 V2000
    2.1777    3.8692    6.6124 Pt  0  0  0  0  0  0  0  0  0  0  0  0
    1.6358    4.5531    4.4084 Cl  0  0  0  0  0  0  0  0  0  0  0  0
    4.1166    5.2352    6.5085 Cl  0  0  0  0  0  0  0  0  0  0  0  0
   -0.1279    7.0549    8.2821 O   0  0  0  0  0  0  0  0  0  0  0  0
    1.3234    5.4451    7.5356 N   0  0  0  0  0  0  0  0  0  0  0  0
    0.2082    6.0731    7.4696 C   0  0  2  0  0  3  0  0  0  0  0  0
   -0.8355    5.7984    6.4348 C   0  0  0  0  0  0  0  0  0  0  0  0
   -0.7924    6.8877    5.3586 C   0  0  0  0  0  0  0  0  0  0  0  0
    0.7587    7.4964    9.3152 C   0  0  0  0  0  0  0  0  0  0  0  0
    0.0580    8.6152   10.0669 C   0  0  0  0  0  0  0  0  0  0  0  0
    1.9661    5.7553    8.2677 H   0  0  0  0  0  0  0  0  0  0  0  0
   -0.6589    4.8236    5.9820 H   0  0  0  0  0  0  0  0  0  0  0  0
   -1.8107    5.8047    6.9234 H   0  0  0  0  0  0  0  0  0  0  0  0
   -1.5731    6.7006    4.6275 H   0  0  0  0  0  0  0  0  0  0  0  0
   -0.9480    7.8701    5.7978 H   0  0  0  0  0  0  0  0  0  0  0  0
    0.1660    6.8698    4.8473 H   0  0  0  0  0  0  0  0  0  0  0  0
    0.9803    6.6615    9.9915 H   0  0  0  0  0  0  0  0  0  0  0  0
    1.6920    7.8606    8.8682 H   0  0  0  0  0  0  0  0  0  0  0  0
    0.7025    8.9792   10.8613 H   0  0  0  0  0  0  0  0  0  0  0  0
   -0.8693    8.2509   10.4997 H   0  0  0  0  0  0  0  0  0  0  0  0
   -0.1709    9.4342    9.3910 H   0  0  0  0  0  0  0  0  0  0  0  0
    2.7200    3.1861    8.8164 Cl  0  0  0  0  0  0  0  0  0  0  0  0
    0.2384    2.5041    6.7155 Cl  0  0  0  0  0  0  0  0  0  0  0  0
    3.0323    2.2938    5.6888 N   0  0  0  0  0  0  0  0  0  0  0  0
    4.1475    1.6659    5.7547 C   0  0  2  0  0  3  0  0  0  0  0  0
    4.4836    0.6841    4.9423 O   0  0  0  0  0  0  0  0  0  0  0  0
    3.5969    0.2426    3.9092 C   0  0  0  0  0  0  0  0  0  0  0  0
    4.2976   -0.8762    3.1575 C   0  0  0  0  0  0  0  0  0  0  0  0
    3.6531   -1.2402    2.3630 H   0  0  0  0  0  0  0  0  0  0  0  0
    5.2249   -0.5118    2.7247 H   0  0  0  0  0  0  0  0  0  0  0  0
    4.5266   -1.6952    3.8334 H   0  0  0  0  0  0  0  0  0  0  0  0
    3.3752    1.0775    3.2329 H   0  0  0  0  0  0  0  0  0  0  0  0
    2.6636   -0.1216    4.3562 H   0  0  0  0  0  0  0  0  0  0  0  0
    5.1911    1.9406    6.7896 C   0  0  0  0  0  0  0  0  0  0  0  0
    5.1481    0.8512    7.8658 C   0  0  0  0  0  0  0  0  0  0  0  0
    5.9287    1.0384    8.5969 H   0  0  0  0  0  0  0  0  0  0  0  0
    5.3036   -0.1311    7.4265 H   0  0  0  0  0  0  0  0  0  0  0  0
    4.1896    0.8692    8.3771 H   0  0  0  0  0  0  0  0  0  0  0  0
    5.0146    2.9154    7.2423 H   0  0  0  0  0  0  0  0  0  0  0  0
    6.1664    1.9343    6.3009 H   0  0  0  0  0  0  0  0  0  0  0  0
    2.3896    1.9837    4.9567 H   0  0  0  0  0  0  0  0  0  0  0  0
  1 23  1  0  0  0  0
  1  5  1  0  0  0  0
  1 22  1  0  0  0  0
  2  1  1  0  0  0  0
  3  1  1  0  0  0  0
  4  9  1  0  0  0  0
  5 11  1  0  0  0  0
  6  5  1  0  0  0  0
  6  4  1  6  0  0  0
  7 13  1  0  0  0  0
  7  6  1  0  0  0  0
  8 15  1  0  0  0  0
  8  7  1  0  0  0  0
  9 17  1  0  0  0  0
  9 10  1  0  0  0  0
 10 20  1  0  0  0  0
 10 19  1  0  0  0  0
 12  7  1  0  0  0  0
 14  8  1  0  0  0  0
 16  8  1  0  0  0  0
 18  9  1  0  0  0  0
 21 10  1  0  0  0  0
 24 25  1  0  0  0  0
 24  1  1  0  0  0  0
 25 26  1  1  0  0  0
 25 34  1  0  0  0  0
 27 33  1  0  0  0  0
 27 26  1  0  0  0  0
 28 31  1  0  0  0  0
 28 27  1  0  0  0  0
 29 28  1  0  0  0  0
 30 28  1  0  0  0  0
 32 27  1  0  0  0  0
 34 39  1  0  0  0  0
 34 35  1  0  0  0  0
 35 38  1  0  0  0  0
 35 36  1  0  0  0  0
 37 35  1  0  0  0  0
 40 34  1  0  0  0  0
 41 24  1  0  0  0  0
M  END
$$$$
