CSD_code = XIPNER | q = 0 | S = 0 | Stoichiometry = C20H24HgI2N2O4 | MND = 4
 OpenBabel04212202123D

 53 54  0  0  0  0  0  0  0  0999 V2000
    1.1274   12.8376    3.0459 Hg  0  0  0  0  0  0  0  0  0  0  0  0
    2.7370   12.5732    5.1107 I   0  0  0  0  0  0  0  0  0  0  0  0
   -1.3912   13.1941    2.4500 I   0  0  0  0  0  0  0  0  0  0  0  0
   -0.0599   17.1164    5.1127 O   0  0  0  0  0  0  0  0  0  0  0  0
   -1.1821   18.9763    3.7242 O   0  0  0  0  0  0  0  0  0  0  0  0
   -0.2281    8.3765    5.0128 O   0  0  0  0  0  0  0  0  0  0  0  0
   -0.9988    6.2370    3.8143 O   0  0  0  0  0  0  0  0  0  0  0  0
    2.4481   14.2126    1.5542 N   0  0  0  0  0  0  0  0  0  0  0  0
    1.8577   11.3550    1.1475 N   0  0  0  0  0  0  0  0  0  0  0  0
    3.2871   13.3352    0.7812 C   0  0  0  0  0  0  0  0  0  0  0  0
    2.2235   15.3911    1.1249 C   0  0  0  0  0  3  0  0  0  0  0  0
    1.3804   16.3480    1.7985 C   0  0  0  0  0  0  0  0  0  0  0  0
    1.1121   16.2496    3.1731 C   0  0  0  0  0  0  0  0  0  0  0  0
    0.2557   17.1316    3.7986 C   0  0  0  0  0  0  0  0  0  0  0  0
   -0.3599   18.1603    3.0349 C   0  0  0  0  0  0  0  0  0  0  0  0
   -0.0715   18.2664    1.6814 C   0  0  0  0  0  0  0  0  0  0  0  0
    0.7950   17.3783    1.0701 C   0  0  0  0  0  0  0  0  0  0  0  0
    0.3893   16.0379    5.8995 C   0  0  0  0  0  0  0  0  0  0  0  0
   -1.8422   20.0140    3.0394 C   0  0  0  0  0  0  0  0  0  0  0  0
    2.4455   12.2200    0.1508 C   0  0  0  0  0  0  0  0  0  0  0  0
    1.6235   10.1485    0.8051 C   0  0  0  0  0  0  0  0  0  0  0  0
    0.9797    9.1366    1.6031 C   0  0  0  0  0  0  0  0  0  0  0  0
    0.7262    9.2892    2.9743 C   0  0  0  0  0  0  0  0  0  0  0  0
    0.0651    8.3181    3.6953 C   0  0  0  0  0  0  0  0  0  0  0  0
   -0.3611    7.1330    3.0350 C   0  0  0  0  0  0  0  0  0  0  0  0
   -0.0941    6.9768    1.6824 C   0  0  0  0  0  0  0  0  0  0  0  0
    0.5713    7.9617    0.9761 C   0  0  0  0  0  0  0  0  0  0  0  0
    0.1242    9.5339    5.7348 C   0  0  0  0  0  0  0  0  0  0  0  0
   -1.4525    5.0347    3.2394 C   0  0  0  0  0  0  0  0  0  0  0  0
    4.0270   12.8900    1.4538 H   0  0  0  0  0  0  0  0  0  0  0  0
    3.8080   13.8777   -0.0204 H   0  0  0  0  0  0  0  0  0  0  0  0
    2.6651   15.7231    0.1773 H   0  0  0  0  0  0  0  0  0  0  0  0
    1.6509   15.5120    3.7528 H   0  0  0  0  0  0  0  0  0  0  0  0
   -0.5271   19.0427    1.0880 H   0  0  0  0  0  0  0  0  0  0  0  0
    0.9908   17.4689    0.0121 H   0  0  0  0  0  0  0  0  0  0  0  0
   -0.0573   16.1834    6.8812 H   0  0  0  0  0  0  0  0  0  0  0  0
    0.0504   15.0778    5.4918 H   0  0  0  0  0  0  0  0  0  0  0  0
    1.4792   16.0280    5.9981 H   0  0  0  0  0  0  0  0  0  0  0  0
   -2.4499   20.5178    3.7890 H   0  0  0  0  0  0  0  0  0  0  0  0
   -1.1318   20.7278    2.6098 H   0  0  0  0  0  0  0  0  0  0  0  0
   -2.4915   19.6237    2.2495 H   0  0  0  0  0  0  0  0  0  0  0  0
    1.6290   12.6879   -0.4162 H   0  0  0  0  0  0  0  0  0  0  0  0
    3.0675   11.6508   -0.5531 H   0  0  0  0  0  0  0  0  0  0  0  0
    1.8950    9.8193   -0.2057 H   0  0  0  0  0  0  0  0  0  0  0  0
    1.0938   10.1765    3.4711 H   0  0  0  0  0  0  0  0  0  0  0  0
   -0.4063    6.0834    1.1658 H   0  0  0  0  0  0  0  0  0  0  0  0
    0.7584    7.8216   -0.0781 H   0  0  0  0  0  0  0  0  0  0  0  0
   -0.2519    9.3764    6.7438 H   0  0  0  0  0  0  0  0  0  0  0  0
    1.2087    9.6720    5.7744 H   0  0  0  0  0  0  0  0  0  0  0  0
   -0.3474   10.4298    5.3140 H   0  0  0  0  0  0  0  0  0  0  0  0
   -1.9296    4.4859    4.0493 H   0  0  0  0  0  0  0  0  0  0  0  0
   -2.1843    5.2196    2.4468 H   0  0  0  0  0  0  0  0  0  0  0  0
   -0.6232    4.4423    2.8400 H   0  0  0  0  0  0  0  0  0  0  0  0
  1  2  1  0  0  0  0
  3  1  1  0  0  0  0
  4 18  1  0  0  0  0
  6 28  1  0  0  0  0
  8  1  1  0  0  0  0
 10 30  1  0  0  0  0
 10  8  1  0  0  0  0
 11  8  1  0  0  0  0
 11 12  1  0  0  0  0
 12 13  1  0  0  0  0
 13 33  1  0  0  0  0
 13 14  2  0  0  0  0
 14  4  1  0  0  0  0
 15  5  1  0  0  0  0
 15 14  1  0  0  0  0
 16 15  2  0  0  0  0
 17 16  1  0  0  0  0
 17 12  2  0  0  0  0
 18 38  1  0  0  0  0
 18 36  1  0  0  0  0
 19  5  1  0  0  0  0
 19 39  1  0  0  0  0
 20 10  1  0  0  0  0
 20  9  1  0  0  0  0
 21  9  2  0  0  0  0
 21 22  1  0  0  0  0
 22 23  1  0  0  0  0
 23 45  1  0  0  0  0
 23 24  2  0  0  0  0
 24  6  1  0  0  0  0
 25 24  1  0  0  0  0
 25  7  1  0  0  0  0
 26 25  2  0  0  0  0
 27 22  2  0  0  0  0
 27 26  1  0  0  0  0
 28 49  1  0  0  0  0
 28 48  1  0  0  0  0
 29  7  1  0  0  0  0
 29 51  1  0  0  0  0
 31 10  1  0  0  0  0
 32 11  1  0  0  0  0
 34 16  1  0  0  0  0
 35 17  1  0  0  0  0
 37 18  1  0  0  0  0
 40 19  1  0  0  0  0
 41 19  1  0  0  0  0
 42 20  1  0  0  0  0
 43 20  1  0  0  0  0
 44 21  1  0  0  0  0
 46 26  1  0  0  0  0
 47 27  1  0  0  0  0
 50 28  1  0  0  0  0
 52 29  1  0  0  0  0
 53 29  1  0  0  0  0
M  END
$$$$
