CSD_code = XIPQES | q = 0 | S = 0 | Stoichiometry = C11H12Cl2N4S2Zn | MND = 4
 OpenBabel04212202123D

 32 35  0  0  1  0  0  0  0  0999 V2000
    4.1230    9.8211    8.4379 Zn  0  0  0  0  0  0  0  0  0  0  0  0
    2.5672   13.7856    7.3246 S   0  0  0  0  0  0  0  0  0  0  0  0
    5.8851    8.5401    8.4663 Cl  0  0  0  0  0  0  0  0  0  0  0  0
    1.9208   11.5507   11.9455 S   0  0  0  0  0  0  0  0  0  0  0  0
    2.0420    9.5715    7.6890 Cl  0  0  0  0  0  0  0  0  0  0  0  0
    2.4534   12.2679    9.4214 N   0  0  2  0  0  0  0  0  0  0  0  0
    4.2942   11.8746    8.0222 N   0  0  0  0  0  0  0  0  0  0  0  0
    3.6710   10.4873   10.3572 N   0  0  1  0  0  0  0  0  0  0  0  0
    4.5519   13.4261    6.3421 N   0  0  0  0  0  0  0  0  0  0  0  0
    2.7799   11.3991   10.4096 C   0  0  1  0  0  3  0  0  0  0  0  0
    3.8977    9.7928   11.5988 C   0  0  0  0  0  0  0  0  0  0  0  0
    4.8321   10.1753   12.0263 H   0  0  0  0  0  0  0  0  0  0  0  0
    4.0337    8.7296   11.3924 H   0  0  0  0  0  0  0  0  0  0  0  0
    2.7142   10.0290   12.5452 C   0  0  0  0  0  0  0  0  0  0  0  0
    3.0208   10.1709   13.5783 H   0  0  0  0  0  0  0  0  0  0  0  0
    1.9738    9.2307   12.4884 H   0  0  0  0  0  0  0  0  0  0  0  0
    3.1955   12.5066    8.3009 C   0  0  2  0  0  3  0  0  0  0  0  0
    1.3025   13.1485    9.6022 C   0  0  0  0  0  0  0  0  0  0  0  0
    1.5723   13.9409   10.3117 H   0  0  0  0  0  0  0  0  0  0  0  0
    0.4751   12.5708   10.0203 H   0  0  0  0  0  0  0  0  0  0  0  0
    0.9582   13.7125    8.2466 C   0  0  0  0  0  0  0  0  0  0  0  0
    0.5301   14.7081    8.2972 H   0  0  0  0  0  0  0  0  0  0  0  0
    0.2995   13.0524    7.6850 H   0  0  0  0  0  0  0  0  0  0  0  0
    4.9990   12.3195    6.9250 C   0  0  0  0  0  0  0  0  0  0  0  0
    6.1352   11.6469    6.4683 C   0  0  0  0  0  0  0  0  0  0  0  0
    6.4794   10.7609    6.9780 H   0  0  0  0  0  0  0  0  0  0  0  0
    6.7776   12.1553    5.3586 C   0  0  0  0  0  0  0  0  0  0  0  0
    7.6555   11.6622    4.9695 H   0  0  0  0  0  0  0  0  0  0  0  0
    6.2857   13.3040    4.7418 C   0  0  0  0  0  0  0  0  0  0  0  0
    6.7691   13.7171    3.8715 H   0  0  0  0  0  0  0  0  0  0  0  0
    5.1635   13.9079    5.2736 C   0  0  0  0  0  0  0  0  0  0  0  0
    4.7304   14.8036    4.8521 H   0  0  0  0  0  0  0  0  0  0  0  0
  1  3  1  0  0  0  0
  1  8  1  0  0  0  0
  2 21  1  0  0  0  0
  4 14  1  0  0  0  0
  5  1  1  0  0  0  0
  6 18  1  1  0  0  0
  6 10  1  0  0  0  0
  7 17  1  0  0  0  0
  7  1  1  0  0  0  0
  8 10  1  0  0  0  0
  8 11  1  1  0  0  0
  9 24  1  0  0  0  0
 10  4  1  1  0  0  0
 11 12  1  0  0  0  0
 11 14  1  0  0  0  0
 13 11  1  0  0  0  0
 14 15  1  0  0  0  0
 16 14  1  0  0  0  0
 17  2  1  1  0  0  0
 17  6  1  0  0  0  0
 18 20  1  0  0  0  0
 18 19  1  0  0  0  0
 21 22  1  0  0  0  0
 21 18  1  0  0  0  0
 23 21  1  0  0  0  0
 24  7  1  0  0  0  0
 25 24  2  0  0  0  0
 25 26  1  0  0  0  0
 27 25  1  0  0  0  0
 28 27  1  0  0  0  0
 29 31  1  0  0  0  0
 29 27  2  0  0  0  0
 30 29  1  0  0  0  0
 31  9  2  0  0  0  0
 32 31  1  0  0  0  0
M  END
$$$$
