CSD_code = XIQJUE | q = 0 | S = 0 | Stoichiometry = C6H6BrFeNO3S2 | MND = 6
 OpenBabel04212202123D

 20 20  0  0  0  0  0  0  0  0999 V2000
   -0.1492    0.2121   10.3302 Fe  0  0  0  0  0  0  0  0  0  0  0  0
   -1.1810    1.7524   11.7243 Br  0  0  0  0  0  0  0  0  0  0  0  0
   -0.7508    1.4626    8.3693 S   0  0  0  0  0  0  0  0  0  0  0  0
    1.6761    1.7137    9.8960 S   0  0  0  0  0  0  0  0  0  0  0  0
    1.1462   -1.6860    8.5776 O   0  0  0  0  0  1  0  0  0  0  0  0
   -2.6069   -1.3423   10.4306 O   0  0  0  0  0  1  0  0  0  0  0  0
    1.0301   -0.9738   12.7113 O   0  0  0  0  0  1  0  0  0  0  0  0
    0.9384    3.5088    8.0625 N   0  0  0  0  0  0  0  0  0  0  0  0
    0.6380   -0.9338    9.2631 C   0  0  0  0  0  2  0  0  0  0  0  0
   -1.6479   -0.7363   10.3847 C   0  0  0  0  0  2  0  0  0  0  0  0
    0.5758   -0.5105   11.7797 C   0  0  0  0  0  2  0  0  0  0  0  0
    0.6564    2.3791    8.6944 C   0  0  0  0  0  3  0  0  0  0  0  0
    2.1259    4.2744    8.3516 C   0  0  0  0  0  0  0  0  0  0  0  0
    1.8652    5.1774    8.9084 H   0  0  0  0  0  0  0  0  0  0  0  0
    2.6073    4.5598    7.4155 H   0  0  0  0  0  0  0  0  0  0  0  0
    2.8171    3.6811    8.9462 H   0  0  0  0  0  0  0  0  0  0  0  0
    0.0444    4.0957    7.0952 C   0  0  0  0  0  0  0  0  0  0  0  0
    0.5052    4.0855    6.1051 H   0  0  0  0  0  0  0  0  0  0  0  0
   -0.1688    5.1278    7.3775 H   0  0  0  0  0  0  0  0  0  0  0  0
   -0.8872    3.5352    7.0602 H   0  0  0  0  0  0  0  0  0  0  0  0
  1 10  1  0  0  0  0
  1  2  1  0  0  0  0
  1 11  1  0  0  0  0
  3 12  1  0  0  0  0
  3  1  1  0  0  0  0
  4  1  1  0  0  0  0
  5  9  1  0  0  0  0
  8 13  1  0  0  0  0
  8 12  1  0  0  0  0
  9  1  1  0  0  0  0
 10  6  1  0  0  0  0
 11  7  1  0  0  0  0
 12  4  1  0  0  0  0
 13 14  1  0  0  0  0
 13 16  1  0  0  0  0
 15 13  1  0  0  0  0
 17 19  1  0  0  0  0
 17  8  1  0  0  0  0
 18 17  1  0  0  0  0
 20 17  1  0  0  0  0
M  END
$$$$
