CSD_code = XIQKIT | q = 0 | S = 0 | Stoichiometry = C11H16AuClN2 | MND = 2
 OpenBabel04212202123D

 31 33  0  0  1  0  0  0  0  0999 V2000
    6.6755    2.2236    5.4898 Au  0  0  0  0  0  0  0  0  0  0  0  0
    8.8014    2.9594    5.5638 Cl  0  0  0  0  0  0  0  0  0  0  0  0
    3.9258    1.6970    6.4817 N   0  0  2  0  0  0  0  0  0  0  0  0
    2.7212    1.1304    6.1790 N   0  0  0  0  0  0  0  0  0  0  0  0
    4.7885    1.5919    5.4630 C   0  0  2  0  0  3  0  0  0  0  0  0
    4.0659    0.9566    4.4341 C   0  0  0  0  0  0  0  0  0  0  0  0
    4.5094    0.5832    3.0614 C   0  0  0  0  0  0  0  0  0  0  0  0
    5.5256    0.1875    3.0930 H   0  0  0  0  0  0  0  0  0  0  0  0
    4.5302    1.4772    2.4313 H   0  0  0  0  0  0  0  0  0  0  0  0
    3.5367   -0.4449    2.4805 C   0  0  0  0  0  0  0  0  0  0  0  0
    3.6708   -1.4010    2.9910 H   0  0  0  0  0  0  0  0  0  0  0  0
    3.7500   -0.5963    1.4219 H   0  0  0  0  0  0  0  0  0  0  0  0
    2.0903    0.0200    2.6542 C   0  0  0  0  0  0  0  0  0  0  0  0
    1.9868    1.0215    2.2322 H   0  0  0  0  0  0  0  0  0  0  0  0
    1.4133   -0.6443    2.1154 H   0  0  0  0  0  0  0  0  0  0  0  0
    1.6978    0.0542    4.1359 C   0  0  0  0  0  0  0  0  0  0  0  0
    0.7564    0.5946    4.2682 H   0  0  0  0  0  0  0  0  0  0  0  0
    1.5486   -0.9662    4.5054 H   0  0  0  0  0  0  0  0  0  0  0  0
    2.7943    0.7022    4.8991 C   0  0  0  0  0  0  0  0  0  0  0  0
    1.5401    1.2702    6.9923 C   0  0  0  0  0  0  0  0  0  0  0  0
    0.9382    0.3638    6.8813 H   0  0  0  0  0  0  0  0  0  0  0  0
    0.9485    2.1223    6.6284 H   0  0  0  0  0  0  0  0  0  0  0  0
    1.9159    1.4996    8.4521 C   0  0  0  0  0  0  0  0  0  0  0  0
    1.0205    1.7646    9.0137 H   0  0  0  0  0  0  0  0  0  0  0  0
    2.3287    0.5841    8.8806 H   0  0  0  0  0  0  0  0  0  0  0  0
    2.9569    2.6122    8.5249 C   0  0  0  0  0  0  0  0  0  0  0  0
    3.1932    2.8528    9.5605 H   0  0  0  0  0  0  0  0  0  0  0  0
    2.5716    3.5141    8.0446 H   0  0  0  0  0  0  0  0  0  0  0  0
    4.2230    2.1428    7.8188 C   0  0  0  0  0  0  0  0  0  0  0  0
    4.9663    2.9395    7.7424 H   0  0  0  0  0  0  0  0  0  0  0  0
    4.6749    1.3152    8.3814 H   0  0  0  0  0  0  0  0  0  0  0  0
  1  2  1  0  0  0  0
  3  4  1  1  0  0  0
  3 29  1  0  0  0  0
  4 20  1  0  0  0  0
  5  1  1  1  0  0  0
  5  3  1  0  0  0  0
  6 19  2  0  0  0  0
  6  5  1  0  0  0  0
  7  8  1  0  0  0  0
  7  6  1  0  0  0  0
  9  7  1  0  0  0  0
 10 13  1  0  0  0  0
 10 11  1  0  0  0  0
 10  7  1  0  0  0  0
 12 10  1  0  0  0  0
 13 16  1  0  0  0  0
 14 13  1  0  0  0  0
 15 13  1  0  0  0  0
 16 17  1  0  0  0  0
 16 18  1  0  0  0  0
 16 19  1  0  0  0  0
 19  4  1  0  0  0  0
 20 23  1  0  0  0  0
 21 20  1  0  0  0  0
 22 20  1  0  0  0  0
 23 26  1  0  0  0  0
 23 25  1  0  0  0  0
 23 24  1  0  0  0  0
 26 27  1  0  0  0  0
 28 26  1  0  0  0  0
 29 31  1  0  0  0  0
 29 26  1  0  0  0  0
 30 29  1  0  0  0  0
M  END
$$$$
