CSD_code = XIRDAF | q = 0 | S = 0 | Stoichiometry = C22H30I2N5O2Rh | MND = 6
 OpenBabel04212202123D

 62 64  0  0  1  0  0  0  0  0999 V2000
    9.0496    0.9323    5.7543 I   0  0  0  0  0 15  0  0  0  0  0  0
   11.2282    5.2546    3.5256 I   0  0  0  0  0 15  0  0  0  0  0  0
   10.0791    3.0952    4.5664 Rh  0  0  2  0  0  0  0  0  0  0  0  0
   10.7728    1.9453    2.9364 O   0  0  0  0  0  0  0  0  0  0  0  0
   12.0240    2.1772    4.6950 O   0  0  0  0  0  0  0  0  0  0  0  0
    7.6724    3.7229    2.8239 N   0  0  0  0  0  0  0  0  0  0  0  0
    6.4012    4.0367    2.8763 N   0  0  0  0  0  2  0  0  0  0  0  0
    6.1280    4.2283    4.1379 N   0  0  0  0  0  0  0  0  0  0  0  0
    8.5867    4.4287    6.8559 N   0  0  0  0  0  0  0  0  0  0  0  0
   10.7179    4.4932    7.1325 N   0  0  0  0  0  0  0  0  0  0  0  0
    8.2632    3.6874    4.0466 C   0  0  0  0  0  0  0  0  0  0  0  0
    7.2231    4.0336    4.9030 C   0  0  0  0  0  0  0  0  0  0  0  0
    7.2570    4.1226    6.3854 C   0  0  0  0  0  0  0  0  0  0  0  0
    6.5742    4.8999    6.7456 H   0  0  0  0  0  0  0  0  0  0  0  0
    6.9413    3.1566    6.8128 H   0  0  0  0  0  0  0  0  0  0  0  0
    9.7621    4.0779    6.2803 C   0  0  0  0  0  0  0  0  0  0  0  0
    8.8152    5.0521    8.0552 C   0  0  0  0  0  0  0  0  0  0  0  0
    8.0187    5.4018    8.6787 H   0  0  0  0  0  0  0  0  0  0  0  0
   10.1542    5.0957    8.2218 C   0  0  0  0  0  0  0  0  0  0  0  0
   10.7444    5.4996    9.0181 H   0  0  0  0  0  0  0  0  0  0  0  0
    4.7994    4.5740    4.5496 C   0  0  0  0  0  0  0  0  0  0  0  0
    4.1782    4.6237    3.6577 H   0  0  0  0  0  0  0  0  0  0  0  0
    4.7963    5.5438    5.0492 H   0  0  0  0  0  0  0  0  0  0  0  0
    4.4061    3.8164    5.2284 H   0  0  0  0  0  0  0  0  0  0  0  0
   12.1434    4.3758    6.9639 C   0  0  0  0  0  0  0  0  0  0  0  0
   12.6052    4.1955    7.9339 H   0  0  0  0  0  0  0  0  0  0  0  0
   12.5493    5.2945    6.5342 H   0  0  0  0  0  0  0  0  0  0  0  0
   12.3775    3.5451    6.2989 H   0  0  0  0  0  0  0  0  0  0  0  0
   11.8510    1.7162    3.5380 C   0  0  2  0  0  3  0  0  0  0  0  0
   12.9364    0.9122    2.8712 C   0  0  0  0  0  0  0  0  0  0  0  0
   12.4996    0.2272    2.1496 H   0  0  0  0  0  0  0  0  0  0  0  0
   13.5094    0.3722    3.6202 H   0  0  0  0  0  0  0  0  0  0  0  0
   13.5990    1.6006    2.3480 H   0  0  0  0  0  0  0  0  0  0  0  0
    8.2896    3.4341    1.5727 C   0  0  0  0  0  0  0  0  0  0  0  0
    8.4396    2.0963    1.2020 C   0  0  0  0  0  0  0  0  0  0  0  0
    9.1115    1.8319    0.0169 C   0  0  0  0  0  0  0  0  0  0  0  0
    9.2591    0.8111   -0.2958 H   0  0  0  0  0  0  0  0  0  0  0  0
    9.5985    2.8621   -0.7632 C   0  0  0  0  0  0  0  0  0  0  0  0
   10.1395    2.6378   -1.6710 H   0  0  0  0  0  0  0  0  0  0  0  0
    9.3756    4.1792   -0.4081 C   0  0  0  0  0  0  0  0  0  0  0  0
    9.7339    4.9681   -1.0481 H   0  0  0  0  0  0  0  0  0  0  0  0
    8.7055    4.4954    0.7648 C   0  0  0  0  0  0  0  0  0  0  0  0
    7.7915    0.9955    2.0052 C   0  0  0  0  0  0  0  0  0  0  0  0
    7.7194    1.3083    3.0500 H   0  0  0  0  0  0  0  0  0  0  0  0
    8.5755   -0.3135    1.9850 C   0  0  0  0  0  0  0  0  0  0  0  0
    9.6177   -0.1187    2.2222 H   0  0  0  0  0  0  0  0  0  0  0  0
    8.5156   -0.8038    1.0163 H   0  0  0  0  0  0  0  0  0  0  0  0
    8.1735   -0.9898    2.7361 H   0  0  0  0  0  0  0  0  0  0  0  0
    6.3680    0.7885    1.4752 C   0  0  0  0  0  0  0  0  0  0  0  0
    5.8632    0.0204    2.0567 H   0  0  0  0  0  0  0  0  0  0  0  0
    6.3964    0.4743    0.4339 H   0  0  0  0  0  0  0  0  0  0  0  0
    5.7926    1.7113    1.5379 H   0  0  0  0  0  0  0  0  0  0  0  0
    8.3516    5.9209    1.1185 C   0  0  0  0  0  0  0  0  0  0  0  0
    8.3541    6.0267    2.2085 H   0  0  0  0  0  0  0  0  0  0  0  0
    6.9367    6.2086    0.5994 C   0  0  0  0  0  0  0  0  0  0  0  0
    6.2150    5.5147    1.0250 H   0  0  0  0  0  0  0  0  0  0  0  0
    6.9121    6.1065   -0.4834 H   0  0  0  0  0  0  0  0  0  0  0  0
    6.6446    7.2243    0.8572 H   0  0  0  0  0  0  0  0  0  0  0  0
    9.3273    6.9529    0.5580 C   0  0  0  0  0  0  0  0  0  0  0  0
   10.3497    6.6901    0.8123 H   0  0  0  0  0  0  0  0  0  0  0  0
    9.1113    7.9265    0.9912 H   0  0  0  0  0  0  0  0  0  0  0  0
    9.2344    7.0376   -0.5216 H   0  0  0  0  0  0  0  0  0  0  0  0
  3  4  1  6  0  0  0
  3  5  1  0  0  0  0
  3 16  2  0  0  0  0
  4 29  1  0  0  0  0
  6  7  1  0  0  0  0
  6 11  1  0  0  0  0
  7  8  1  0  0  0  0
  8 21  1  0  0  0  0
  8 12  1  0  0  0  0
  9 17  1  0  0  0  0
 10 19  1  0  0  0  0
 11  3  1  0  0  0  0
 11 12  2  0  0  0  0
 12 13  1  0  0  0  0
 13 14  1  0  0  0  0
 13 15  1  0  0  0  0
 13  9  1  0  0  0  0
 16  9  1  0  0  0  0
 16 10  1  0  0  0  0
 17 19  2  0  0  0  0
 17 18  1  0  0  0  0
 19 20  1  0  0  0  0
 21 23  1  0  0  0  0
 21 24  1  0  0  0  0
 22 21  1  0  0  0  0
 25 10  1  0  0  0  0
 25 26  1  0  0  0  0
 27 25  1  0  0  0  0
 28 25  1  0  0  0  0
 29 30  1  6  0  0  0
 29  5  1  0  0  0  0
 30 32  1  0  0  0  0
 31 30  1  0  0  0  0
 33 30  1  0  0  0  0
 34  6  1  0  0  0  0
 35 34  1  0  0  0  0
 35 43  1  0  0  0  0
 36 35  2  0  0  0  0
 37 36  1  0  0  0  0
 38 40  2  0  0  0  0
 38 36  1  0  0  0  0
 39 38  1  0  0  0  0
 40 42  1  0  0  0  0
 41 40  1  0  0  0  0
 42 53  1  0  0  0  0
 42 34  2  0  0  0  0
 43 44  1  0  0  0  0
 45 43  1  0  0  0  0
 45 46  1  0  0  0  0
 45 48  1  0  0  0  0
 47 45  1  0  0  0  0
 49 52  1  0  0  0  0
 49 43  1  0  0  0  0
 49 50  1  0  0  0  0
 51 49  1  0  0  0  0
 53 54  1  0  0  0  0
 55 58  1  0  0  0  0
 55 56  1  0  0  0  0
 55 53  1  0  0  0  0
 57 55  1  0  0  0  0
 59 60  1  0  0  0  0
 59 61  1  0  0  0  0
 59 53  1  0  0  0  0
 62 59  1  0  0  0  0
M  END
$$$$
