CSD_code = XIRMAN | q = 0 | S = 0 | Stoichiometry = C33H30Cl2N3PRu | MND = 6
 OpenBabel04212202123D

 70 75  0  0  0  0  0  0  0  0999 V2000
    6.4090    7.5777   11.8819 Ru  0  0  0  0  0  0  0  0  0  0  0  0
    7.7927    7.6076   13.8592 Cl  0  0  0  0  0  0  0  0  0  0  0  0
    5.0058    7.8516    9.9425 Cl  0  0  0  0  0  0  0  0  0  0  0  0
    5.4056    5.6782   12.7942 P   0  0  0  0  0  4  0  0  0  0  0  0
    4.4348    4.4415   11.8598 C   0  0  0  0  0  0  0  0  0  0  0  0
    4.1083    4.6416   10.5260 C   0  0  0  0  0  0  0  0  0  0  0  0
    4.3931    5.5631   10.0380 H   0  0  0  0  0  0  0  0  0  0  0  0
    3.4137    3.6662    9.8279 C   0  0  0  0  0  0  0  0  0  0  0  0
    3.1637    3.8282    8.7895 H   0  0  0  0  0  0  0  0  0  0  0  0
    3.0437    2.4907   10.4562 C   0  0  0  0  0  0  0  0  0  0  0  0
    2.5043    1.7297    9.9107 H   0  0  0  0  0  0  0  0  0  0  0  0
    3.3670    2.2871   11.7902 C   0  0  0  0  0  0  0  0  0  0  0  0
    3.0786    1.3697   12.2833 H   0  0  0  0  0  0  0  0  0  0  0  0
    4.0615    3.2536   12.4896 C   0  0  0  0  0  0  0  0  0  0  0  0
    4.3195    3.0952   13.5288 H   0  0  0  0  0  0  0  0  0  0  0  0
    6.6090    4.4939   13.5004 C   0  0  0  0  0  0  0  0  0  0  0  0
    6.9447    4.4126   14.8447 C   0  0  0  0  0  0  0  0  0  0  0  0
    6.4553    5.0467   15.5674 H   0  0  0  0  0  0  0  0  0  0  0  0
    7.9076    3.5109   15.2650 C   0  0  0  0  0  0  0  0  0  0  0  0
    8.1624    3.4536   16.3133 H   0  0  0  0  0  0  0  0  0  0  0  0
    8.5434    2.6867   14.3528 C   0  0  0  0  0  0  0  0  0  0  0  0
    9.2954    1.9868   14.6869 H   0  0  0  0  0  0  0  0  0  0  0  0
    8.2093    2.7589   13.0100 C   0  0  0  0  0  0  0  0  0  0  0  0
    8.6974    2.1148   12.2925 H   0  0  0  0  0  0  0  0  0  0  0  0
    7.2498    3.6575   12.5863 C   0  0  0  0  0  0  0  0  0  0  0  0
    6.9771    3.7077   11.5385 H   0  0  0  0  0  0  0  0  0  0  0  0
    4.2858    6.0535   14.1926 C   0  0  0  0  0  0  0  0  0  0  0  0
    4.7702    6.8337   15.2428 C   0  0  0  0  0  0  0  0  0  0  0  0
    5.8005    7.1632   15.2354 H   0  0  0  0  0  0  0  0  0  0  0  0
    3.9350    7.2158   16.2757 C   0  0  0  0  0  0  0  0  0  0  0  0
    4.3245    7.8171   17.0845 H   0  0  0  0  0  0  0  0  0  0  0  0
    2.6016    6.8407   16.2681 C   0  0  0  0  0  0  0  0  0  0  0  0
    1.9479    7.1437   17.0730 H   0  0  0  0  0  0  0  0  0  0  0  0
    2.1076    6.0869   15.2176 C   0  0  0  0  0  0  0  0  0  0  0  0
    1.0650    5.8034   15.1987 H   0  0  0  0  0  0  0  0  0  0  0  0
    2.9400    5.6987   14.1827 C   0  0  0  0  0  0  0  0  0  0  0  0
    2.5360    5.1255   13.3607 H   0  0  0  0  0  0  0  0  0  0  0  0
    5.0812    8.7420   12.8481 N   0  0  0  0  0  0  0  0  0  0  0  0
    5.4697    9.7346   13.6558 C   0  0  0  0  0  3  0  0  0  0  0  0
    6.5368    9.8907   13.7610 H   0  0  0  0  0  0  0  0  0  0  0  0
    4.5814   10.5178   14.3675 C   0  0  0  0  0  0  0  0  0  0  0  0
    4.9586   11.2935   15.0153 H   0  0  0  0  0  0  0  0  0  0  0  0
    3.2204   10.2899   14.2382 C   0  0  0  0  0  0  0  0  0  0  0  0
    2.5019   10.8812   14.7841 H   0  0  0  0  0  0  0  0  0  0  0  0
    2.8132    9.2784   13.3820 C   0  0  0  0  0  0  0  0  0  0  0  0
    1.7680    9.0588   13.2331 H   0  0  0  0  0  0  0  0  0  0  0  0
    3.7659    8.5326   12.7172 C   0  0  0  0  0  0  0  0  0  0  0  0
    3.4666    7.7441   12.0359 H   0  0  0  0  0  0  0  0  0  0  0  0
    7.3742    9.2425   11.2490 N   0  0  0  0  0  0  0  0  0  0  0  0
    6.7184   10.3149   10.7927 C   0  0  0  0  0  3  0  0  0  0  0  0
    5.6405   10.2376   10.7192 H   0  0  0  0  0  0  0  0  0  0  0  0
    7.3541   11.4757   10.3946 C   0  0  0  0  0  0  0  0  0  0  0  0
    6.7674   12.3047   10.0312 H   0  0  0  0  0  0  0  0  0  0  0  0
    8.7358   11.5526   10.4706 C   0  0  0  0  0  0  0  0  0  0  0  0
    9.2622   12.4453   10.1699 H   0  0  0  0  0  0  0  0  0  0  0  0
    9.4187   10.4444   10.9480 C   0  0  0  0  0  0  0  0  0  0  0  0
   10.4939   10.4457   11.0345 H   0  0  0  0  0  0  0  0  0  0  0  0
    8.7067    9.3210   11.3223 C   0  0  0  0  0  0  0  0  0  0  0  0
    9.2273    8.4582   11.7185 H   0  0  0  0  0  0  0  0  0  0  0  0
    7.7951    6.4162   10.8489 N   0  0  0  0  0  0  0  0  0  0  0  0
    7.7038    6.2558    9.5241 C   0  0  0  0  0  3  0  0  0  0  0  0
    6.8552    6.7206    9.0369 H   0  0  0  0  0  0  0  0  0  0  0  0
    8.6175    5.5289    8.7841 C   0  0  0  0  0  0  0  0  0  0  0  0
    8.4797    5.4335    7.7185 H   0  0  0  0  0  0  0  0  0  0  0  0
    9.6943    4.9363    9.4247 C   0  0  0  0  0  0  0  0  0  0  0  0
   10.4245    4.3621    8.8749 H   0  0  0  0  0  0  0  0  0  0  0  0
    9.8007    5.1091   10.7948 C   0  0  0  0  0  0  0  0  0  0  0  0
   10.6165    4.6774   11.3530 H   0  0  0  0  0  0  0  0  0  0  0  0
    8.8379    5.8440   11.4619 C   0  0  0  0  0  0  0  0  0  0  0  0
    8.9140    5.9878   12.5323 H   0  0  0  0  0  0  0  0  0  0  0  0
  1  4  1  0  0  0  0
  1 38  1  0  0  0  0
  1  2  1  0  0  0  0
  3  1  1  0  0  0  0
  4 16  1  0  0  0  0
  4 27  1  0  0  0  0
  5 14  1  0  0  0  0
  5  4  1  0  0  0  0
  6  5  2  0  0  0  0
  7  6  1  0  0  0  0
  8 10  2  0  0  0  0
  8  6  1  0  0  0  0
  9  8  1  0  0  0  0
 10 12  1  0  0  0  0
 11 10  1  0  0  0  0
 12 13  1  0  0  0  0
 12 14  2  0  0  0  0
 14 15  1  0  0  0  0
 16 17  1  0  0  0  0
 17 19  2  0  0  0  0
 17 18  1  0  0  0  0
 19 20  1  0  0  0  0
 21 22  1  0  0  0  0
 21 19  1  0  0  0  0
 23 21  2  0  0  0  0
 24 23  1  0  0  0  0
 25 23  1  0  0  0  0
 25 16  2  0  0  0  0
 26 25  1  0  0  0  0
 27 28  1  0  0  0  0
 28 30  2  0  0  0  0
 29 28  1  0  0  0  0
 30 31  1  0  0  0  0
 32 30  1  0  0  0  0
 32 33  1  0  0  0  0
 34 32  2  0  0  0  0
 35 34  1  0  0  0  0
 36 27  2  0  0  0  0
 36 34  1  0  0  0  0
 37 36  1  0  0  0  0
 38 39  1  0  0  0  0
 39 40  1  0  0  0  0
 39 41  1  0  0  0  0
 41 42  1  0  0  0  0
 43 41  2  0  0  0  0
 43 44  1  0  0  0  0
 45 43  1  0  0  0  0
 46 45  1  0  0  0  0
 47 38  1  0  0  0  0
 47 45  2  0  0  0  0
 48 47  1  0  0  0  0
 49 58  1  0  0  0  0
 49  1  1  0  0  0  0
 50 49  1  0  0  0  0
 51 50  1  0  0  0  0
 52 54  2  0  0  0  0
 52 50  1  0  0  0  0
 53 52  1  0  0  0  0
 54 56  1  0  0  0  0
 55 54  1  0  0  0  0
 56 57  1  0  0  0  0
 56 58  2  0  0  0  0
 58 59  1  0  0  0  0
 60 69  1  0  0  0  0
 60  1  1  0  0  0  0
 61 60  1  0  0  0  0
 62 61  1  0  0  0  0
 63 65  2  0  0  0  0
 63 61  1  0  0  0  0
 64 63  1  0  0  0  0
 65 67  1  0  0  0  0
 66 65  1  0  0  0  0
 67 68  1  0  0  0  0
 67 69  2  0  0  0  0
 69 70  1  0  0  0  0
M  END
$$$$
