CSD_code = XIRMOD | q = 0 | S = 0 | Stoichiometry = C16H37Cl3NP2Re | MND = 6
 OpenBabel04212202123D

 60 61  0  0  0  0  0  0  0  0999 V2000
    1.9671    8.1974    8.5207 Re  0  0  0  0  0  0  0  0  0  0  0  0
   -0.2445    7.6334    8.1065 Cl  0  0  0  0  0  0  0  0  0  0  0  0
    2.2547    9.6948    6.7049 P   0  0  0  0  0  4  0  0  0  0  0  0
    4.1506    8.7226    8.8954 N   0  0  0  0  0  4  0  0  0  0  0  0
    4.4883   10.0367    8.3471 C   0  0  0  0  0  0  0  0  0  0  0  0
    5.5667   10.2326    8.4416 H   0  0  0  0  0  0  0  0  0  0  0  0
    3.9460   10.7864    8.9311 H   0  0  0  0  0  0  0  0  0  0  0  0
    2.3070    6.8235   10.4255 P   0  0  0  0  0  4  0  0  0  0  0  0
    2.9009    6.5065    7.1833 Cl  0  0  0  0  0  0  0  0  0  0  0  0
    4.0668   10.1051    6.8788 C   0  0  0  0  0  0  0  0  0  0  0  0
    4.6114    9.3425    6.3124 H   0  0  0  0  0  0  0  0  0  0  0  0
    4.2992   11.0839    6.4585 H   0  0  0  0  0  0  0  0  0  0  0  0
    2.2305    8.9913    4.9858 C   0  0  0  0  0  0  0  0  0  0  0  0
    2.8873    8.1152    5.0711 H   0  0  0  0  0  0  0  0  0  0  0  0
    1.5172    9.9795    9.9630 Cl  0  0  0  0  0  0  0  0  0  0  0  0
    2.7825    9.9132    3.9035 C   0  0  0  0  0  0  0  0  0  0  0  0
    2.8687    9.3569    2.9715 H   0  0  0  0  0  0  0  0  0  0  0  0
    3.7677   10.2961    4.1605 H   0  0  0  0  0  0  0  0  0  0  0  0
    2.1177   10.7551    3.7227 H   0  0  0  0  0  0  0  0  0  0  0  0
    0.8307    8.4947    4.6344 C   0  0  0  0  0  0  0  0  0  0  0  0
    0.8698    7.8534    3.7557 H   0  0  0  0  0  0  0  0  0  0  0  0
    0.1641    9.3268    4.4174 H   0  0  0  0  0  0  0  0  0  0  0  0
    0.4156    7.9176    5.4607 H   0  0  0  0  0  0  0  0  0  0  0  0
    1.3568   11.3208    6.5855 C   0  0  0  0  0  0  0  0  0  0  0  0
    1.4280   11.6485    5.5413 H   0  0  0  0  0  0  0  0  0  0  0  0
    1.9335   12.4062    7.4885 C   0  0  0  0  0  0  0  0  0  0  0  0
    2.9548   12.6661    7.2184 H   0  0  0  0  0  0  0  0  0  0  0  0
    1.9076   12.0851    8.5269 H   0  0  0  0  0  0  0  0  0  0  0  0
    1.3252   13.3050    7.4000 H   0  0  0  0  0  0  0  0  0  0  0  0
   -0.1060   11.0644    6.9459 C   0  0  0  0  0  0  0  0  0  0  0  0
   -0.7015   11.9613    6.7849 H   0  0  0  0  0  0  0  0  0  0  0  0
   -0.1828   10.7838    7.9946 H   0  0  0  0  0  0  0  0  0  0  0  0
   -0.5275   10.2537    6.3564 H   0  0  0  0  0  0  0  0  0  0  0  0
    4.5042    8.5423   10.3035 C   0  0  0  0  0  0  0  0  0  0  0  0
    3.9506    9.2904   10.8809 H   0  0  0  0  0  0  0  0  0  0  0  0
    5.5800    8.7088   10.4607 H   0  0  0  0  0  0  0  0  0  0  0  0
    4.1167    7.1345   10.7577 C   0  0  0  0  0  0  0  0  0  0  0  0
    4.3527    7.0051   11.8150 H   0  0  0  0  0  0  0  0  0  0  0  0
    4.6799    6.3983   10.1759 H   0  0  0  0  0  0  0  0  0  0  0  0
    1.4911    7.3355   12.0158 C   0  0  0  0  0  0  0  0  0  0  0  0
    1.8880    8.3499   12.1650 H   0  0  0  0  0  0  0  0  0  0  0  0
    1.8155    6.4968   13.2458 C   0  0  0  0  0  0  0  0  0  0  0  0
    1.2789    5.5520   13.2195 H   0  0  0  0  0  0  0  0  0  0  0  0
    1.4972    7.0326   14.1390 H   0  0  0  0  0  0  0  0  0  0  0  0
    2.8805    6.2936   13.3371 H   0  0  0  0  0  0  0  0  0  0  0  0
    4.6295    8.0049    8.3435 H   0  0  0  0  0  0  0  0  0  0  0  0
   -0.0182    7.4484   11.8102 C   0  0  0  0  0  0  0  0  0  0  0  0
   -0.2418    7.9947   10.8952 H   0  0  0  0  0  0  0  0  0  0  0  0
   -0.4702    7.9807   12.6450 H   0  0  0  0  0  0  0  0  0  0  0  0
   -0.4808    6.4679   11.7371 H   0  0  0  0  0  0  0  0  0  0  0  0
    2.2655    4.9848   10.1738 C   0  0  0  0  0  0  0  0  0  0  0  0
    2.8012    4.8865    9.2185 H   0  0  0  0  0  0  0  0  0  0  0  0
    0.8231    4.5394    9.9479 C   0  0  0  0  0  0  0  0  0  0  0  0
    0.3152    5.2322    9.2764 H   0  0  0  0  0  0  0  0  0  0  0  0
    0.2755    4.4991   10.8868 H   0  0  0  0  0  0  0  0  0  0  0  0
    0.8004    3.5480    9.4992 H   0  0  0  0  0  0  0  0  0  0  0  0
    2.9748    4.1144   11.2056 C   0  0  0  0  0  0  0  0  0  0  0  0
    3.0877    3.1099   10.7997 H   0  0  0  0  0  0  0  0  0  0  0  0
    2.4018    4.0361   12.1244 H   0  0  0  0  0  0  0  0  0  0  0  0
    3.9664    4.4921   11.4446 H   0  0  0  0  0  0  0  0  0  0  0  0
  1  4  1  0  0  0  0
  1 15  1  0  0  0  0
  1  8  1  0  0  0  0
  2  1  1  0  0  0  0
  3 10  1  0  0  0  0
  3  1  1  0  0  0  0
  4 34  1  0  0  0  0
  5  6  1  0  0  0  0
  5  4  1  0  0  0  0
  5  7  1  0  0  0  0
  8 37  1  0  0  0  0
  8 40  1  0  0  0  0
  9  1  1  0  0  0  0
 10  5  1  0  0  0  0
 11 10  1  0  0  0  0
 12 10  1  0  0  0  0
 13 14  1  0  0  0  0
 13  3  1  0  0  0  0
 16 18  1  0  0  0  0
 16 13  1  0  0  0  0
 17 16  1  0  0  0  0
 19 16  1  0  0  0  0
 20 13  1  0  0  0  0
 20 23  1  0  0  0  0
 21 20  1  0  0  0  0
 22 20  1  0  0  0  0
 24  3  1  0  0  0  0
 24 30  1  0  0  0  0
 24 26  1  0  0  0  0
 25 24  1  0  0  0  0
 26 28  1  0  0  0  0
 27 26  1  0  0  0  0
 29 26  1  0  0  0  0
 30 32  1  0  0  0  0
 31 30  1  0  0  0  0
 33 30  1  0  0  0  0
 34 36  1  0  0  0  0
 34 37  1  0  0  0  0
 34 35  1  0  0  0  0
 37 38  1  0  0  0  0
 39 37  1  0  0  0  0
 40 41  1  0  0  0  0
 40 42  1  0  0  0  0
 42 45  1  0  0  0  0
 42 44  1  0  0  0  0
 43 42  1  0  0  0  0
 46  4  1  0  0  0  0
 47 40  1  0  0  0  0
 47 49  1  0  0  0  0
 48 47  1  0  0  0  0
 50 47  1  0  0  0  0
 51  8  1  0  0  0  0
 51 57  1  0  0  0  0
 52 51  1  0  0  0  0
 53 51  1  0  0  0  0
 53 55  1  0  0  0  0
 54 53  1  0  0  0  0
 56 53  1  0  0  0  0
 57 60  1  0  0  0  0
 57 59  1  0  0  0  0
 58 57  1  0  0  0  0
M  END
$$$$
