CSD_code = XIRTEZ | q = 0 | S = 0 | Stoichiometry = C24H30AuClN2O | MND = 2
 OpenBabel04212202123D

 59 61  0  0  1  0  0  0  0  0999 V2000
    4.5959    6.7624   10.9997 C   0  0  1  0  0  3  0  0  0  0  0  0
    2.3137    6.6761   11.8634 C   0  0  0  0  0  0  0  0  0  0  0  0
    2.0717    5.6236   12.0661 H   0  0  0  0  0  0  0  0  0  0  0  0
    1.3970    7.1617   11.5170 H   0  0  0  0  0  0  0  0  0  0  0  0
    2.8148    7.3411   13.1452 C   0  0  0  0  0  0  0  0  0  0  0  0
    4.2532    6.9120   13.4178 C   0  0  0  0  0  0  0  0  0  0  0  0
    1.9270    6.9444   14.3241 C   0  0  0  0  0  0  0  0  0  0  0  0
    0.9151    7.3144   14.1779 H   0  0  0  0  0  0  0  0  0  0  0  0
    2.3294    7.3629   15.2424 H   0  0  0  0  0  0  0  0  0  0  0  0
    1.8932    5.8627   14.4348 H   0  0  0  0  0  0  0  0  0  0  0  0
    2.8441    8.8691   13.0076 C   0  0  0  0  0  0  0  0  0  0  0  0
    3.4747    9.1788   12.1774 H   0  0  0  0  0  0  0  0  0  0  0  0
    3.2325    9.3148   13.9208 H   0  0  0  0  0  0  0  0  0  0  0  0
    1.8369    9.2482   12.8447 H   0  0  0  0  0  0  0  0  0  0  0  0
    2.7933    6.6048    9.4642 C   0  0  0  0  0  0  0  0  0  0  0  0
    2.7040    5.3366    8.8881 C   0  0  0  0  0  0  0  0  0  0  0  0
    2.1745    5.2267    7.6123 C   0  0  0  0  0  0  0  0  0  0  0  0
    2.1082    4.2503    7.1553 H   0  0  0  0  0  0  0  0  0  0  0  0
    1.7426    6.3388    6.9033 C   0  0  0  0  0  0  0  0  0  0  0  0
    1.8588    7.5873    7.4945 C   0  0  0  0  0  0  0  0  0  0  0  0
    1.5459    8.4650    6.9481 H   0  0  0  0  0  0  0  0  0  0  0  0
    2.3815    7.7416    8.7693 C   0  0  0  0  0  0  0  0  0  0  0  0
    3.2257    4.1178    9.5864 C   0  0  0  0  0  0  0  0  0  0  0  0
    4.3114    4.0833    9.4782 H   0  0  0  0  0  0  0  0  0  0  0  0
    2.8128    3.2177    9.1389 H   0  0  0  0  0  0  0  0  0  0  0  0
    2.9909    4.1161   10.6487 H   0  0  0  0  0  0  0  0  0  0  0  0
    1.2002    6.1873    5.5171 C   0  0  0  0  0  0  0  0  0  0  0  0
    2.0198    6.0108    4.8209 H   0  0  0  0  0  0  0  0  0  0  0  0
    0.6726    7.0840    5.2029 H   0  0  0  0  0  0  0  0  0  0  0  0
    0.5234    5.3374    5.4578 H   0  0  0  0  0  0  0  0  0  0  0  0
    2.5341    9.1076    9.3647 C   0  0  0  0  0  0  0  0  0  0  0  0
    2.3099    9.8694    8.6235 H   0  0  0  0  0  0  0  0  0  0  0  0
    3.5575    9.2541    9.7085 H   0  0  0  0  0  0  0  0  0  0  0  0
    1.8626    9.2475   10.2110 H   0  0  0  0  0  0  0  0  0  0  0  0
    6.4494    6.5965   12.4947 C   0  0  0  0  0  0  0  0  0  0  0  0
    7.2713    7.7197   12.5484 C   0  0  0  0  0  0  0  0  0  0  0  0
    8.6289    7.5273   12.7406 C   0  0  0  0  0  0  0  0  0  0  0  0
    9.2827    8.3866   12.7742 H   0  0  0  0  0  0  0  0  0  0  0  0
    9.1693    6.2563   12.8870 C   0  0  0  0  0  0  0  0  0  0  0  0
    8.3203    5.1612   12.8500 C   0  0  0  0  0  0  0  0  0  0  0  0
    8.7264    4.1673   12.9701 H   0  0  0  0  0  0  0  0  0  0  0  0
    6.9554    5.3109   12.6577 C   0  0  0  0  0  0  0  0  0  0  0  0
    6.6976    9.0943   12.3895 C   0  0  0  0  0  0  0  0  0  0  0  0
    6.2234    9.1950   11.4121 H   0  0  0  0  0  0  0  0  0  0  0  0
    7.4789    9.8444   12.4710 H   0  0  0  0  0  0  0  0  0  0  0  0
    5.9497    9.2865   13.1586 H   0  0  0  0  0  0  0  0  0  0  0  0
   10.6435    6.0881   13.0867 C   0  0  0  0  0  0  0  0  0  0  0  0
   10.9179    5.0369   13.1068 H   0  0  0  0  0  0  0  0  0  0  0  0
   10.9516    6.5464   14.0260 H   0  0  0  0  0  0  0  0  0  0  0  0
   11.1899    6.5770   12.2820 H   0  0  0  0  0  0  0  0  0  0  0  0
    6.0404    4.1250   12.6254 C   0  0  0  0  0  0  0  0  0  0  0  0
    5.3204    4.1834   13.4421 H   0  0  0  0  0  0  0  0  0  0  0  0
    6.6058    3.2032   12.7286 H   0  0  0  0  0  0  0  0  0  0  0  0
    5.4911    4.0921   11.6844 H   0  0  0  0  0  0  0  0  0  0  0  0
    3.2994    6.7364   10.7986 N   0  0  0  0  0  0  0  0  0  0  0  0
    5.0347    6.7647   12.2852 N   0  0  0  0  0  0  0  0  0  0  0  0
    4.7129    6.7873   14.5255 O   0  0  0  0  0  0  0  0  0  0  0  0
    7.3059    6.7633    7.7274 Cl  0  0  0  0  0  0  0  0  0  0  0  0
    5.8901    6.7708    9.4602 Au  0  0  0  0  0  0  0  0  0  0  0  0
  1 59  1  6  0  0  0
  1 56  1  0  0  0  0
  2  3  1  0  0  0  0
  2  5  1  0  0  0  0
  4  2  1  0  0  0  0
  5  6  1  0  0  0  0
  5  7  1  0  0  0  0
  6 57  2  0  0  0  0
  7 10  1  0  0  0  0
  7  9  1  0  0  0  0
  8  7  1  0  0  0  0
 11  5  1  0  0  0  0
 11 13  1  0  0  0  0
 12 11  1  0  0  0  0
 14 11  1  0  0  0  0
 15 55  1  0  0  0  0
 16 15  1  0  0  0  0
 16 23  1  0  0  0  0
 17 16  2  0  0  0  0
 18 17  1  0  0  0  0
 19 20  2  0  0  0  0
 19 17  1  0  0  0  0
 20 22  1  0  0  0  0
 21 20  1  0  0  0  0
 22 31  1  0  0  0  0
 22 15  2  0  0  0  0
 23 26  1  0  0  0  0
 24 23  1  0  0  0  0
 25 23  1  0  0  0  0
 27 19  1  0  0  0  0
 28 27  1  0  0  0  0
 29 27  1  0  0  0  0
 30 27  1  0  0  0  0
 31 33  1  0  0  0  0
 31 34  1  0  0  0  0
 32 31  1  0  0  0  0
 35 36  2  0  0  0  0
 35 42  1  0  0  0  0
 36 37  1  0  0  0  0
 37 38  1  0  0  0  0
 37 39  2  0  0  0  0
 39 47  1  0  0  0  0
 40 39  1  0  0  0  0
 40 41  1  0  0  0  0
 42 40  2  0  0  0  0
 43 45  1  0  0  0  0
 43 36  1  0  0  0  0
 43 46  1  0  0  0  0
 44 43  1  0  0  0  0
 47 48  1  0  0  0  0
 47 49  1  0  0  0  0
 50 47  1  0  0  0  0
 51 42  1  0  0  0  0
 51 53  1  0  0  0  0
 51 52  1  0  0  0  0
 54 51  1  0  0  0  0
 55  1  1  0  0  0  0
 55  2  1  0  0  0  0
 56 35  1  0  0  0  0
 56  6  1  0  0  0  0
 58 59  1  0  0  0  0
M  END
$$$$
