CSD_code = XISBEH | q = 0 | S = 0 | Stoichiometry = C21H16Cl3MnN2O3 | MND = 6
 OpenBabel04212202123D

 46 50  0  0  0  0  0  0  0  0999 V2000
   -1.7123    4.0431   11.4582 Mn  0  0  0  0  0  0  0  0  0  0  0  0
   -1.2320    2.0374   10.6969 Cl  0  0  0  0  0  0  0  0  0  0  0  0
   -8.7781    4.9742   11.0160 Cl  0  0  0  0  0  0  0  0  0  0  0  0
    5.0222    3.3562   13.9865 Cl  0  0  0  0  0  0  0  0  0  0  0  0
   -3.2582    3.4959   12.0634 O   0  0  0  0  0  0  0  0  0  0  0  0
   -0.6273    4.0950   12.8293 O   0  0  0  0  0  0  0  0  0  0  0  0
   -2.3140    6.1967   12.2267 O   0  0  0  0  0  0  0  0  0  0  0  0
   -1.7538    6.9368   11.9633 H   0  0  0  0  0  0  0  0  0  0  0  0
   -2.5285    4.6446    9.7937 N   0  0  0  0  0  0  0  0  0  0  0  0
   -0.0302    4.7193   10.3737 N   0  0  0  0  0  0  0  0  0  0  0  0
   -4.4664    3.8409   11.8357 C   0  0  0  0  0  0  0  0  0  0  0  0
   -5.5059    3.5228   12.7472 C   0  0  0  0  0  0  0  0  0  0  0  0
   -5.2376    2.9921   13.6486 H   0  0  0  0  0  0  0  0  0  0  0  0
   -6.8020    3.8719   12.4963 C   0  0  0  0  0  0  0  0  0  0  0  0
   -7.5841    3.6284   13.1981 H   0  0  0  0  0  0  0  0  0  0  0  0
   -7.1261    4.5505   11.3091 C   0  0  0  0  0  0  0  0  0  0  0  0
   -6.1629    4.8755   10.3958 C   0  0  0  0  0  0  0  0  0  0  0  0
   -6.4276    5.3897    9.4844 H   0  0  0  0  0  0  0  0  0  0  0  0
   -4.8094    4.5464   10.6300 C   0  0  0  0  0  0  0  0  0  0  0  0
   -3.8217    4.9000    9.6944 C   0  0  0  0  0  3  0  0  0  0  0  0
   -4.1699    5.4475    8.8218 H   0  0  0  0  0  0  0  0  0  0  0  0
   -1.6939    4.9715    8.7324 C   0  0  0  0  0  0  0  0  0  0  0  0
   -2.0893    5.1871    7.4113 C   0  0  0  0  0  0  0  0  0  0  0  0
   -3.1134    5.0247    7.1133 H   0  0  0  0  0  0  0  0  0  0  0  0
   -1.1640    5.5796    6.4654 C   0  0  0  0  0  0  0  0  0  0  0  0
   -1.4784    5.7419    5.4460 H   0  0  0  0  0  0  0  0  0  0  0  0
    0.1653    5.7725    6.8196 C   0  0  0  0  0  0  0  0  0  0  0  0
    0.8767    6.1065    6.0800 H   0  0  0  0  0  0  0  0  0  0  0  0
    0.5876    5.5189    8.1081 C   0  0  0  0  0  0  0  0  0  0  0  0
    1.6237    5.6740    8.3661 H   0  0  0  0  0  0  0  0  0  0  0  0
   -0.3226    5.0713    9.0687 C   0  0  0  0  0  0  0  0  0  0  0  0
    1.1996    4.4383   10.7311 C   0  0  0  0  0  3  0  0  0  0  0  0
    1.9834    4.4330    9.9766 H   0  0  0  0  0  0  0  0  0  0  0  0
    1.6001    4.1052   12.0444 C   0  0  0  0  0  0  0  0  0  0  0  0
    2.9622    3.9255   12.3530 C   0  0  0  0  0  0  0  0  0  0  0  0
    3.7014    4.0822   11.5823 H   0  0  0  0  0  0  0  0  0  0  0  0
    3.3461    3.5627   13.6167 C   0  0  0  0  0  0  0  0  0  0  0  0
    2.3971    3.3506   14.6269 C   0  0  0  0  0  0  0  0  0  0  0  0
    2.7255    3.0499   15.6095 H   0  0  0  0  0  0  0  0  0  0  0  0
    1.0659    3.5228   14.3595 C   0  0  0  0  0  0  0  0  0  0  0  0
    0.3205    3.3545   15.1221 H   0  0  0  0  0  0  0  0  0  0  0  0
    0.6220    3.9059   13.0735 C   0  0  0  0  0  0  0  0  0  0  0  0
   -2.6436    6.3521   13.5991 C   0  0  0  0  0  0  0  0  0  0  0  0
   -3.2350    7.2607   13.7460 H   0  0  0  0  0  0  0  0  0  0  0  0
   -1.7463    6.3900   14.2230 H   0  0  0  0  0  0  0  0  0  0  0  0
   -3.2399    5.4872   13.8831 H   0  0  0  0  0  0  0  0  0  0  0  0
  1  5  1  0  0  0  0
  1  6  1  0  0  0  0
  2  1  1  0  0  0  0
  3 16  1  0  0  0  0
  6 42  1  0  0  0  0
  7 43  1  0  0  0  0
  8  7  1  0  0  0  0
  9  1  1  0  0  0  0
 10 32  1  0  0  0  0
 10  1  1  0  0  0  0
 11  5  1  0  0  0  0
 11 12  1  0  0  0  0
 12 13  1  0  0  0  0
 14 12  2  0  0  0  0
 14 15  1  0  0  0  0
 16 14  1  0  0  0  0
 17 19  1  0  0  0  0
 17 16  2  0  0  0  0
 18 17  1  0  0  0  0
 19 11  2  0  0  0  0
 20  9  1  0  0  0  0
 20 19  1  0  0  0  0
 21 20  1  0  0  0  0
 22 31  1  0  0  0  0
 22  9  1  0  0  0  0
 23 22  2  0  0  0  0
 24 23  1  0  0  0  0
 25 27  2  0  0  0  0
 25 23  1  0  0  0  0
 26 25  1  0  0  0  0
 27 29  1  0  0  0  0
 28 27  1  0  0  0  0
 29 30  1  0  0  0  0
 29 31  2  0  0  0  0
 31 10  1  0  0  0  0
 32 34  1  0  0  0  0
 33 32  1  0  0  0  0
 34 35  2  0  0  0  0
 34 42  1  0  0  0  0
 35 37  1  0  0  0  0
 36 35  1  0  0  0  0
 37  4  1  0  0  0  0
 37 38  2  0  0  0  0
 38 39  1  0  0  0  0
 40 38  1  0  0  0  0
 40 41  1  0  0  0  0
 42 40  2  0  0  0  0
 43 44  1  0  0  0  0
 43 46  1  0  0  0  0
 43 45  1  0  0  0  0
M  END
$$$$
