CSD_code = XISCIL | q = 0 | S = 0 | Stoichiometry = C16H23Cl2NOSiTi | MND = 8
 OpenBabel04212202123D

 45 47  0  0  1  0  0  0  0  0999 V2000
   17.1974    8.7479   12.2115 Ti  0  0  0  0  0  0  0  0  0  0  0  0
   17.5424    8.2106   14.2792 Cl  0  0  0  0  0  0  0  0  0  0  0  0
   15.9379   10.5005   12.4696 Cl  0  0  0  0  0  0  0  0  0  0  0  0
   16.9421    6.9196   10.0056 Si  0  0  0  0  0  0  0  0  0  0  0  0
   19.0034   11.5607   11.4767 O   0  0  0  0  0  0  0  0  0  0  0  0
   16.1024    7.4477   11.4362 N   0  0  0  0  0  0  0  0  0  0  0  0
   18.3537    8.1217   10.4129 C   0  0  1  0  0  0  0  0  0  0  0  0
   18.1355    9.5300   10.2822 C   0  0  0  0  0  0  0  0  0  0  0  0
   18.8581   10.2220   11.2718 C   0  0  0  0  0  0  0  0  0  0  0  0
   20.4597    9.3912   13.1326 C   0  0  0  0  0  0  0  0  0  0  0  0
   21.0000    8.2555   13.6794 C   0  0  0  0  0  0  0  0  0  0  0  0
   20.6779    6.9794   13.1793 C   0  0  0  0  0  0  0  0  0  0  0  0
   19.8174    6.8150   12.1236 C   0  0  0  0  0  0  0  0  0  0  0  0
   19.2375    7.9534   11.5282 C   0  0  0  0  0  0  0  0  0  0  0  0
   19.5627    9.2565   12.0588 C   0  0  0  0  0  0  0  0  0  0  0  0
   17.4654    5.0799    9.9541 C   0  0  0  0  0  0  0  0  0  0  0  0
   16.1460    7.3841    8.3247 C   0  0  0  0  0  0  0  0  0  0  0  0
   14.7358    7.1311   11.8146 C   0  0  0  0  0  0  0  0  0  0  0  0
   14.4102    5.6685   11.4843 C   0  0  0  0  0  0  0  0  0  0  0  0
   13.7775    8.0565   11.0446 C   0  0  0  0  0  0  0  0  0  0  0  0
   14.5412    7.3411   13.3253 C   0  0  0  0  0  0  0  0  0  0  0  0
   18.2573   12.4131   10.6337 C   0  0  0  0  0  0  0  0  0  0  0  0
   17.5669    9.9853    9.4789 H   0  0  0  0  0  0  0  0  0  0  0  0
   20.7128   10.3757   13.5011 H   0  0  0  0  0  0  0  0  0  0  0  0
   21.6898    8.3323   14.5064 H   0  0  0  0  0  0  0  0  0  0  0  0
   21.1299    6.1139   13.6413 H   0  0  0  0  0  0  0  0  0  0  0  0
   19.6041    5.8312   11.7287 H   0  0  0  0  0  0  0  0  0  0  0  0
   18.3911    4.9591    9.4012 H   0  0  0  0  0  0  0  0  0  0  0  0
   17.6121    4.6749   10.9505 H   0  0  0  0  0  0  0  0  0  0  0  0
   16.7118    4.4758    9.4610 H   0  0  0  0  0  0  0  0  0  0  0  0
   15.7456    8.3938    8.3340 H   0  0  0  0  0  0  0  0  0  0  0  0
   16.8761    7.3214    7.5244 H   0  0  0  0  0  0  0  0  0  0  0  0
   15.3349    6.7083    8.0743 H   0  0  0  0  0  0  0  0  0  0  0  0
   15.1159    5.0120   11.9866 H   0  0  0  0  0  0  0  0  0  0  0  0
   14.4751    5.4991   10.4132 H   0  0  0  0  0  0  0  0  0  0  0  0
   13.4040    5.4250   11.8154 H   0  0  0  0  0  0  0  0  0  0  0  0
   13.8274    7.8407    9.9806 H   0  0  0  0  0  0  0  0  0  0  0  0
   14.0640    9.0962   11.2074 H   0  0  0  0  0  0  0  0  0  0  0  0
   12.7554    7.9127   11.3858 H   0  0  0  0  0  0  0  0  0  0  0  0
   14.7030    8.3890   13.5943 H   0  0  0  0  0  0  0  0  0  0  0  0
   15.2440    6.7172   13.8806 H   0  0  0  0  0  0  0  0  0  0  0  0
   13.5277    7.0654   13.6104 H   0  0  0  0  0  0  0  0  0  0  0  0
   18.5597   12.2952    9.5874 H   0  0  0  0  0  0  0  0  0  0  0  0
   17.1822   12.2245   10.7323 H   0  0  0  0  0  0  0  0  0  0  0  0
   18.4812   13.4261   10.9635 H   0  0  0  0  0  0  0  0  0  0  0  0
  1  3  1  0  0  0  0
  1  2  1  0  0  0  0
  4  7  1  0  0  0  0
  4  6  1  0  0  0  0
  6 18  1  0  0  0  0
  6  1  1  0  0  0  0
  7  8  1  6  0  0  0
  7 14  1  0  0  0  0
  7  1  1  0  0  0  0
  8  9  2  0  0  0  0
  9  5  1  0  0  0  0
  9 15  1  0  0  0  0
 10 24  1  0  0  0  0
 10 11  1  0  0  0  0
 11 25  1  0  0  0  0
 12 26  1  0  0  0  0
 12 11  2  0  0  0  0
 13 12  1  0  0  0  0
 14 15  1  0  0  0  0
 14 13  2  0  0  0  0
 15 10  2  0  0  0  0
 16  4  1  0  0  0  0
 16 29  1  0  0  0  0
 17 31  1  0  0  0  0
 17  4  1  0  0  0  0
 18 21  1  0  0  0  0
 19 18  1  0  0  0  0
 19 36  1  0  0  0  0
 19 34  1  0  0  0  0
 20 38  1  0  0  0  0
 20 39  1  0  0  0  0
 20 18  1  0  0  0  0
 21 40  1  0  0  0  0
 21 42  1  0  0  0  0
 21 41  1  0  0  0  0
 22 44  1  0  0  0  0
 22 45  1  0  0  0  0
 22  5  1  0  0  0  0
 23  8  1  0  0  0  0
 27 13  1  0  0  0  0
 28 16  1  0  0  0  0
 30 16  1  0  0  0  0
 32 17  1  0  0  0  0
 33 17  1  0  0  0  0
 35 19  1  0  0  0  0
 37 20  1  0  0  0  0
 43 22  1  0  0  0  0
M  END
$$$$
