CSD_code = XITREX | q = 0 | S = 0 | Stoichiometry = C28H26ClMnN2O2 | MND = 5
 OpenBabel04212202123D

 60 66  0  0  1  0  0  0  0  0999 V2000
    5.9975    0.9832    9.0140 Mn  0  0  0  0  0  0  0  0  0  0  0  0
    6.4919    0.9033   11.1524 Cl  0  0  0  0  0  0  0  0  0  0  0  0
    4.2901    0.7469    9.3178 O   0  0  0  0  0  0  0  0  0  0  0  0
    6.4056   -0.6745    8.4830 O   0  0  0  0  0  0  0  0  0  0  0  0
    5.8188    2.8273    8.7479 N   0  0  1  0  0  0  0  0  0  0  0  0
    7.8824    1.4111    8.6219 N   0  0  2  0  0  0  0  0  0  0  0  0
    3.2573    1.4572    9.0619 C   0  0  0  0  0  0  0  0  0  0  0  0
    1.9634    0.8623    9.1629 C   0  0  0  0  0  0  0  0  0  0  0  0
    0.8434    1.5953    8.9702 C   0  0  0  0  0  0  0  0  0  0  0  0
    0.9103    2.9849    8.6757 C   0  0  0  0  0  0  0  0  0  0  0  0
   -0.2707    3.7215    8.4940 C   0  0  0  0  0  0  0  0  0  0  0  0
   -0.2332    5.0611    8.2048 C   0  0  0  0  0  0  0  0  0  0  0  0
    1.0021    5.6969    8.0852 C   0  0  0  0  0  0  0  0  0  0  0  0
    2.1707    4.9963    8.2591 C   0  0  0  0  0  0  0  0  0  0  0  0
    2.1716    3.6239    8.5653 C   0  0  0  0  0  0  0  0  0  0  0  0
    3.3737    2.8447    8.7435 C   0  0  0  0  0  0  0  0  0  0  0  0
    4.6516    3.4320    8.6519 C   0  0  0  0  0  3  0  0  0  0  0  0
    7.0260    3.6735    8.7335 C   0  0  0  0  0  0  0  0  0  0  0  0
    7.3290    4.0420   10.1950 C   0  0  0  0  0  0  0  0  0  0  0  0
    6.8763    4.9689    7.9201 C   0  0  0  0  0  0  0  0  0  0  0  0
    8.1515    2.7678    8.1288 C   0  0  0  0  0  0  0  0  0  0  0  0
    8.0143    2.6751    6.5971 C   0  0  0  0  0  0  0  0  0  0  0  0
    9.5475    3.2924    8.4843 C   0  0  0  0  0  0  0  0  0  0  0  0
    8.8672    0.5767    8.7350 C   0  0  0  0  0  3  0  0  0  0  0  0
    8.7219   -0.8288    8.9302 C   0  0  0  0  0  0  0  0  0  0  0  0
    9.8446   -1.6712    9.2087 C   0  0  0  0  0  0  0  0  0  0  0  0
   11.1116   -1.1702    9.5637 C   0  0  0  0  0  0  0  0  0  0  0  0
   12.1608   -2.0122    9.8281 C   0  0  0  0  0  0  0  0  0  0  0  0
   11.9991   -3.3993    9.7553 C   0  0  0  0  0  0  0  0  0  0  0  0
   10.7741   -3.9205    9.4363 C   0  0  0  0  0  0  0  0  0  0  0  0
    9.6786   -3.0803    9.1680 C   0  0  0  0  0  0  0  0  0  0  0  0
    8.4044   -3.6220    8.8692 C   0  0  0  0  0  0  0  0  0  0  0  0
    7.3304   -2.8223    8.6433 C   0  0  0  0  0  0  0  0  0  0  0  0
    7.4513   -1.4067    8.7003 C   0  0  0  0  0  0  0  0  0  0  0  0
    1.9243   -0.1909    9.3992 H   0  0  0  0  0  0  0  0  0  0  0  0
   -0.1317    1.1352    9.0449 H   0  0  0  0  0  0  0  0  0  0  0  0
   -1.2172    3.2082    8.5877 H   0  0  0  0  0  0  0  0  0  0  0  0
   -1.1459    5.6214    8.0684 H   0  0  0  0  0  0  0  0  0  0  0  0
    1.0408    6.7515    7.8533 H   0  0  0  0  0  0  0  0  0  0  0  0
    3.0997    5.5345    8.1517 H   0  0  0  0  0  0  0  0  0  0  0  0
    4.6616    4.5028    8.5031 H   0  0  0  0  0  0  0  0  0  0  0  0
    7.5434    3.1461   10.7750 H   0  0  0  0  0  0  0  0  0  0  0  0
    8.1622    4.7349   10.2571 H   0  0  0  0  0  0  0  0  0  0  0  0
    6.4505    4.5157   10.6288 H   0  0  0  0  0  0  0  0  0  0  0  0
    7.8584    5.3729    7.6922 H   0  0  0  0  0  0  0  0  0  0  0  0
    6.3478    4.7991    6.9853 H   0  0  0  0  0  0  0  0  0  0  0  0
    6.3485    5.7254    8.4959 H   0  0  0  0  0  0  0  0  0  0  0  0
    8.2598    3.6186    6.1195 H   0  0  0  0  0  0  0  0  0  0  0  0
    8.6939    1.9116    6.2216 H   0  0  0  0  0  0  0  0  0  0  0  0
    6.9968    2.3864    6.3295 H   0  0  0  0  0  0  0  0  0  0  0  0
    9.7893    3.0680    9.5190 H   0  0  0  0  0  0  0  0  0  0  0  0
   10.3030    2.8581    7.8335 H   0  0  0  0  0  0  0  0  0  0  0  0
    9.5848    4.3687    8.3454 H   0  0  0  0  0  0  0  0  0  0  0  0
    9.8808    0.9288    8.5772 H   0  0  0  0  0  0  0  0  0  0  0  0
   11.2609   -0.1064    9.6602 H   0  0  0  0  0  0  0  0  0  0  0  0
   13.1217   -1.6031   10.1039 H   0  0  0  0  0  0  0  0  0  0  0  0
   12.8356   -4.0493    9.9635 H   0  0  0  0  0  0  0  0  0  0  0  0
   10.6268   -4.9902    9.3944 H   0  0  0  0  0  0  0  0  0  0  0  0
    8.2977   -4.6972    8.8374 H   0  0  0  0  0  0  0  0  0  0  0  0
    6.3517   -3.2295    8.4374 H   0  0  0  0  0  0  0  0  0  0  0  0
  1  3  1  0  0  0  0
  1  2  1  0  0  0  0
  4 34  1  0  0  0  0
  4  1  1  0  0  0  0
  5 17  1  1  0  0  0
  5  1  1  0  0  0  0
  6 24  1  6  0  0  0
  6  1  1  0  0  0  0
  7  8  1  0  0  0  0
  7  3  1  0  0  0  0
  8 35  1  0  0  0  0
  9 36  1  0  0  0  0
  9  8  2  0  0  0  0
 10  9  1  0  0  0  0
 11 37  1  0  0  0  0
 11 10  2  0  0  0  0
 12 11  1  0  0  0  0
 13 12  2  0  0  0  0
 13 14  1  0  0  0  0
 14 15  2  0  0  0  0
 15 10  1  0  0  0  0
 15 16  1  0  0  0  0
 16  7  2  0  0  0  0
 17 16  1  0  0  0  0
 18  5  1  0  0  0  0
 18 19  1  0  0  0  0
 19 43  1  0  0  0  0
 19 44  1  0  0  0  0
 19 42  1  0  0  0  0
 20 47  1  0  0  0  0
 20 18  1  0  0  0  0
 21 23  1  0  0  0  0
 21  6  1  0  0  0  0
 21 18  1  0  0  0  0
 22 21  1  0  0  0  0
 23 51  1  0  0  0  0
 24 25  1  0  0  0  0
 25 26  1  0  0  0  0
 26 27  1  0  0  0  0
 27 55  1  0  0  0  0
 27 28  2  0  0  0  0
 28 56  1  0  0  0  0
 29 28  1  0  0  0  0
 29 57  1  0  0  0  0
 30 29  2  0  0  0  0
 31 26  2  0  0  0  0
 31 30  1  0  0  0  0
 32 31  1  0  0  0  0
 33 34  1  0  0  0  0
 33 32  2  0  0  0  0
 34 25  2  0  0  0  0
 38 12  1  0  0  0  0
 39 13  1  0  0  0  0
 40 14  1  0  0  0  0
 41 17  1  0  0  0  0
 45 20  1  0  0  0  0
 46 20  1  0  0  0  0
 48 22  1  0  0  0  0
 49 22  1  0  0  0  0
 50 22  1  0  0  0  0
 52 23  1  0  0  0  0
 53 23  1  0  0  0  0
 54 24  1  0  0  0  0
 58 30  1  0  0  0  0
 59 32  1  0  0  0  0
 60 33  1  0  0  0  0
M  END
$$$$
