CSD_code = XIVFAL | q = 0 | S = 0 | Stoichiometry = C28H28Br2P2Pd | MND = 4
 OpenBabel04212202123D

 61 65  0  0  0  0  0  0  0  0999 V2000
    4.1963    8.6236    3.3175 Pd  0  0  0  0  0  0  0  0  0  0  0  0
    2.6773    7.0865    4.3997 Br  0  0  0  0  0  0  0  0  0  0  0  0
    2.3972    9.8278    2.2746 Br  0  0  0  0  0  0  0  0  0  0  0  0
    5.7812    7.2185    4.1197 P   0  0  0  0  0  4  0  0  0  0  0  0
    5.6390   10.2922    2.7968 P   0  0  0  0  0  4  0  0  0  0  0  0
    5.6557    5.6638    3.1885 C   0  0  0  0  0  0  0  0  0  0  0  0
    4.8282    5.6239    2.0693 C   0  0  0  0  0  0  0  0  0  0  0  0
    4.2263    6.5003    1.7959 H   0  0  0  0  0  0  0  0  0  0  0  0
    4.7401    4.4697    1.3128 C   0  0  0  0  0  0  0  0  0  0  0  0
    4.0900    4.4384    0.4516 H   0  0  0  0  0  0  0  0  0  0  0  0
    5.4801    3.3540    1.6684 C   0  0  0  0  0  0  0  0  0  0  0  0
    5.4071    2.4502    1.0822 H   0  0  0  0  0  0  0  0  0  0  0  0
    6.3102    3.3914    2.7780 C   0  0  0  0  0  0  0  0  0  0  0  0
    6.8840    2.5189    3.0540 H   0  0  0  0  0  0  0  0  0  0  0  0
    6.4031    4.5429    3.5374 C   0  0  0  0  0  0  0  0  0  0  0  0
    7.0441    4.5740    4.4084 H   0  0  0  0  0  0  0  0  0  0  0  0
    5.7477    6.7525    5.8734 C   0  0  0  0  0  0  0  0  0  0  0  0
    5.0669    5.6176    6.3036 C   0  0  0  0  0  0  0  0  0  0  0  0
    4.5727    4.9802    5.5850 H   0  0  0  0  0  0  0  0  0  0  0  0
    5.0052    5.3212    7.6526 C   0  0  0  0  0  0  0  0  0  0  0  0
    4.4741    4.4405    7.9803 H   0  0  0  0  0  0  0  0  0  0  0  0
    5.6081    6.1554    8.5795 C   0  0  0  0  0  0  0  0  0  0  0  0
    5.5519    5.9242    9.6328 H   0  0  0  0  0  0  0  0  0  0  0  0
    6.2738    7.2941    8.1559 C   0  0  0  0  0  0  0  0  0  0  0  0
    6.7354    7.9538    8.8763 H   0  0  0  0  0  0  0  0  0  0  0  0
    6.3428    7.5956    6.8087 C   0  0  0  0  0  0  0  0  0  0  0  0
    6.8510    8.4944    6.4849 H   0  0  0  0  0  0  0  0  0  0  0  0
    7.5826    7.6267    3.9172 C   0  0  0  0  0  0  0  0  0  0  0  0
    7.7347    8.6368    4.3130 H   0  0  0  0  0  0  0  0  0  0  0  0
    8.1567    6.9350    4.5420 H   0  0  0  0  0  0  0  0  0  0  0  0
    8.0756    7.5438    2.4755 C   0  0  0  0  0  0  0  0  0  0  0  0
    9.1231    7.8597    2.4459 H   0  0  0  0  0  0  0  0  0  0  0  0
    8.0369    6.5029    2.1434 H   0  0  0  0  0  0  0  0  0  0  0  0
    7.2686    8.3921    1.4949 C   0  0  0  0  0  0  0  0  0  0  0  0
    7.7202    8.2888    0.5055 H   0  0  0  0  0  0  0  0  0  0  0  0
    6.2450    7.9896    1.4255 H   0  0  0  0  0  0  0  0  0  0  0  0
    7.2027    9.8742    1.8765 C   0  0  0  0  0  0  0  0  0  0  0  0
    7.1994   10.4906    0.9734 H   0  0  0  0  0  0  0  0  0  0  0  0
    8.0736   10.1561    2.4713 H   0  0  0  0  0  0  0  0  0  0  0  0
    5.1053   11.7983    1.9328 C   0  0  0  0  0  0  0  0  0  0  0  0
    4.7741   11.6644    0.5858 C   0  0  0  0  0  0  0  0  0  0  0  0
    4.8522   10.6937    0.1109 H   0  0  0  0  0  0  0  0  0  0  0  0
    4.3167   12.7544   -0.1263 C   0  0  0  0  0  0  0  0  0  0  0  0
    4.0524   12.6456   -1.1673 H   0  0  0  0  0  0  0  0  0  0  0  0
    4.1804   13.9822    0.5030 C   0  0  0  0  0  0  0  0  0  0  0  0
    3.8166   14.8341   -0.0516 H   0  0  0  0  0  0  0  0  0  0  0  0
    4.4920   14.1134    1.8450 C   0  0  0  0  0  0  0  0  0  0  0  0
    4.3710   15.0664    2.3386 H   0  0  0  0  0  0  0  0  0  0  0  0
    4.9470   13.0235    2.5670 C   0  0  0  0  0  0  0  0  0  0  0  0
    5.1716   13.1271    3.6194 H   0  0  0  0  0  0  0  0  0  0  0  0
    6.1230   10.9090    4.4437 C   0  0  0  0  0  0  0  0  0  0  0  0
    7.2900   11.6235    4.6956 C   0  0  0  0  0  0  0  0  0  0  0  0
    7.9691   11.8578    3.8873 H   0  0  0  0  0  0  0  0  0  0  0  0
    7.5766   12.0475    5.9812 C   0  0  0  0  0  0  0  0  0  0  0  0
    8.4871   12.5960    6.1734 H   0  0  0  0  0  0  0  0  0  0  0  0
    6.6984   11.7759    7.0186 C   0  0  0  0  0  0  0  0  0  0  0  0
    6.9294   12.1079    8.0196 H   0  0  0  0  0  0  0  0  0  0  0  0
    5.5212   11.0879    6.7711 C   0  0  0  0  0  0  0  0  0  0  0  0
    4.8300   10.8841    7.5750 H   0  0  0  0  0  0  0  0  0  0  0  0
    5.2346   10.6541    5.4893 C   0  0  0  0  0  0  0  0  0  0  0  0
    4.2941   10.1175    5.2973 H   0  0  0  0  0  0  0  0  0  0  0  0
  1  4  1  0  0  0  0
  1  2  1  0  0  0  0
  3  1  1  0  0  0  0
  4 17  1  0  0  0  0
  5  1  1  0  0  0  0
  5 51  1  0  0  0  0
  6 15  1  0  0  0  0
  6  4  1  0  0  0  0
  7  6  2  0  0  0  0
  8  7  1  0  0  0  0
  9 11  2  0  0  0  0
  9  7  1  0  0  0  0
 10  9  1  0  0  0  0
 11 13  1  0  0  0  0
 12 11  1  0  0  0  0
 13 14  1  0  0  0  0
 13 15  2  0  0  0  0
 15 16  1  0  0  0  0
 17 18  2  0  0  0  0
 17 26  1  0  0  0  0
 18 20  1  0  0  0  0
 19 18  1  0  0  0  0
 20 21  1  0  0  0  0
 20 22  2  0  0  0  0
 22 23  1  0  0  0  0
 24 22  1  0  0  0  0
 24 25  1  0  0  0  0
 26 24  2  0  0  0  0
 27 26  1  0  0  0  0
 28  4  1  0  0  0  0
 28 29  1  0  0  0  0
 28 30  1  0  0  0  0
 31 28  1  0  0  0  0
 32 31  1  0  0  0  0
 33 31  1  0  0  0  0
 34 37  1  0  0  0  0
 34 31  1  0  0  0  0
 35 34  1  0  0  0  0
 36 34  1  0  0  0  0
 37 39  1  0  0  0  0
 37  5  1  0  0  0  0
 38 37  1  0  0  0  0
 40 49  1  0  0  0  0
 40  5  1  0  0  0  0
 41 40  2  0  0  0  0
 42 41  1  0  0  0  0
 43 45  2  0  0  0  0
 43 41  1  0  0  0  0
 44 43  1  0  0  0  0
 45 47  1  0  0  0  0
 46 45  1  0  0  0  0
 47 48  1  0  0  0  0
 47 49  2  0  0  0  0
 49 50  1  0  0  0  0
 51 52  2  0  0  0  0
 51 60  1  0  0  0  0
 52 54  1  0  0  0  0
 53 52  1  0  0  0  0
 54 55  1  0  0  0  0
 54 56  2  0  0  0  0
 56 57  1  0  0  0  0
 58 56  1  0  0  0  0
 58 59  1  0  0  0  0
 60 58  2  0  0  0  0
 61 60  1  0  0  0  0
M  END
$$$$
