CSD_code = XIWBIP | q = 0 | S = 0 | Stoichiometry = C24H26Cl2N4Pd | MND = 4
 OpenBabel04212202123D

 57 61  0  0  1  0  0  0  0  0999 V2000
   12.0840    6.1423   11.9601 C   0  0  0  0  0  0  0  0  0  0  0  0
   12.6712    6.3743   11.0932 H   0  0  0  0  0  0  0  0  0  0  0  0
   12.4681    5.7296   13.2011 C   0  0  0  0  0  0  0  0  0  0  0  0
   13.4364    5.5230   13.6069 H   0  0  0  0  0  0  0  0  0  0  0  0
   10.2926    5.9332   13.1463 C   0  0  1  0  0  3  0  0  0  0  0  0
   11.2794    5.2115   15.3315 C   0  0  0  0  0  0  0  0  0  0  0  0
   10.9375    6.0469   15.9468 H   0  0  0  0  0  0  0  0  0  0  0  0
   12.2776    4.9220   15.6531 H   0  0  0  0  0  0  0  0  0  0  0  0
   10.6072    4.3624   15.4697 H   0  0  0  0  0  0  0  0  0  0  0  0
    7.2102    4.5660   10.6565 C   0  0  0  0  0  0  0  0  0  0  0  0
    7.1254    4.4804    9.5914 H   0  0  0  0  0  0  0  0  0  0  0  0
    6.4530    4.0175   11.6479 C   0  0  0  0  0  0  0  0  0  0  0  0
    5.6084    3.3618   11.6090 H   0  0  0  0  0  0  0  0  0  0  0  0
    8.0142    5.2669   12.5328 C   0  0  2  0  0  3  0  0  0  0  0  0
    6.4408    4.1697   14.1384 C   0  0  0  0  0  0  0  0  0  0  0  0
    7.1873    3.6606   14.7522 H   0  0  0  0  0  0  0  0  0  0  0  0
    5.5759    3.5189   14.0308 H   0  0  0  0  0  0  0  0  0  0  0  0
    6.1291    5.0912   14.6352 H   0  0  0  0  0  0  0  0  0  0  0  0
    8.8470    6.0184   13.5271 C   0  0  2  0  0  0  0  0  0  0  0  0
    8.6857    5.6098   14.5265 H   0  0  0  0  0  0  0  0  0  0  0  0
    8.4521    7.5369   13.5001 C   0  0  0  0  0  0  0  0  0  0  0  0
    8.7957    7.9200   12.5137 H   0  0  0  0  0  0  0  0  0  0  0  0
    9.2047    8.3001   14.5575 C   0  0  0  0  0  0  0  0  0  0  0  0
    9.9644    9.3984   14.1666 C   0  0  0  0  0  0  0  0  0  0  0  0
    9.9953    9.6777   13.1226 H   0  0  0  0  0  0  0  0  0  0  0  0
   10.6897   10.1233   15.0913 C   0  0  0  0  0  0  0  0  0  0  0  0
   11.2736   10.9709   14.7645 H   0  0  0  0  0  0  0  0  0  0  0  0
   10.6850    9.7743   16.4374 C   0  0  0  0  0  0  0  0  0  0  0  0
    9.9381    8.6718   16.8256 C   0  0  0  0  0  0  0  0  0  0  0  0
    9.9236    8.3746   17.8654 H   0  0  0  0  0  0  0  0  0  0  0  0
    9.2118    7.9412   15.8999 C   0  0  0  0  0  0  0  0  0  0  0  0
    8.6525    7.0822   16.2458 H   0  0  0  0  0  0  0  0  0  0  0  0
   11.4644   10.5763   17.4334 C   0  0  0  0  0  0  0  0  0  0  0  0
   12.4772   10.7517   17.0751 H   0  0  0  0  0  0  0  0  0  0  0  0
   11.5126   10.0699   18.3944 H   0  0  0  0  0  0  0  0  0  0  0  0
   10.9924   11.5476   17.5804 H   0  0  0  0  0  0  0  0  0  0  0  0
    6.9484    7.6887   13.5086 C   0  0  0  0  0  0  0  0  0  0  0  0
    6.1780    7.6560   14.6624 C   0  0  0  0  0  0  0  0  0  0  0  0
    6.6465    7.5924   15.6327 H   0  0  0  0  0  0  0  0  0  0  0  0
    4.7964    7.7333   14.5894 C   0  0  0  0  0  0  0  0  0  0  0  0
    4.2166    7.7125   15.5019 H   0  0  0  0  0  0  0  0  0  0  0  0
    4.1495    7.8361   13.3668 C   0  0  0  0  0  0  0  0  0  0  0  0
    4.9255    7.8828   12.2127 C   0  0  0  0  0  0  0  0  0  0  0  0
    4.4473    7.9771   11.2495 H   0  0  0  0  0  0  0  0  0  0  0  0
    6.3024    7.8177   12.2811 C   0  0  0  0  0  0  0  0  0  0  0  0
    6.8860    7.8735   11.3632 H   0  0  0  0  0  0  0  0  0  0  0  0
    2.6564    7.9110   13.2777 C   0  0  0  0  0  0  0  0  0  0  0  0
    2.3545    8.8595   12.8353 H   0  0  0  0  0  0  0  0  0  0  0  0
    2.1994    7.8260   14.2608 H   0  0  0  0  0  0  0  0  0  0  0  0
    2.2732    7.1140   12.6417 H   0  0  0  0  0  0  0  0  0  0  0  0
   10.7252    8.4992    9.8982 Cl  0  0  0  0  0  0  0  0  0  0  0  0
    7.9301    7.2917    8.8881 Cl  0  0  0  0  0  0  0  0  0  0  0  0
   10.7332    6.2631   11.9481 N   0  0  0  0  0  0  0  0  0  0  0  0
   11.3299    5.5973   13.9484 N   0  0  0  0  0  0  0  0  0  0  0  0
    8.1728    5.3353   11.2241 N   0  0  0  0  0  0  0  0  0  0  0  0
    6.9665    4.4634   12.8339 N   0  0  0  0  0  0  0  0  0  0  0  0
    9.4009    6.8151   10.4900 Pd  0  0  0  0  0  0  0  0  0  0  0  0
  1  3  2  0  0  0  0
  2  1  1  0  0  0  0
  3  4  1  0  0  0  0
  3 54  1  0  0  0  0
  5 53  1  1  0  0  0
  5 19  1  0  0  0  0
  5 54  1  0  0  0  0
  6  9  1  0  0  0  0
  6  8  1  0  0  0  0
  6  7  1  0  0  0  0
 10 55  1  0  0  0  0
 10 12  2  0  0  0  0
 11 10  1  0  0  0  0
 12 56  1  0  0  0  0
 13 12  1  0  0  0  0
 14 55  1  6  0  0  0
 14 56  1  0  0  0  0
 14 19  1  0  0  0  0
 15 18  1  0  0  0  0
 15 16  1  0  0  0  0
 17 15  1  0  0  0  0
 19 20  1  1  0  0  0
 21 37  1  0  0  0  0
 21 19  1  0  0  0  0
 21 23  1  0  0  0  0
 22 21  1  0  0  0  0
 23 31  1  0  0  0  0
 24 23  2  0  0  0  0
 24 26  1  0  0  0  0
 25 24  1  0  0  0  0
 26 28  2  0  0  0  0
 27 26  1  0  0  0  0
 28 29  1  0  0  0  0
 28 33  1  0  0  0  0
 29 30  1  0  0  0  0
 31 32  1  0  0  0  0
 31 29  2  0  0  0  0
 33 36  1  0  0  0  0
 33 35  1  0  0  0  0
 34 33  1  0  0  0  0
 37 38  1  0  0  0  0
 38 39  1  0  0  0  0
 40 38  2  0  0  0  0
 40 41  1  0  0  0  0
 42 40  1  0  0  0  0
 43 45  1  0  0  0  0
 43 42  2  0  0  0  0
 44 43  1  0  0  0  0
 45 37  2  0  0  0  0
 46 45  1  0  0  0  0
 47 42  1  0  0  0  0
 47 49  1  0  0  0  0
 48 47  1  0  0  0  0
 50 47  1  0  0  0  0
 51 57  1  0  0  0  0
 52 57  1  0  0  0  0
 53  1  1  0  0  0  0
 54  6  1  0  0  0  0
 56 15  1  0  0  0  0
 57 55  1  0  0  0  0
 57 53  1  0  0  0  0
M  END
$$$$
