CSD_code = XIWCEN | q = 0 | S = 0 | Stoichiometry = C20H20Br2N8S2Zn | MND = 4
 OpenBabel04212202123D

 53 56  0  0  0  0  0  0  0  0999 V2000
   10.9429   11.0581   11.9511 Br  0  0  0  0  0  0  0  0  0  0  0  0
   10.4046    6.7487   12.3266 Br  0  0  0  0  0  0  0  0  0  0  0  0
    9.7275    8.9855   11.7146 Zn  0  0  0  0  0  0  0  0  0  0  0  0
    8.8526    8.8362    9.2078 S   0  0  0  0  0  0  0  0  0  0  0  0
    7.2833    9.3823   12.6514 S   0  0  0  0  0  0  0  0  0  0  0  0
    7.6976   14.5800    6.7831 N   0  0  0  0  0  0  0  0  0  0  0  0
    7.5386   13.6064    6.9830 H   0  0  0  0  0  0  0  0  0  0  0  0
    8.9256   12.6929    8.5396 N   0  0  0  0  0  0  0  0  0  0  0  0
    9.0902   11.4797    9.1287 N   0  0  0  0  0  0  0  0  0  0  0  0
    9.5795   11.4364   10.0302 H   0  0  0  0  0  0  0  0  0  0  0  0
    8.1634   10.4663    7.2915 N   0  0  0  0  0  4  0  0  0  0  0  0
    8.2566   11.3459    6.8088 H   0  0  0  0  0  0  0  0  0  0  0  0
    7.9669    9.6255    6.7773 H   0  0  0  0  0  0  0  0  0  0  0  0
    3.8921    4.0349   12.3507 N   0  0  0  0  0  0  0  0  0  0  0  0
    4.0907    5.0156   12.2420 H   0  0  0  0  0  0  0  0  0  0  0  0
    6.2708    5.6022   12.5385 N   0  0  0  0  0  0  0  0  0  0  0  0
    7.0013    6.7464   12.4893 N   0  0  0  0  0  0  0  0  0  0  0  0
    8.0138    6.6738   12.3358 H   0  0  0  0  0  0  0  0  0  0  0  0
    5.1314    7.9578   13.0328 N   0  0  0  0  0  4  0  0  0  0  0  0
    4.6842    7.0860   13.2689 H   0  0  0  0  0  0  0  0  0  0  0  0
    4.7211    8.8304   13.3158 H   0  0  0  0  0  0  0  0  0  0  0  0
    7.0881   15.3470    5.8278 C   0  0  0  0  0  0  0  0  0  0  0  0
    6.3913   14.9112    5.1374 H   0  0  0  0  0  0  0  0  0  0  0  0
    7.5154   16.6347    5.9281 C   0  0  0  0  0  0  0  0  0  0  0  0
    7.2170   17.4590    5.3123 H   0  0  0  0  0  0  0  0  0  0  0  0
    8.4341   16.6837    7.0159 C   0  0  0  0  0  0  0  0  0  0  0  0
    9.1790   17.6980    7.6150 C   0  0  0  0  0  0  0  0  0  0  0  0
    9.1311   18.7083    7.2378 H   0  0  0  0  0  0  0  0  0  0  0  0
    9.9727   17.3832    8.7014 C   0  0  0  0  0  0  0  0  0  0  0  0
   10.5512   18.1586    9.1808 H   0  0  0  0  0  0  0  0  0  0  0  0
   10.0481   16.0865    9.1977 C   0  0  0  0  0  0  0  0  0  0  0  0
   10.6819   15.8775   10.0466 H   0  0  0  0  0  0  0  0  0  0  0  0
    9.3336   15.0371    8.6191 C   0  0  0  0  0  0  0  0  0  0  0  0
    8.5187   15.3643    7.5242 C   0  0  0  0  0  0  0  0  0  0  0  0
    9.4488   13.7022    9.1335 C   0  0  0  0  0  0  0  0  0  0  0  0
   10.0196   13.5750   10.0562 H   0  0  0  0  0  0  0  0  0  0  0  0
    8.7084   10.3585    8.5144 C   0  0  0  0  0  0  0  0  0  0  0  0
    2.6672    3.4248   12.3378 C   0  0  0  0  0  0  0  0  0  0  0  0
    1.7669    4.0047   12.2661 H   0  0  0  0  0  0  0  0  0  0  0  0
    2.8222    2.0766   12.4327 C   0  0  0  0  0  0  0  0  0  0  0  0
    2.0432    1.3414   12.4528 H   0  0  0  0  0  0  0  0  0  0  0  0
    4.2229    1.8230   12.4945 C   0  0  0  0  0  0  0  0  0  0  0  0
    4.9996    0.6688   12.5780 C   0  0  0  0  0  0  0  0  0  0  0  0
    4.5325   -0.3032   12.6254 H   0  0  0  0  0  0  0  0  0  0  0  0
    6.3754    0.7961   12.5923 C   0  0  0  0  0  0  0  0  0  0  0  0
    6.9916   -0.0885   12.6501 H   0  0  0  0  0  0  0  0  0  0  0  0
    6.9929    2.0407   12.5349 C   0  0  0  0  0  0  0  0  0  0  0  0
    8.0707    2.1014   12.5526 H   0  0  0  0  0  0  0  0  0  0  0  0
    6.2550    3.2230   12.4696 C   0  0  0  0  0  0  0  0  0  0  0  0
    4.8583    3.0878   12.4405 C   0  0  0  0  0  0  0  0  0  0  0  0
    6.9150    4.4972   12.4437 C   0  0  0  0  0  0  0  0  0  0  0  0
    8.0033    4.4894   12.3503 H   0  0  0  0  0  0  0  0  0  0  0  0
    6.4397    7.9324   12.7306 C   0  0  0  0  0  0  0  0  0  0  0  0
  3  1  1  0  0  0  0
  3  2  1  0  0  0  0
  3  5  1  0  0  0  0
  4  3  1  0  0  0  0
  5 53  1  0  0  0  0
  6  7  1  0  0  0  0
  6 34  1  0  0  0  0
  8  9  1  0  0  0  0
  8 35  2  0  0  0  0
  9 10  1  0  0  0  0
 11 37  2  0  0  0  0
 12 11  1  0  0  0  0
 13 11  1  0  0  0  0
 14 50  1  0  0  0  0
 15 14  1  0  0  0  0
 17 16  1  0  0  0  0
 17 53  1  0  0  0  0
 18 17  1  0  0  0  0
 19 20  1  0  0  0  0
 19 21  1  0  0  0  0
 22 24  2  0  0  0  0
 22  6  1  0  0  0  0
 23 22  1  0  0  0  0
 24 26  1  0  0  0  0
 25 24  1  0  0  0  0
 26 34  2  0  0  0  0
 26 27  1  0  0  0  0
 27 29  2  0  0  0  0
 28 27  1  0  0  0  0
 29 30  1  0  0  0  0
 29 31  1  0  0  0  0
 31 32  1  0  0  0  0
 33 35  1  0  0  0  0
 33 31  2  0  0  0  0
 34 33  1  0  0  0  0
 35 36  1  0  0  0  0
 37  9  1  0  0  0  0
 37  4  1  0  0  0  0
 38 14  1  0  0  0  0
 38 40  2  0  0  0  0
 39 38  1  0  0  0  0
 40 41  1  0  0  0  0
 40 42  1  0  0  0  0
 42 43  1  0  0  0  0
 43 45  2  0  0  0  0
 43 44  1  0  0  0  0
 45 46  1  0  0  0  0
 47 48  1  0  0  0  0
 47 45  1  0  0  0  0
 49 47  2  0  0  0  0
 50 49  1  0  0  0  0
 50 42  2  0  0  0  0
 51 49  1  0  0  0  0
 51 16  2  0  0  0  0
 52 51  1  0  0  0  0
 53 19  2  0  0  0  0
M  END
$$$$
