CSD_code = XIWPUQ | q = 0 | S = 0 | Stoichiometry = C22H14Cl5CoN6 | MND = 5
 OpenBabel04212202123D

 48 53  0  0  0  0  0  0  0  0999 V2000
    7.1813    3.5385   14.5722 Co  0  0  0  0  0  0  0  0  0  0  0  0
    5.4926    2.1707   14.8423 Cl  0  0  0  0  0  0  0  0  0  0  0  0
    9.3007    5.2111   12.4888 Cl  0  0  0  0  0  0  0  0  0  0  0  0
    4.2449    6.1377   16.2388 Cl  0  0  0  0  0  0  0  0  0  0  0  0
    8.8102   -0.1156   13.1094 Cl  0  0  0  0  0  0  0  0  0  0  0  0
    9.5876    5.5345   15.9364 Cl  0  0  0  0  0  0  0  0  0  0  0  0
    8.6599    2.7061   13.9920 N   0  0  0  0  0  0  0  0  0  0  0  0
    6.7685    5.2353   14.9820 N   0  0  0  0  0  0  0  0  0  0  0  0
    6.2788    6.0004   14.0351 N   0  0  0  0  0  0  0  0  0  0  0  0
    6.4860    4.0330   12.8976 N   0  0  0  0  0  0  0  0  0  0  0  0
    9.4848    2.2122   14.8849 N   0  0  0  0  0  2  0  0  0  0  0  0
    7.8452    3.0192   16.2513 N   0  0  0  0  0  0  0  0  0  0  0  0
    5.2540    5.1539   10.6669 C   0  0  0  0  0  0  0  0  0  0  0  0
    4.7911    5.5714    9.7859 H   0  0  0  0  0  0  0  0  0  0  0  0
    8.3348    6.6997   18.0157 C   0  0  0  0  0  0  0  0  0  0  0  0
    9.3211    6.8309   18.4303 H   0  0  0  0  0  0  0  0  0  0  0  0
    8.1908    6.0812   16.7867 C   0  0  0  0  0  0  0  0  0  0  0  0
    6.9308    5.8916   16.2099 C   0  0  0  0  0  0  0  0  0  0  0  0
    5.6350    3.8053   10.6897 C   0  0  0  0  0  0  0  0  0  0  0  0
    5.4672    3.1693    9.8364 H   0  0  0  0  0  0  0  0  0  0  0  0
    7.2127    7.1503   18.6898 C   0  0  0  0  0  0  0  0  0  0  0  0
    7.3214    7.6333   19.6477 H   0  0  0  0  0  0  0  0  0  0  0  0
    9.5900    1.0544   10.8117 C   0  0  0  0  0  0  0  0  0  0  0  0
    9.6609    0.0519   10.4220 H   0  0  0  0  0  0  0  0  0  0  0  0
    9.2035    1.2428   12.1280 C   0  0  0  0  0  0  0  0  0  0  0  0
    6.0702    5.3341   12.9037 C   0  0  0  0  0  0  0  0  0  0  0  0
    9.6860    1.7936   17.2406 C   0  0  0  0  0  0  0  0  0  0  0  0
   10.6148    1.2741   17.0754 H   0  0  0  0  0  0  0  0  0  0  0  0
    9.0885    2.5309   12.6690 C   0  0  0  0  0  0  0  0  0  0  0  0
    9.4003    3.6156   11.8427 C   0  0  0  0  0  0  0  0  0  0  0  0
    6.2332    3.2922   11.8144 C   0  0  0  0  0  0  0  0  0  0  0  0
    6.5261    2.2523   11.8587 H   0  0  0  0  0  0  0  0  0  0  0  0
    7.2911    3.1082   17.4642 C   0  0  0  0  0  3  0  0  0  0  0  0
    6.3357    3.6107   17.5254 H   0  0  0  0  0  0  0  0  0  0  0  0
    5.8134    6.3699   16.9083 C   0  0  0  0  0  0  0  0  0  0  0  0
    9.0193    2.3328   16.1244 C   0  0  0  0  0  0  0  0  0  0  0  0
    9.8802    2.1483   10.0156 C   0  0  0  0  0  0  0  0  0  0  0  0
   10.1827    2.0011    8.9911 H   0  0  0  0  0  0  0  0  0  0  0  0
    5.4614    5.9221   11.7792 C   0  0  0  0  0  0  0  0  0  0  0  0
    5.1686    6.9566   11.8430 H   0  0  0  0  0  0  0  0  0  0  0  0
    5.9535    6.9883   18.1395 C   0  0  0  0  0  0  0  0  0  0  0  0
    5.0745    7.3382   18.6559 H   0  0  0  0  0  0  0  0  0  0  0  0
    7.8887    2.5973   18.5903 C   0  0  0  0  0  0  0  0  0  0  0  0
    7.4082    2.7102   19.5480 H   0  0  0  0  0  0  0  0  0  0  0  0
    9.1205    1.9383   18.4773 C   0  0  0  0  0  0  0  0  0  0  0  0
    9.6044    1.5399   19.3559 H   0  0  0  0  0  0  0  0  0  0  0  0
    9.7886    3.4312   10.5278 C   0  0  0  0  0  0  0  0  0  0  0  0
   10.0233    4.2896    9.9197 H   0  0  0  0  0  0  0  0  0  0  0  0
  1  2  1  0  0  0  0
  1  8  1  0  0  0  0
  1 12  1  0  0  0  0
  4 35  1  0  0  0  0
  6 17  1  0  0  0  0
  7  1  1  0  0  0  0
  7 11  1  0  0  0  0
  8 18  1  0  0  0  0
  9  8  1  0  0  0  0
 10 26  1  0  0  0  0
 10  1  1  0  0  0  0
 11 36  1  0  0  0  0
 12 33  1  0  0  0  0
 13 19  1  0  0  0  0
 13 39  2  0  0  0  0
 14 13  1  0  0  0  0
 15 16  1  0  0  0  0
 15 21  1  0  0  0  0
 17 15  2  0  0  0  0
 18 17  1  0  0  0  0
 18 35  2  0  0  0  0
 19 31  2  0  0  0  0
 20 19  1  0  0  0  0
 21 22  1  0  0  0  0
 23 25  1  0  0  0  0
 24 23  1  0  0  0  0
 25 29  2  0  0  0  0
 25  5  1  0  0  0  0
 26  9  2  0  0  0  0
 27 45  1  0  0  0  0
 28 27  1  0  0  0  0
 29  7  1  0  0  0  0
 30  3  1  0  0  0  0
 30 29  1  0  0  0  0
 31 32  1  0  0  0  0
 31 10  1  0  0  0  0
 33 34  1  0  0  0  0
 33 43  1  0  0  0  0
 35 41  1  0  0  0  0
 36 12  1  0  0  0  0
 36 27  2  0  0  0  0
 37 47  1  0  0  0  0
 37 23  2  0  0  0  0
 38 37  1  0  0  0  0
 39 40  1  0  0  0  0
 39 26  1  0  0  0  0
 41 42  1  0  0  0  0
 41 21  2  0  0  0  0
 43 44  1  0  0  0  0
 45 43  2  0  0  0  0
 45 46  1  0  0  0  0
 47 30  2  0  0  0  0
 48 47  1  0  0  0  0
M  END
$$$$
