CSD_code = XIWSEC | q = 0 | S = 0 | Stoichiometry = C36H30Cl2SiZr | MND = 12
 OpenBabel04212202123D

 70 76  0  0  1  0  0  0  0  0999 V2000
    5.0295    6.8933    3.1735 Zr  0  0  0  0  0  0  0  0  0  0  0  0
    5.8850    8.9763    2.5404 Cl  0  0  0  0  0  0  0  0  0  0  0  0
    7.1204    6.4336    4.1382 Cl  0  0  0  0  0  0  0  0  0  0  0  0
    2.1700    5.2257    2.4712 Si  0  0  0  0  0  0  0  0  0  0  0  0
    2.6912    6.3515    3.9134 C   0  0  2  0  0  3  0  0  0  0  0  0
    2.7763    7.7685    3.7860 C   0  0  2  0  0  3  0  0  0  0  0  0
    3.6738    8.2720    4.7725 C   0  0  2  0  0  3  0  0  0  0  0  0
    4.2168    7.1404    5.4712 C   0  0  2  0  0  3  0  0  0  0  0  0
    3.6155    5.9641    4.9310 C   0  0  2  0  0  0  0  0  0  0  0  0
    3.8636    5.3809    1.6492 C   0  0  1  0  0  0  0  0  0  0  0  0
    4.2955    6.4779    0.8530 C   0  0  0  0  0  0  0  0  0  0  0  0
    3.6438    7.1309    0.2845 H   0  0  0  0  0  0  0  0  0  0  0  0
    5.7010    6.4167    0.7305 C   0  0  0  0  0  0  0  0  0  0  0  0
    6.3125    7.0520    0.1013 H   0  0  0  0  0  0  0  0  0  0  0  0
    6.1557    5.3129    1.4769 C   0  0  0  0  0  0  0  0  0  0  0  0
    7.1773    4.9575    1.5238 H   0  0  0  0  0  0  0  0  0  0  0  0
    5.0363    4.6943    2.0726 C   0  0  0  0  0  0  0  0  0  0  0  0
    5.0534    3.7594    2.6218 H   0  0  0  0  0  0  0  0  0  0  0  0
    0.7656    5.9288    1.3930 C   0  0  0  0  0  0  0  0  0  0  0  0
    1.0185    6.8805    0.9401 H   0  0  0  0  0  0  0  0  0  0  0  0
   -0.1384    6.0736    1.9740 H   0  0  0  0  0  0  0  0  0  0  0  0
    0.5341    5.2317    0.5947 H   0  0  0  0  0  0  0  0  0  0  0  0
    1.7540    3.4149    2.8882 C   0  0  0  0  0  0  0  0  0  0  0  0
    1.5488    2.8732    1.9708 H   0  0  0  0  0  0  0  0  0  0  0  0
    0.8699    3.3463    3.5118 H   0  0  0  0  0  0  0  0  0  0  0  0
    2.5615    2.9050    3.4007 H   0  0  0  0  0  0  0  0  0  0  0  0
    1.9109    8.5910    2.9189 C   0  0  0  0  0  0  0  0  0  0  0  0
    0.5558    8.7165    3.2101 C   0  0  0  0  0  0  0  0  0  0  0  0
    0.1550    8.2128    4.0772 H   0  0  0  0  0  0  0  0  0  0  0  0
   -0.2659    9.4833    2.4041 C   0  0  0  0  0  0  0  0  0  0  0  0
   -1.3154    9.5778    2.6409 H   0  0  0  0  0  0  0  0  0  0  0  0
    0.2546   10.1313    1.2968 C   0  0  0  0  0  0  0  0  0  0  0  0
   -0.3872   10.7292    0.6674 H   0  0  0  0  0  0  0  0  0  0  0  0
    1.6027   10.0133    1.0001 C   0  0  0  0  0  0  0  0  0  0  0  0
    2.0119   10.5200    0.1384 H   0  0  0  0  0  0  0  0  0  0  0  0
    2.4294    9.2485    1.8044 C   0  0  0  0  0  0  0  0  0  0  0  0
    3.4876    9.1609    1.5732 H   0  0  0  0  0  0  0  0  0  0  0  0
    3.7217    9.6608    5.2624 C   0  0  0  0  0  0  0  0  0  0  0  0
    3.5951    9.8885    6.6354 C   0  0  0  0  0  0  0  0  0  0  0  0
    3.4901    9.0489    7.3068 H   0  0  0  0  0  0  0  0  0  0  0  0
    3.5897   11.1733    7.1417 C   0  0  0  0  0  0  0  0  0  0  0  0
    3.4940   11.3272    8.2066 H   0  0  0  0  0  0  0  0  0  0  0  0
    3.7002   12.2593    6.2894 C   0  0  0  0  0  0  0  0  0  0  0  0
    3.6984   13.2641    6.6855 H   0  0  0  0  0  0  0  0  0  0  0  0
    3.8091   12.0464    4.9263 C   0  0  0  0  0  0  0  0  0  0  0  0
    3.8933   12.8872    4.2536 H   0  0  0  0  0  0  0  0  0  0  0  0
    3.8170   10.7619    4.4131 C   0  0  0  0  0  0  0  0  0  0  0  0
    3.9253   10.6186    3.3502 H   0  0  0  0  0  0  0  0  0  0  0  0
    5.1948    7.2329    6.5615 C   0  0  0  0  0  0  0  0  0  0  0  0
    5.1392    6.3990    7.6768 C   0  0  0  0  0  0  0  0  0  0  0  0
    4.3502    5.6655    7.7579 H   0  0  0  0  0  0  0  0  0  0  0  0
    6.0808    6.5149    8.6833 C   0  0  0  0  0  0  0  0  0  0  0  0
    6.0283    5.8600    9.5408 H   0  0  0  0  0  0  0  0  0  0  0  0
    7.0839    7.4641    8.5955 C   0  0  0  0  0  0  0  0  0  0  0  0
    7.8194    7.5496    9.3814 H   0  0  0  0  0  0  0  0  0  0  0  0
    7.1429    8.3043    7.4941 C   0  0  0  0  0  0  0  0  0  0  0  0
    7.9267    9.0434    7.4202 H   0  0  0  0  0  0  0  0  0  0  0  0
    6.2096    8.1937    6.4831 C   0  0  0  0  0  0  0  0  0  0  0  0
    6.2690    8.8444    5.6149 H   0  0  0  0  0  0  0  0  0  0  0  0
    3.8017    4.5910    5.4265 C   0  0  0  0  0  0  0  0  0  0  0  0
    5.0628    3.9941    5.4664 C   0  0  0  0  0  0  0  0  0  0  0  0
    5.9317    4.5444    5.1226 H   0  0  0  0  0  0  0  0  0  0  0  0
    5.2071    2.7079    5.9554 C   0  0  0  0  0  0  0  0  0  0  0  0
    6.1865    2.2540    5.9804 H   0  0  0  0  0  0  0  0  0  0  0  0
    4.1052    2.0020    6.4119 C   0  0  0  0  0  0  0  0  0  0  0  0
    4.2241    0.9989    6.7929 H   0  0  0  0  0  0  0  0  0  0  0  0
    2.8523    2.5913    6.3841 C   0  0  0  0  0  0  0  0  0  0  0  0
    1.9913    2.0496    6.7472 H   0  0  0  0  0  0  0  0  0  0  0  0
    2.7003    3.8761    5.8959 C   0  0  0  0  0  0  0  0  0  0  0  0
    1.7270    4.3443    5.8836 H   0  0  0  0  0  0  0  0  0  0  0  0
  1  3  1  0  0  0  0
  1  9  1  0  0  0  0
  2  1  1  0  0  0  0
  4 23  1  0  0  0  0
  5  4  1  6  0  0  0
  5  9  1  0  0  0  0
  6 27  1  1  0  0  0
  6  5  1  0  0  0  0
  6  7  1  0  0  0  0
  7 38  1  1  0  0  0
  7  8  1  0  0  0  0
  8 49  1  1  0  0  0
  9 60  1  1  0  0  0
  9  8  1  0  0  0  0
 10 11  1  6  0  0  0
 10 17  1  0  0  0  0
 10  4  1  0  0  0  0
 10  1  1  0  0  0  0
 12 11  1  0  0  0  0
 13 11  2  0  0  0  0
 13 15  1  0  0  0  0
 14 13  1  0  0  0  0
 15 16  1  0  0  0  0
 15 17  2  0  0  0  0
 17 18  1  0  0  0  0
 19 21  1  0  0  0  0
 19  4  1  0  0  0  0
 20 19  1  0  0  0  0
 22 19  1  0  0  0  0
 23 26  1  0  0  0  0
 23 25  1  0  0  0  0
 24 23  1  0  0  0  0
 27 28  1  0  0  0  0
 28 29  1  0  0  0  0
 30 31  1  0  0  0  0
 30 28  2  0  0  0  0
 32 30  1  0  0  0  0
 33 32  1  0  0  0  0
 34 32  2  0  0  0  0
 34 36  1  0  0  0  0
 35 34  1  0  0  0  0
 36 27  2  0  0  0  0
 37 36  1  0  0  0  0
 38 39  1  0  0  0  0
 39 41  2  0  0  0  0
 39 40  1  0  0  0  0
 41 42  1  0  0  0  0
 43 44  1  0  0  0  0
 43 41  1  0  0  0  0
 45 43  2  0  0  0  0
 46 45  1  0  0  0  0
 47 45  1  0  0  0  0
 47 38  2  0  0  0  0
 48 47  1  0  0  0  0
 49 50  1  0  0  0  0
 50 51  1  0  0  0  0
 50 52  2  0  0  0  0
 52 53  1  0  0  0  0
 54 52  1  0  0  0  0
 54 55  1  0  0  0  0
 56 54  2  0  0  0  0
 57 56  1  0  0  0  0
 58 49  2  0  0  0  0
 58 56  1  0  0  0  0
 59 58  1  0  0  0  0
 60 61  2  0  0  0  0
 60 69  1  0  0  0  0
 61 63  1  0  0  0  0
 62 61  1  0  0  0  0
 63 64  1  0  0  0  0
 63 65  2  0  0  0  0
 65 66  1  0  0  0  0
 67 65  1  0  0  0  0
 67 68  1  0  0  0  0
 69 67  2  0  0  0  0
 70 69  1  0  0  0  0
M  END
$$$$
