CSD_code = XIWVIJ | q = 0 | S = 0 | Stoichiometry = C15H25ClN2Ti | MND = 10
 OpenBabel04212202123D

 44 45  0  0  1  0  0  0  0  0999 V2000
    2.2520   -0.3924    9.7824 Ti  0  0  1  0  0  0  0  0  0  0  0  0
    1.8839   -1.1947   11.7933 Cl  0  0  0  0  0  0  0  0  0  0  0  0
    3.7754    0.1434    8.1155 C   0  0  1  0  0  0  0  0  0  0  0  0
    3.5521    0.6614    7.1891 H   0  0  0  0  0  0  0  0  0  0  0  0
    4.2397    0.7430    9.3067 C   0  0  0  0  0  0  0  0  0  0  0  0
    4.4512    1.7973    9.4353 H   0  0  0  0  0  0  0  0  0  0  0  0
    4.5477   -0.2838   10.2194 C   0  0  0  0  0  0  0  0  0  0  0  0
    5.0045   -0.1578   11.1949 H   0  0  0  0  0  0  0  0  0  0  0  0
    4.2834   -1.5204    9.5921 C   0  0  0  0  0  0  0  0  0  0  0  0
    4.5103   -2.4967   10.0054 H   0  0  0  0  0  0  0  0  0  0  0  0
    3.8129   -1.2575    8.2906 C   0  0  0  0  0  0  0  0  0  0  0  0
    3.6355   -1.9894    7.5118 H   0  0  0  0  0  0  0  0  0  0  0  0
   -0.9706   -2.4098    9.6758 C   0  0  0  0  0  0  0  0  0  0  0  0
   -0.6440   -2.1411   10.6814 H   0  0  0  0  0  0  0  0  0  0  0  0
   -1.4702   -3.3750    9.7049 H   0  0  0  0  0  0  0  0  0  0  0  0
   -1.6742   -1.6546    9.3284 H   0  0  0  0  0  0  0  0  0  0  0  0
   -0.1763   -2.8441    7.3199 C   0  0  0  0  0  0  0  0  0  0  0  0
   -1.0357   -2.2651    6.9911 H   0  0  0  0  0  0  0  0  0  0  0  0
   -0.4527   -3.8952    7.3012 H   0  0  0  0  0  0  0  0  0  0  0  0
    0.6445   -2.6877    6.6212 H   0  0  0  0  0  0  0  0  0  0  0  0
    1.2523   -3.4983    9.2603 C   0  0  0  0  0  0  0  0  0  0  0  0
    2.0812   -3.6119    8.5624 H   0  0  0  0  0  0  0  0  0  0  0  0
    0.7576   -4.4617    9.3653 H   0  0  0  0  0  0  0  0  0  0  0  0
    1.6385   -3.1993   10.2364 H   0  0  0  0  0  0  0  0  0  0  0  0
    0.2538   -2.4520    8.7433 C   0  0  0  0  0  0  0  0  0  0  0  0
    0.8822   -1.1450    8.8047 N   0  0  0  0  0  0  0  0  0  0  0  0
    0.4115   -0.0971    8.0673 C   0  0  0  0  0  0  0  0  0  0  0  0
   -0.1390   -0.2445    7.1426 H   0  0  0  0  0  0  0  0  0  0  0  0
    0.6389    1.1465    8.5902 C   0  0  0  0  0  0  0  0  0  0  0  0
    0.2861    2.0514    8.1026 H   0  0  0  0  0  0  0  0  0  0  0  0
    1.2869    1.1838    9.7918 N   0  0  0  0  0  0  0  0  0  0  0  0
    1.1512    2.3468   10.6503 C   0  0  0  0  0  0  0  0  0  0  0  0
    1.4722    3.6549    9.9040 C   0  0  0  0  0  0  0  0  0  0  0  0
    2.4099    3.5538    9.3590 H   0  0  0  0  0  0  0  0  0  0  0  0
    1.5671    4.4714   10.6152 H   0  0  0  0  0  0  0  0  0  0  0  0
    0.6865    3.9140    9.1989 H   0  0  0  0  0  0  0  0  0  0  0  0
   -0.2896    2.3765   11.1891 C   0  0  0  0  0  0  0  0  0  0  0  0
   -0.9973    2.4851   10.3696 H   0  0  0  0  0  0  0  0  0  0  0  0
   -0.4244    3.2012   11.8845 H   0  0  0  0  0  0  0  0  0  0  0  0
   -0.4968    1.4364   11.7005 H   0  0  0  0  0  0  0  0  0  0  0  0
    2.1229    2.1969   11.8291 C   0  0  0  0  0  0  0  0  0  0  0  0
    1.9185    1.2715   12.3681 H   0  0  0  0  0  0  0  0  0  0  0  0
    2.0021    3.0308   12.5178 H   0  0  0  0  0  0  0  0  0  0  0  0
    3.1551    2.1850   11.4778 H   0  0  0  0  0  0  0  0  0  0  0  0
  1 31  1  0  0  0  0
  1  2  1  1  0  0  0
  3  4  1  6  0  0  0
  3 11  1  0  0  0  0
  3  5  1  0  0  0  0
  3  1  1  0  0  0  0
  5  6  1  0  0  0  0
  5  7  2  0  0  0  0
  7  8  1  0  0  0  0
  9 10  1  0  0  0  0
  9  7  1  0  0  0  0
 11  9  2  0  0  0  0
 12 11  1  0  0  0  0
 13 15  1  0  0  0  0
 13 14  1  0  0  0  0
 16 13  1  0  0  0  0
 17 25  1  0  0  0  0
 18 17  1  0  0  0  0
 19 17  1  0  0  0  0
 20 17  1  0  0  0  0
 21 23  1  0  0  0  0
 21 24  1  0  0  0  0
 22 21  1  0  0  0  0
 25 26  1  0  0  0  0
 25 21  1  0  0  0  0
 25 13  1  0  0  0  0
 26  1  1  0  0  0  0
 27 29  2  0  0  0  0
 27 26  1  0  0  0  0
 28 27  1  0  0  0  0
 29 31  1  0  0  0  0
 30 29  1  0  0  0  0
 31 32  1  0  0  0  0
 32 37  1  0  0  0  0
 32 41  1  0  0  0  0
 33 35  1  0  0  0  0
 33 32  1  0  0  0  0
 34 33  1  0  0  0  0
 36 33  1  0  0  0  0
 37 40  1  0  0  0  0
 37 39  1  0  0  0  0
 38 37  1  0  0  0  0
 41 42  1  0  0  0  0
 41 43  1  0  0  0  0
 44 41  1  0  0  0  0
M  END
$$$$
