CSD_code = XIXCUE | q = 0 | S = 0 | Stoichiometry = C13H22BCl2N2Sc | MND = 9
 OpenBabel04212202123D

 41 42  0  0  1  0  0  0  0  0999 V2000
    2.4685   10.2738   20.5483 Sc  0  0  0  0  0  0  0  0  0  0  0  0
    3.0732    8.9767   22.3130 Cl  0  0  0  0  0  0  0  0  0  0  0  0
    2.6075    8.8436   18.7897 Cl  0  0  0  0  0  0  0  0  0  0  0  0
    4.1016   11.6172   20.3302 N   0  0  0  0  0  0  0  0  0  0  0  0
    2.8181   13.4858   20.4809 N   0  0  0  0  0  0  0  0  0  0  0  0
    1.6308   12.5404   20.6099 B   0  0  1  0  0  0  0  0  0  0  0  0
    0.9587   11.9347   19.3956 C   0  0  0  0  0  3  0  0  0  0  0  0
    1.1074   12.2850   18.3768 H   0  0  0  0  0  0  0  0  0  0  0  0
   -0.0028   10.9344   19.5713 C   0  0  0  0  0  0  0  0  0  0  0  0
   -0.5489   10.5501   18.7137 H   0  0  0  0  0  0  0  0  0  0  0  0
   -0.3376   10.4444   20.8417 C   0  0  0  0  0  0  0  0  0  0  0  0
   -1.1199    9.6990   20.9328 H   0  0  0  0  0  0  0  0  0  0  0  0
    0.2525   10.9635   22.0026 C   0  0  0  0  0  0  0  0  0  0  0  0
   -0.1026   10.6018   22.9642 H   0  0  0  0  0  0  0  0  0  0  0  0
    1.2263   11.9668   21.9517 C   0  0  0  0  0  0  0  0  0  0  0  0
    1.5843   12.3368   22.9098 H   0  0  0  0  0  0  0  0  0  0  0  0
    4.0315   12.9318   20.4020 C   0  0  2  0  0  3  0  0  0  0  0  0
    5.2258   13.8537   20.3848 C   0  0  0  0  0  0  0  0  0  0  0  0
    5.2867   14.3610   19.4224 H   0  0  0  0  0  0  0  0  0  0  0  0
    6.1475   13.3135   20.5466 H   0  0  0  0  0  0  0  0  0  0  0  0
    5.1330   14.6012   21.1689 H   0  0  0  0  0  0  0  0  0  0  0  0
    5.3621   10.8485   20.1792 C   0  0  0  0  0  0  0  0  0  0  0  0
    5.0229    9.8053   20.0104 H   0  0  0  0  0  0  0  0  0  0  0  0
    6.1856   10.8149   21.4732 C   0  0  0  0  0  0  0  0  0  0  0  0
    6.5842   11.7871   21.7507 H   0  0  0  0  0  0  0  0  0  0  0  0
    7.0169   10.1254   21.3488 H   0  0  0  0  0  0  0  0  0  0  0  0
    5.5546   10.4522   22.2855 H   0  0  0  0  0  0  0  0  0  0  0  0
    6.1757   11.2238   18.9329 C   0  0  0  0  0  0  0  0  0  0  0  0
    5.4969   11.3891   18.0974 H   0  0  0  0  0  0  0  0  0  0  0  0
    6.8301   10.3936   18.6784 H   0  0  0  0  0  0  0  0  0  0  0  0
    6.7943   12.1059   19.0685 H   0  0  0  0  0  0  0  0  0  0  0  0
    2.5840   14.9220   20.5661 C   0  0  0  0  0  0  0  0  0  0  0  0
    3.4293   15.4599   20.1277 H   0  0  0  0  0  0  0  0  0  0  0  0
    2.4179   15.3452   22.0284 C   0  0  0  0  0  0  0  0  0  0  0  0
    1.5280   14.8825   22.4453 H   0  0  0  0  0  0  0  0  0  0  0  0
    2.3156   16.4251   22.0965 H   0  0  0  0  0  0  0  0  0  0  0  0
    3.2755   15.0386   22.6230 H   0  0  0  0  0  0  0  0  0  0  0  0
    1.3370   15.2886   19.7642 C   0  0  0  0  0  0  0  0  0  0  0  0
    1.4467   14.9778   18.7291 H   0  0  0  0  0  0  0  0  0  0  0  0
    1.1882   16.3650   19.7911 H   0  0  0  0  0  0  0  0  0  0  0  0
    0.4609   14.8005   20.1810 H   0  0  0  0  0  0  0  0  0  0  0  0
  1  6  1  0  0  0  0
  1  2  1  0  0  0  0
  3  1  1  0  0  0  0
  4 17  1  0  0  0  0
  4  1  1  0  0  0  0
  5 32  1  0  0  0  0
  5  6  1  0  0  0  0
  6  7  1  6  0  0  0
  6 15  1  0  0  0  0
  7  9  1  0  0  0  0
  8  7  1  0  0  0  0
  9 11  2  0  0  0  0
 10  9  1  0  0  0  0
 11 12  1  0  0  0  0
 11 13  1  0  0  0  0
 13 14  1  0  0  0  0
 15 13  2  0  0  0  0
 15 16  1  0  0  0  0
 17 18  1  6  0  0  0
 17  5  1  0  0  0  0
 18 20  1  0  0  0  0
 18 21  1  0  0  0  0
 19 18  1  0  0  0  0
 22  4  1  0  0  0  0
 22 24  1  0  0  0  0
 23 22  1  0  0  0  0
 24 25  1  0  0  0  0
 24 27  1  0  0  0  0
 26 24  1  0  0  0  0
 28 31  1  0  0  0  0
 28 22  1  0  0  0  0
 29 28  1  0  0  0  0
 30 28  1  0  0  0  0
 32 34  1  0  0  0  0
 33 32  1  0  0  0  0
 34 36  1  0  0  0  0
 34 35  1  0  0  0  0
 34 37  1  0  0  0  0
 38 40  1  0  0  0  0
 38 41  1  0  0  0  0
 38 32  1  0  0  0  0
 39 38  1  0  0  0  0
M  END
$$$$
