CSD_code = XIXFEQ | q = 0 | S = 0 | Stoichiometry = C23H16BrN4O3ReS4 | MND = 6
 OpenBabel04212202123D

 52 55  0  0  1  0  0  0  0  0999 V2000
    9.8822    5.3777   13.6635 Re  0  0  0  0  0  0  0  0  0  0  0  0
   11.1710    5.0873   11.4957 Br  0  0  0  0  0  0  0  0  0  0  0  0
    5.0332    6.6317   14.6603 S   0  0  0  0  0  0  0  0  0  0  0  0
    5.4258    3.8029   15.3829 S   0  0  0  0  0  0  0  0  0  0  0  0
    3.6712    7.3234   17.2603 S   0  0  0  0  0  0  0  0  0  0  0  0
    4.0983    4.1532   18.0968 S   0  0  0  0  0  0  0  0  0  0  0  0
   11.9318    3.5785   15.1258 O   0  0  0  0  0  1  0  0  0  0  0  0
   11.5030    7.9429   14.2749 O   0  0  0  0  0  1  0  0  0  0  0  0
    8.1277    5.6686   16.1859 O   0  0  0  0  0  1  0  0  0  0  0  0
    8.6945    3.6221   12.9759 N   0  0  0  0  0  0  0  0  0  0  0  0
    8.3984    6.4789   12.4173 N   0  0  0  0  0  0  0  0  0  0  0  0
    6.6705    5.8360   20.0159 N   0  0  0  0  0  0  0  0  0  0  0  0
    5.7838    9.8830   15.3597 N   0  0  0  0  0  0  0  0  0  0  0  0
   11.1713    4.2678   14.6160 C   0  0  0  0  0  2  0  0  0  0  0  0
   10.8986    6.9890   14.0892 C   0  0  0  0  0  2  0  0  0  0  0  0
    8.7631    5.5650   15.2232 C   0  0  0  0  0  2  0  0  0  0  0  0
    9.2751    2.4780   12.6186 C   0  0  0  0  0  3  0  0  0  0  0  0
   10.3576    2.4649   12.6064 H   0  0  0  0  0  0  0  0  0  0  0  0
    8.5615    1.3474   12.2684 C   0  0  0  0  0  0  0  0  0  0  0  0
    9.0858    0.4490   11.9868 H   0  0  0  0  0  0  0  0  0  0  0  0
    7.1761    1.3983   12.2902 C   0  0  0  0  0  0  0  0  0  0  0  0
    6.5835    0.5354   12.0283 H   0  0  0  0  0  0  0  0  0  0  0  0
    6.5670    2.5885   12.6404 C   0  0  0  0  0  0  0  0  0  0  0  0
    5.4927    2.6868   12.6458 H   0  0  0  0  0  0  0  0  0  0  0  0
    7.3567    3.6867   12.9707 C   0  0  0  0  0  0  0  0  0  0  0  0
    6.7234    4.9786   13.2863 C   0  0  0  0  0  0  0  0  0  0  0  0
    7.1044    6.1383   12.4552 C   0  0  2  0  0  3  0  0  0  0  0  0
    6.1362    6.8331   11.7380 C   0  0  0  0  0  0  0  0  0  0  0  0
    5.1063    6.5170   11.7896 H   0  0  0  0  0  0  0  0  0  0  0  0
    6.5158    7.9115   10.9605 C   0  0  0  0  0  0  0  0  0  0  0  0
    5.7808    8.4692   10.4015 H   0  0  0  0  0  0  0  0  0  0  0  0
    7.8588    8.2493   10.9119 C   0  0  0  0  0  0  0  0  0  0  0  0
    8.2090    9.0751   10.3150 H   0  0  0  0  0  0  0  0  0  0  0  0
    8.7596    7.5063   11.6514 C   0  0  0  0  0  0  0  0  0  0  0  0
    9.8151    7.7459   11.6236 H   0  0  0  0  0  0  0  0  0  0  0  0
    5.8043    5.1073   14.2679 C   0  0  0  0  0  0  0  0  0  0  0  0
    4.6532    4.8377   16.5878 C   0  0  0  0  0  0  0  0  0  0  0  0
    4.4912    6.1303   16.2614 C   0  0  0  0  0  0  0  0  0  0  0  0
    5.0688    8.0447   18.2143 C   0  0  0  0  0  0  0  0  0  0  0  0
    5.3263    7.3462   19.0109 H   0  0  0  0  0  0  0  0  0  0  0  0
    4.6325    8.9469   18.6423 H   0  0  0  0  0  0  0  0  0  0  0  0
    6.3080    8.3686   17.3870 C   0  0  0  0  0  0  0  0  0  0  0  0
    6.7759    7.4508   17.0168 H   0  0  0  0  0  0  0  0  0  0  0  0
    7.0340    8.8724   18.0322 H   0  0  0  0  0  0  0  0  0  0  0  0
    6.0208    9.2225   16.2618 C   0  0  0  0  0  0  0  0  0  0  0  0
    5.4708    2.9986   18.4839 C   0  0  0  0  0  0  0  0  0  0  0  0
    5.4902    2.2158   17.7257 H   0  0  0  0  0  0  0  0  0  0  0  0
    5.1759    2.5707   19.4420 H   0  0  0  0  0  0  0  0  0  0  0  0
    6.8283    3.6918   18.5849 C   0  0  0  0  0  0  0  0  0  0  0  0
    7.1864    3.9944   17.5958 H   0  0  0  0  0  0  0  0  0  0  0  0
    7.5615    3.0038   19.0153 H   0  0  0  0  0  0  0  0  0  0  0  0
    6.7570    4.8769   19.4008 C   0  0  0  0  0  0  0  0  0  0  0  0
  1 15  1  0  0  0  0
  1 14  1  0  0  0  0
  1 16  1  0  0  0  0
  2  1  1  0  0  0  0
  3 38  1  0  0  0  0
  4 37  1  0  0  0  0
  5 39  1  0  0  0  0
  6 46  1  0  0  0  0
 10  1  1  0  0  0  0
 11 27  1  0  0  0  0
 11  1  1  0  0  0  0
 13 45  3  0  0  0  0
 14  7  1  0  0  0  0
 15  8  1  0  0  0  0
 16  9  1  0  0  0  0
 17 10  1  0  0  0  0
 18 17  1  0  0  0  0
 19 21  2  0  0  0  0
 19 17  1  0  0  0  0
 20 19  1  0  0  0  0
 21 23  1  0  0  0  0
 22 21  1  0  0  0  0
 23 24  1  0  0  0  0
 23 25  2  0  0  0  0
 25 10  1  0  0  0  0
 25 26  1  0  0  0  0
 26 36  2  0  0  0  0
 27 28  1  6  0  0  0
 27 26  1  0  0  0  0
 28 29  1  0  0  0  0
 30 28  2  0  0  0  0
 31 30  1  0  0  0  0
 32 30  1  0  0  0  0
 32 34  2  0  0  0  0
 33 32  1  0  0  0  0
 34 11  1  0  0  0  0
 35 34  1  0  0  0  0
 36  3  1  0  0  0  0
 36  4  1  0  0  0  0
 37  6  1  0  0  0  0
 38 37  2  0  0  0  0
 38  5  1  0  0  0  0
 39 41  1  0  0  0  0
 39 40  1  0  0  0  0
 42 44  1  0  0  0  0
 42 39  1  0  0  0  0
 43 42  1  0  0  0  0
 45 42  1  0  0  0  0
 46 49  1  0  0  0  0
 46 48  1  0  0  0  0
 47 46  1  0  0  0  0
 49 51  1  0  0  0  0
 49 52  1  0  0  0  0
 50 49  1  0  0  0  0
 52 12  3  0  0  0  0
M  END
$$$$
