CSD_code = XIXVOP | q = 0 | S = 0 | Stoichiometry = C15H43Cl3HfN2Si4 | MND = 6
 OpenBabel04212202123D

 68 68  0  0  0  0  0  0  0  0999 V2000
    7.8365    3.1208    9.1713 Hf  0  0  0  0  0  0  0  0  0  0  0  0
    9.4096    4.8953    9.1765 Cl  0  0  0  0  0  0  0  0  0  0  0  0
    6.1318    4.5500    8.4689 Cl  0  0  0  0  0  0  0  0  0  0  0  0
    6.3794    1.2634    8.8781 Cl  0  0  0  0  0  0  0  0  0  0  0  0
    7.4088    3.3649   11.7667 Si  0  0  0  0  0  0  0  0  0  0  0  0
    9.4109    3.3579   13.1642 Si  0  0  0  0  0  0  0  0  0  0  0  0
    5.9368    1.6695   12.6653 Si  0  0  0  0  0  0  0  0  0  0  0  0
    6.3616    5.5077   12.2548 Si  0  0  0  0  0  0  0  0  0  0  0  0
    8.3649    2.9862    6.7220 N   0  0  0  0  0  4  0  0  0  0  0  0
    9.5801    1.5762    9.0945 N   0  0  0  0  0  4  0  0  0  0  0  0
   10.8915    4.3764   12.4815 C   0  0  0  0  0  0  0  0  0  0  0  0
   11.0500    5.2685   13.0794 H   0  0  0  0  0  0  0  0  0  0  0  0
   10.7125    4.7102   11.4647 H   0  0  0  0  0  0  0  0  0  0  0  0
   11.8244    3.8185   12.4859 H   0  0  0  0  0  0  0  0  0  0  0  0
   10.0924    1.5836   13.5055 C   0  0  0  0  0  0  0  0  0  0  0  0
   10.6630    1.5666   14.4294 H   0  0  0  0  0  0  0  0  0  0  0  0
   10.7525    1.2192   12.7233 H   0  0  0  0  0  0  0  0  0  0  0  0
    9.2842    0.8678   13.6184 H   0  0  0  0  0  0  0  0  0  0  0  0
    9.0813    4.0627   14.9121 C   0  0  0  0  0  0  0  0  0  0  0  0
    8.2702    3.5371   15.4041 H   0  0  0  0  0  0  0  0  0  0  0  0
    8.8157    5.1137   14.8676 H   0  0  0  0  0  0  0  0  0  0  0  0
    9.9590    3.9766   15.5478 H   0  0  0  0  0  0  0  0  0  0  0  0
    6.3688   -0.1455   12.2175 C   0  0  0  0  0  0  0  0  0  0  0  0
    7.3792   -0.4118   12.5137 H   0  0  0  0  0  0  0  0  0  0  0  0
    6.2794   -0.3107   11.1497 H   0  0  0  0  0  0  0  0  0  0  0  0
    5.6945   -0.8410   12.7103 H   0  0  0  0  0  0  0  0  0  0  0  0
    5.8972    1.7088   14.5779 C   0  0  0  0  0  0  0  0  0  0  0  0
    5.1469    1.0323   14.9765 H   0  0  0  0  0  0  0  0  0  0  0  0
    5.6703    2.7019   14.9473 H   0  0  0  0  0  0  0  0  0  0  0  0
    6.8548    1.4146   14.9945 H   0  0  0  0  0  0  0  0  0  0  0  0
    4.1640    1.9938   12.0305 C   0  0  0  0  0  0  0  0  0  0  0  0
    4.1634    2.0847   10.9484 H   0  0  0  0  0  0  0  0  0  0  0  0
    3.7612    2.9163   12.4370 H   0  0  0  0  0  0  0  0  0  0  0  0
    3.4775    1.1924   12.2891 H   0  0  0  0  0  0  0  0  0  0  0  0
    7.6802    6.8741   12.0143 C   0  0  0  0  0  0  0  0  0  0  0  0
    7.2611    7.8697   12.1309 H   0  0  0  0  0  0  0  0  0  0  0  0
    8.1109    6.8174   11.0192 H   0  0  0  0  0  0  0  0  0  0  0  0
    8.4942    6.7731   12.7253 H   0  0  0  0  0  0  0  0  0  0  0  0
    4.8208    5.9880   11.2266 C   0  0  0  0  0  0  0  0  0  0  0  0
    4.2941    6.8307   11.6693 H   0  0  0  0  0  0  0  0  0  0  0  0
    4.1181    5.1626   11.1586 H   0  0  0  0  0  0  0  0  0  0  0  0
    5.0893    6.2636   10.2130 H   0  0  0  0  0  0  0  0  0  0  0  0
    5.7398    5.5991   14.0679 C   0  0  0  0  0  0  0  0  0  0  0  0
    5.4561    6.6141   14.3308 H   0  0  0  0  0  0  0  0  0  0  0  0
    6.4922    5.2780   14.7774 H   0  0  0  0  0  0  0  0  0  0  0  0
    4.8656    4.9719   14.2099 H   0  0  0  0  0  0  0  0  0  0  0  0
    7.2784    2.3262    5.9912 C   0  0  0  0  0  0  0  0  0  0  0  0
    6.3620    2.9021    6.1254 H   0  0  0  0  0  0  0  0  0  0  0  0
    7.1024    1.3226    6.3731 H   0  0  0  0  0  0  0  0  0  0  0  0
    7.5069    2.2640    4.9187 H   0  0  0  0  0  0  0  0  0  0  0  0
    8.5812    4.3001    6.1075 C   0  0  0  0  0  0  0  0  0  0  0  0
    9.3758    4.8344    6.6265 H   0  0  0  0  0  0  0  0  0  0  0  0
    7.6663    4.8863    6.1932 H   0  0  0  0  0  0  0  0  0  0  0  0
    8.8457    4.2037    5.0465 H   0  0  0  0  0  0  0  0  0  0  0  0
    9.5958    2.1887    6.6651 C   0  0  0  0  0  0  0  0  0  0  0  0
   10.4453    2.8540    6.8426 H   0  0  0  0  0  0  0  0  0  0  0  0
    9.7252    1.7388    5.6683 H   0  0  0  0  0  0  0  0  0  0  0  0
    9.5919    1.0698    7.7109 C   0  0  0  0  0  0  0  0  0  0  0  0
    8.6963    0.4559    7.5794 H   0  0  0  0  0  0  0  0  0  0  0  0
   10.4722    0.4289    7.5495 H   0  0  0  0  0  0  0  0  0  0  0  0
   10.8932    2.1165    9.4595 C   0  0  0  0  0  0  0  0  0  0  0  0
   11.6782    1.3617    9.3254 H   0  0  0  0  0  0  0  0  0  0  0  0
   10.8753    2.4291   10.5020 H   0  0  0  0  0  0  0  0  0  0  0  0
   11.1343    2.9933    8.8632 H   0  0  0  0  0  0  0  0  0  0  0  0
    9.2853    0.4598   10.0019 C   0  0  0  0  0  0  0  0  0  0  0  0
   10.0492   -0.3229    9.9176 H   0  0  0  0  0  0  0  0  0  0  0  0
    8.3132    0.0334    9.7601 H   0  0  0  0  0  0  0  0  0  0  0  0
    9.2592    0.8210   11.0290 H   0  0  0  0  0  0  0  0  0  0  0  0
  1  2  1  0  0  0  0
  1  5  1  0  0  0  0
  3  1  1  0  0  0  0
  4  1  1  0  0  0  0
  5  8  1  0  0  0  0
  5  7  1  0  0  0  0
  5  6  1  0  0  0  0
  6 15  1  0  0  0  0
  6 19  1  0  0  0  0
  7 27  1  0  0  0  0
  8 43  1  0  0  0  0
  9  1  1  0  0  0  0
 10  1  1  0  0  0  0
 10 61  1  0  0  0  0
 10 65  1  0  0  0  0
 11 14  1  0  0  0  0
 11 12  1  0  0  0  0
 11  6  1  0  0  0  0
 13 11  1  0  0  0  0
 15 18  1  0  0  0  0
 15 16  1  0  0  0  0
 17 15  1  0  0  0  0
 19 20  1  0  0  0  0
 19 22  1  0  0  0  0
 21 19  1  0  0  0  0
 23 24  1  0  0  0  0
 23  7  1  0  0  0  0
 23 26  1  0  0  0  0
 25 23  1  0  0  0  0
 27 29  1  0  0  0  0
 27 28  1  0  0  0  0
 27 30  1  0  0  0  0
 31 34  1  0  0  0  0
 31 33  1  0  0  0  0
 31  7  1  0  0  0  0
 32 31  1  0  0  0  0
 35 36  1  0  0  0  0
 35  8  1  0  0  0  0
 35 38  1  0  0  0  0
 37 35  1  0  0  0  0
 39 40  1  0  0  0  0
 39  8  1  0  0  0  0
 41 39  1  0  0  0  0
 42 39  1  0  0  0  0
 43 46  1  0  0  0  0
 43 44  1  0  0  0  0
 43 45  1  0  0  0  0
 47 48  1  0  0  0  0
 47 49  1  0  0  0  0
 47  9  1  0  0  0  0
 50 47  1  0  0  0  0
 51 53  1  0  0  0  0
 51 52  1  0  0  0  0
 51  9  1  0  0  0  0
 54 51  1  0  0  0  0
 55  9  1  0  0  0  0
 55 56  1  0  0  0  0
 55 58  1  0  0  0  0
 57 55  1  0  0  0  0
 58 10  1  0  0  0  0
 59 58  1  0  0  0  0
 60 58  1  0  0  0  0
 61 63  1  0  0  0  0
 62 61  1  0  0  0  0
 64 61  1  0  0  0  0
 65 68  1  0  0  0  0
 66 65  1  0  0  0  0
 67 65  1  0  0  0  0
M  END
$$$$
