CSD_code = XIXVUV | q = 0 | S = 0 | Stoichiometry = C6H16Cl4HfN2 | MND = 6
 OpenBabel04212202123D

 29 29  0  0  0  0  0  0  0  0999 V2000
    1.9672   -1.3569    8.7284 Hf  0  0  0  0  0  0  0  0  0  0  0  0
    3.4823   -3.0992    8.4811 Cl  0  0  0  0  0  0  0  0  0  0  0  0
    1.0706   -2.3271   10.7107 Cl  0  0  0  0  0  0  0  0  0  0  0  0
    0.2088   -2.2482    7.5027 Cl  0  0  0  0  0  0  0  0  0  0  0  0
    2.8747   -0.2991    6.7972 Cl  0  0  0  0  0  0  0  0  0  0  0  0
    3.4387   -0.2586   10.0649 N   0  0  0  0  0  4  0  0  0  0  0  0
    0.7697    0.5418    9.0727 N   0  0  0  0  0  4  0  0  0  0  0  0
    4.5884    0.2549    9.3089 C   0  0  0  0  0  0  0  0  0  0  0  0
    5.2977    0.7574    9.9773 H   0  0  0  0  0  0  0  0  0  0  0  0
    4.2725    0.9468    8.5308 H   0  0  0  0  0  0  0  0  0  0  0  0
    5.0885   -0.5838    8.8215 H   0  0  0  0  0  0  0  0  0  0  0  0
    3.9663   -1.1410   11.1171 C   0  0  0  0  0  0  0  0  0  0  0  0
    4.4945   -1.9723   10.6482 H   0  0  0  0  0  0  0  0  0  0  0  0
    3.1491   -1.5501   11.7103 H   0  0  0  0  0  0  0  0  0  0  0  0
    4.6559   -0.5958   11.7710 H   0  0  0  0  0  0  0  0  0  0  0  0
    2.6559    0.8342   10.6641 C   0  0  0  0  0  0  0  0  0  0  0  0
    2.0526    0.4069   11.4708 H   0  0  0  0  0  0  0  0  0  0  0  0
    3.3217    1.5943   11.0979 H   0  0  0  0  0  0  0  0  0  0  0  0
    1.7358    1.4996    9.6343 C   0  0  0  0  0  0  0  0  0  0  0  0
    2.3356    1.8906    8.8069 H   0  0  0  0  0  0  0  0  0  0  0  0
    1.2133    2.3429   10.1085 H   0  0  0  0  0  0  0  0  0  0  0  0
    0.2151    1.0595    7.8125 C   0  0  0  0  0  0  0  0  0  0  0  0
   -0.3392    1.9888    7.9852 H   0  0  0  0  0  0  0  0  0  0  0  0
   -0.4570    0.3117    7.3894 H   0  0  0  0  0  0  0  0  0  0  0  0
    1.0150    1.2407    7.0951 H   0  0  0  0  0  0  0  0  0  0  0  0
   -0.3583    0.3173    9.9863 C   0  0  0  0  0  0  0  0  0  0  0  0
   -0.0156   -0.0279   10.9596 H   0  0  0  0  0  0  0  0  0  0  0  0
   -0.9982   -0.4607    9.5663 H   0  0  0  0  0  0  0  0  0  0  0  0
   -0.9436    1.2360   10.1112 H   0  0  0  0  0  0  0  0  0  0  0  0
  1  7  1  0  0  0  0
  1  6  1  0  0  0  0
  1  3  1  0  0  0  0
  2  1  1  0  0  0  0
  4  1  1  0  0  0  0
  5  1  1  0  0  0  0
  6 16  1  0  0  0  0
  6 12  1  0  0  0  0
  7 19  1  0  0  0  0
  7 26  1  0  0  0  0
  8  9  1  0  0  0  0
  8  6  1  0  0  0  0
 10  8  1  0  0  0  0
 11  8  1  0  0  0  0
 12 14  1  0  0  0  0
 12 15  1  0  0  0  0
 13 12  1  0  0  0  0
 16 18  1  0  0  0  0
 16 17  1  0  0  0  0
 19 21  1  0  0  0  0
 19 16  1  0  0  0  0
 20 19  1  0  0  0  0
 22 23  1  0  0  0  0
 22  7  1  0  0  0  0
 24 22  1  0  0  0  0
 25 22  1  0  0  0  0
 26 29  1  0  0  0  0
 26 27  1  0  0  0  0
 28 26  1  0  0  0  0
M  END
$$$$
