CSD_code = XIYCEO | q = 0 | S = 0 | Stoichiometry = C24H24Cl2HgN4O9 | MND = 5
 OpenBabel04212202123D

 64 65  0  0  0  0  0  0  0  0999 V2000
    4.1977    1.8764    3.3863 Hg  0  0  0  0  0  0  0  0  0  0  0  0
    5.6279    3.4923    2.6225 Cl  0  0  0  0  0  0  0  0  0  0  0  0
    3.0357   -0.0246    3.9150 Cl  0  0  0  0  0  0  0  0  0  0  0  0
    5.0526    2.3078    6.0126 O   0  0  0  0  0  0  0  0  0  0  0  0
    8.4001   -1.3838    9.7535 O   0  0  0  0  0  0  0  0  0  0  0  0
    8.8145   -2.2726    7.8412 O   0  0  0  0  0  0  0  0  0  0  0  0
    2.0126    2.9916    2.1118 O   0  0  0  0  0  0  0  0  0  0  0  0
    0.6815   -0.3930   -2.9100 O   0  0  0  0  0  0  0  0  0  0  0  0
   -1.2329    0.5349   -2.6061 O   0  0  0  0  0  0  0  0  0  0  0  0
   -0.1529    4.3122    5.7294 O   0  0  0  0  0  0  0  0  0  0  0  0
   -4.8560    8.0915    7.1255 O   0  0  0  0  0  0  0  0  0  0  0  0
   -4.1775    7.6470    9.1161 O   0  0  0  0  0  0  0  0  0  0  0  0
    2.7445    3.5718    4.8522 N   0  0  0  0  0  0  0  0  0  0  0  0
    8.2804   -1.4462    8.5482 N   0  0  0  0  0  0  0  0  0  0  0  0
   -0.0730    0.3408   -2.3090 N   0  0  0  0  0  0  0  0  0  0  0  0
   -4.1148    7.5382    7.9096 N   0  0  0  0  0  0  0  0  0  0  0  0
    3.7148    4.2678    5.7057 C   0  0  0  0  0  0  0  0  0  0  0  0
    3.2469    5.0947    6.2608 H   0  0  0  0  0  0  0  0  0  0  0  0
    4.4728    4.6908    5.0413 H   0  0  0  0  0  0  0  0  0  0  0  0
    4.4310    3.3698    6.7115 C   0  0  0  0  0  0  0  0  0  0  0  0
    5.1905    3.9754    7.2235 H   0  0  0  0  0  0  0  0  0  0  0  0
    3.7335    2.9714    7.4599 H   0  0  0  0  0  0  0  0  0  0  0  0
    5.8256    1.4290    6.6993 C   0  0  0  0  0  0  0  0  0  0  0  0
    6.0194    1.4584    8.0806 C   0  0  0  0  0  0  0  0  0  0  0  0
    5.5505    2.2083    8.6963 H   0  0  0  0  0  0  0  0  0  0  0  0
    6.8257    0.5118    8.6815 C   0  0  0  0  0  0  0  0  0  0  0  0
    6.9859    0.5186    9.7489 H   0  0  0  0  0  0  0  0  0  0  0  0
    7.4416   -0.4648    7.9119 C   0  0  0  0  0  0  0  0  0  0  0  0
    7.2573   -0.5026    6.5319 C   0  0  0  0  0  0  0  0  0  0  0  0
    7.7475   -1.2711    5.9543 H   0  0  0  0  0  0  0  0  0  0  0  0
    6.4558    0.4406    5.9354 C   0  0  0  0  0  0  0  0  0  0  0  0
    6.2981    0.4373    4.8629 H   0  0  0  0  0  0  0  0  0  0  0  0
    2.1848    4.5524    3.9133 C   0  0  0  0  0  0  0  0  0  0  0  0
    3.0290    5.0205    3.4003 H   0  0  0  0  0  0  0  0  0  0  0  0
    1.6169    5.3297    4.4417 H   0  0  0  0  0  0  0  0  0  0  0  0
    1.2729    3.9492    2.8497 C   0  0  0  0  0  0  0  0  0  0  0  0
    0.3897    3.4874    3.3052 H   0  0  0  0  0  0  0  0  0  0  0  0
    0.9475    4.7595    2.1841 H   0  0  0  0  0  0  0  0  0  0  0  0
    1.4330    2.3804    1.0495 C   0  0  0  0  0  0  0  0  0  0  0  0
    0.1092    2.5699    0.6518 C   0  0  0  0  0  0  0  0  0  0  0  0
   -0.5466    3.2327    1.1919 H   0  0  0  0  0  0  0  0  0  0  0  0
   -0.3800    1.8960   -0.4497 C   0  0  0  0  0  0  0  0  0  0  0  0
   -1.4021    2.0282   -0.7708 H   0  0  0  0  0  0  0  0  0  0  0  0
    0.4446    1.0348   -1.1600 C   0  0  0  0  0  0  0  0  0  0  0  0
    1.7683    0.8387   -0.7733 C   0  0  0  0  0  0  0  0  0  0  0  0
    2.3904    0.1648   -1.3418 H   0  0  0  0  0  0  0  0  0  0  0  0
    2.2537    1.5106    0.3224 C   0  0  0  0  0  0  0  0  0  0  0  0
    3.2826    1.3831    0.6407 H   0  0  0  0  0  0  0  0  0  0  0  0
    1.7295    2.8216    5.5928 C   0  0  0  0  0  0  0  0  0  0  0  0
    1.1141    2.2824    4.8723 H   0  0  0  0  0  0  0  0  0  0  0  0
    2.2397    2.0633    6.1870 H   0  0  0  0  0  0  0  0  0  0  0  0
    0.8005    3.6202    6.5176 C   0  0  0  0  0  0  0  0  0  0  0  0
    0.2887    2.9121    7.1815 H   0  0  0  0  0  0  0  0  0  0  0  0
    1.3668    4.3306    7.1329 H   0  0  0  0  0  0  0  0  0  0  0  0
   -1.0931    5.0702    6.3383 C   0  0  0  0  0  0  0  0  0  0  0  0
   -1.9772    5.7385    5.4810 C   0  0  0  0  0  0  0  0  0  0  0  0
   -1.8604    5.6039    4.4177 H   0  0  0  0  0  0  0  0  0  0  0  0
   -2.9672    6.5436    5.9901 C   0  0  0  0  0  0  0  0  0  0  0  0
   -3.6561    7.0644    5.3433 H   0  0  0  0  0  0  0  0  0  0  0  0
   -3.0851    6.6930    7.3698 C   0  0  0  0  0  0  0  0  0  0  0  0
   -2.2166    6.0347    8.2296 C   0  0  0  0  0  0  0  0  0  0  0  0
   -2.3318    6.1654    9.2947 H   0  0  0  0  0  0  0  0  0  0  0  0
   -1.2221    5.2253    7.7189 C   0  0  0  0  0  0  0  0  0  0  0  0
   -0.5588    4.7191    8.4012 H   0  0  0  0  0  0  0  0  0  0  0  0
  1  3  1  0  0  0  0
  2  1  1  0  0  0  0
  4 23  1  0  0  0  0
  4 20  1  0  0  0  0
  6 14  2  0  0  0  0
  7 36  1  0  0  0  0
  8 15  2  0  0  0  0
  9 15  2  0  0  0  0
 10 55  1  0  0  0  0
 10 52  1  0  0  0  0
 11 16  2  0  0  0  0
 13 49  1  0  0  0  0
 13 17  1  0  0  0  0
 14  5  2  0  0  0  0
 15 44  1  0  0  0  0
 16 12  2  0  0  0  0
 17 18  1  0  0  0  0
 17 20  1  0  0  0  0
 19 17  1  0  0  0  0
 20 21  1  0  0  0  0
 20 22  1  0  0  0  0
 23 24  1  0  0  0  0
 24 26  2  0  0  0  0
 24 25  1  0  0  0  0
 26 27  1  0  0  0  0
 28 14  1  0  0  0  0
 28 26  1  0  0  0  0
 29 28  2  0  0  0  0
 30 29  1  0  0  0  0
 31 29  1  0  0  0  0
 31 23  2  0  0  0  0
 32 31  1  0  0  0  0
 33 35  1  0  0  0  0
 33 13  1  0  0  0  0
 34 33  1  0  0  0  0
 36 37  1  0  0  0  0
 36 33  1  0  0  0  0
 38 36  1  0  0  0  0
 39  7  1  0  0  0  0
 40 39  1  0  0  0  0
 40 41  1  0  0  0  0
 42 40  2  0  0  0  0
 43 42  1  0  0  0  0
 44 45  2  0  0  0  0
 44 42  1  0  0  0  0
 45 47  1  0  0  0  0
 46 45  1  0  0  0  0
 47 48  1  0  0  0  0
 47 39  2  0  0  0  0
 49 51  1  0  0  0  0
 49 52  1  0  0  0  0
 50 49  1  0  0  0  0
 52 54  1  0  0  0  0
 52 53  1  0  0  0  0
 55 63  1  0  0  0  0
 56 58  1  0  0  0  0
 56 55  2  0  0  0  0
 57 56  1  0  0  0  0
 58 60  2  0  0  0  0
 59 58  1  0  0  0  0
 60 16  1  0  0  0  0
 60 61  1  0  0  0  0
 61 62  1  0  0  0  0
 63 61  2  0  0  0  0
 63 64  1  0  0  0  0
M  END
$$$$
