CSD_code = XIYCAK | q = 0 | S = 0 | Stoichiometry = C27H24Cl2HgN4O3 | MND = 5
 OpenBabel04212202123D

 61 62  0  0  0  0  0  0  0  0999 V2000
    4.5240    0.4557    2.5252 Cl  0  0  0  0  0  0  0  0  0  0  0  0
    2.0402    3.9882    3.9199 Cl  0  0  0  0  0  0  0  0  0  0  0  0
    3.1115    2.0448    3.3640 Hg  0  0  0  0  0  0  0  0  0  0  0  0
    0.8970    0.9238    2.1947 O   0  0  0  0  0  0  0  0  0  0  0  0
    4.0877    1.6469    5.9216 O   0  0  0  0  0  0  0  0  0  0  0  0
   -1.1652   -0.3536    5.8282 O   0  0  0  0  0  0  0  0  0  0  0  0
    1.7147    0.3798    4.9021 N   0  0  0  0  0  0  0  0  0  0  0  0
   -1.8199    4.0533   -3.0716 N   0  0  0  0  0  0  0  0  0  0  0  0
    8.0942    6.2982    8.6113 N   0  0  0  0  0  0  0  0  0  0  0  0
   -5.8913   -4.2114    8.5911 N   0  0  0  0  0  0  0  0  0  0  0  0
    1.1434   -0.6247    3.9958 C   0  0  0  0  0  0  0  0  0  0  0  0
    0.5990   -1.3991    4.5525 H   0  0  0  0  0  0  0  0  0  0  0  0
    1.9799   -1.0915    3.4687 H   0  0  0  0  0  0  0  0  0  0  0  0
    0.1969   -0.0486    2.9475 C   0  0  0  0  0  0  0  0  0  0  0  0
   -0.1216   -0.8697    2.2911 H   0  0  0  0  0  0  0  0  0  0  0  0
   -0.6891    0.3904    3.4204 H   0  0  0  0  0  0  0  0  0  0  0  0
    0.2718    1.5228    1.1426 C   0  0  0  0  0  0  0  0  0  0  0  0
   -1.0548    1.3041    0.7808 C   0  0  0  0  0  0  0  0  0  0  0  0
   -1.6816    0.6270    1.3384 H   0  0  0  0  0  0  0  0  0  0  0  0
   -1.5893    1.9660   -0.3087 C   0  0  0  0  0  0  0  0  0  0  0  0
   -2.6187    1.7979   -0.5883 H   0  0  0  0  0  0  0  0  0  0  0  0
   -0.8105    2.8506   -1.0504 C   0  0  0  0  0  0  0  0  0  0  0  0
    0.5215    3.0702   -0.6883 C   0  0  0  0  0  0  0  0  0  0  0  0
    1.1275    3.7549   -1.2619 H   0  0  0  0  0  0  0  0  0  0  0  0
    1.0505    2.4092    0.3949 C   0  0  0  0  0  0  0  0  0  0  0  0
    2.0850    2.5614    0.6858 H   0  0  0  0  0  0  0  0  0  0  0  0
   -1.3654    3.5184   -2.1653 C   0  0  0  0  0  0  0  0  0  0  0  0
    2.7022   -0.2896    5.7563 C   0  0  0  0  0  0  0  0  0  0  0  0
    3.4360   -0.7503    5.0896 H   0  0  0  0  0  0  0  0  0  0  0  0
    2.2426   -1.0856    6.3613 H   0  0  0  0  0  0  0  0  0  0  0  0
    3.4592    0.6462    6.6955 C   0  0  0  0  0  0  0  0  0  0  0  0
    2.7865    1.1023    7.4340 H   0  0  0  0  0  0  0  0  0  0  0  0
    4.2157    0.0532    7.2279 H   0  0  0  0  0  0  0  0  0  0  0  0
    4.8888    2.5588    6.5436 C   0  0  0  0  0  0  0  0  0  0  0  0
    5.1014    2.6185    7.9180 C   0  0  0  0  0  0  0  0  0  0  0  0
    4.6281    1.9199    8.5892 H   0  0  0  0  0  0  0  0  0  0  0  0
    5.9324    3.5899    8.4445 C   0  0  0  0  0  0  0  0  0  0  0  0
    6.0961    3.6372    9.5108 H   0  0  0  0  0  0  0  0  0  0  0  0
    6.5605    4.5105    7.6099 C   0  0  0  0  0  0  0  0  0  0  0  0
    6.3505    4.4485    6.2295 C   0  0  0  0  0  0  0  0  0  0  0  0
    6.8377    5.1597    5.5802 H   0  0  0  0  0  0  0  0  0  0  0  0
    5.5254    3.4798    5.7089 C   0  0  0  0  0  0  0  0  0  0  0  0
    5.3555    3.4123    4.6395 H   0  0  0  0  0  0  0  0  0  0  0  0
    7.4078    5.4995    8.1589 C   0  0  0  0  0  0  0  0  0  0  0  0
    0.7073    1.1420    5.6421 C   0  0  0  0  0  0  0  0  0  0  0  0
    0.0828    1.6679    4.9194 H   0  0  0  0  0  0  0  0  0  0  0  0
    1.2235    1.9107    6.2179 H   0  0  0  0  0  0  0  0  0  0  0  0
   -0.2099    0.3588    6.5910 C   0  0  0  0  0  0  0  0  0  0  0  0
    0.3667   -0.3341    7.2177 H   0  0  0  0  0  0  0  0  0  0  0  0
   -0.7179    1.0795    7.2453 H   0  0  0  0  0  0  0  0  0  0  0  0
   -2.0975   -1.1062    6.4699 C   0  0  0  0  0  0  0  0  0  0  0  0
   -2.9831   -1.8029    5.6416 C   0  0  0  0  0  0  0  0  0  0  0  0
   -2.8770   -1.6975    4.5734 H   0  0  0  0  0  0  0  0  0  0  0  0
   -3.9642   -2.6014    6.1808 C   0  0  0  0  0  0  0  0  0  0  0  0
   -4.6466   -3.1376    5.5390 H   0  0  0  0  0  0  0  0  0  0  0  0
   -4.0794   -2.7216    7.5683 C   0  0  0  0  0  0  0  0  0  0  0  0
   -3.1992   -2.0277    8.3949 C   0  0  0  0  0  0  0  0  0  0  0  0
   -3.2891   -2.1189    9.4671 H   0  0  0  0  0  0  0  0  0  0  0  0
   -2.2136   -1.2254    7.8524 C   0  0  0  0  0  0  0  0  0  0  0  0
   -1.5473   -0.6973    8.5157 H   0  0  0  0  0  0  0  0  0  0  0  0
   -5.0811   -3.5436    8.1312 C   0  0  0  0  0  0  0  0  0  0  0  0
  1  3  1  0  0  0  0
  3  2  1  0  0  0  0
  4 14  1  0  0  0  0
  5 34  1  0  0  0  0
  5 31  1  0  0  0  0
  6 51  1  0  0  0  0
  6 48  1  0  0  0  0
  7 45  1  0  0  0  0
  7 28  1  0  0  0  0
  8 27  3  0  0  0  0
 11 12  1  0  0  0  0
 11  7  1  0  0  0  0
 13 11  1  0  0  0  0
 14 16  1  0  0  0  0
 14 11  1  0  0  0  0
 15 14  1  0  0  0  0
 17  4  1  0  0  0  0
 18 17  1  0  0  0  0
 18 19  1  0  0  0  0
 20 18  2  0  0  0  0
 21 20  1  0  0  0  0
 22 23  2  0  0  0  0
 22 20  1  0  0  0  0
 23 25  1  0  0  0  0
 24 23  1  0  0  0  0
 25 26  1  0  0  0  0
 25 17  2  0  0  0  0
 27 22  1  0  0  0  0
 28 30  1  0  0  0  0
 28 31  1  0  0  0  0
 29 28  1  0  0  0  0
 31 33  1  0  0  0  0
 31 32  1  0  0  0  0
 34 35  1  0  0  0  0
 35 37  2  0  0  0  0
 35 36  1  0  0  0  0
 37 38  1  0  0  0  0
 39 44  1  0  0  0  0
 39 37  1  0  0  0  0
 40 39  2  0  0  0  0
 41 40  1  0  0  0  0
 42 40  1  0  0  0  0
 42 34  2  0  0  0  0
 43 42  1  0  0  0  0
 44  9  3  0  0  0  0
 45 47  1  0  0  0  0
 45 48  1  0  0  0  0
 46 45  1  0  0  0  0
 48 49  1  0  0  0  0
 48 50  1  0  0  0  0
 51 59  1  0  0  0  0
 52 54  1  0  0  0  0
 52 51  2  0  0  0  0
 53 52  1  0  0  0  0
 54 56  2  0  0  0  0
 55 54  1  0  0  0  0
 56 61  1  0  0  0  0
 56 57  1  0  0  0  0
 57 58  1  0  0  0  0
 59 57  2  0  0  0  0
 59 60  1  0  0  0  0
 61 10  3  0  0  0  0
M  END
$$$$
