CSD_code = XIYFOC | q = 0 | S = 0 | Stoichiometry = C23H30ClN2Rh | MND = 8
 OpenBabel04212202123D

 57 61  0  0  1  0  0  0  0  0999 V2000
    3.2334   22.6762    0.3315 C   0  0  0  0  0  0  0  0  0  0  0  0
    3.8060   22.7649   -0.9326 C   0  0  0  0  0  0  0  0  0  0  0  0
    4.2459   21.8938   -1.3974 H   0  0  0  0  0  0  0  0  0  0  0  0
    3.8471   23.9742   -1.6061 C   0  0  0  0  0  0  0  0  0  0  0  0
    4.2891   24.0206   -2.5916 H   0  0  0  0  0  0  0  0  0  0  0  0
    3.3397   25.1311   -1.0293 C   0  0  0  0  0  0  0  0  0  0  0  0
    3.3816   26.0669   -1.5671 H   0  0  0  0  0  0  0  0  0  0  0  0
    2.8084   25.0845    0.2420 C   0  0  0  0  0  0  0  0  0  0  0  0
    2.4441   25.9855    0.7160 H   0  0  0  0  0  0  0  0  0  0  0  0
    2.7602   23.8660    0.9173 C   0  0  0  0  0  0  0  0  0  0  0  0
    2.3287   23.6768    2.2759 C   0  0  1  0  0  3  0  0  0  0  0  0
    1.4780   23.9304    4.3432 C   0  0  2  0  0  0  0  0  0  0  0  0
    0.3893   23.8243    4.1774 H   0  0  0  0  0  0  0  0  0  0  0  0
    1.6949   24.4358    5.7550 C   0  0  0  0  0  0  0  0  0  0  0  0
    1.2505   25.4226    5.8986 H   0  0  0  0  0  0  0  0  0  0  0  0
    2.7622   24.5033    5.9682 H   0  0  0  0  0  0  0  0  0  0  0  0
    1.0205   23.4152    6.6818 C   0  0  0  0  0  0  0  0  0  0  0  0
   -0.0578   23.4417    6.5045 H   0  0  0  0  0  0  0  0  0  0  0  0
    1.1908   23.6983    7.7217 H   0  0  0  0  0  0  0  0  0  0  0  0
    1.5298   21.9858    6.4627 C   0  0  0  0  0  0  0  0  0  0  0  0
    2.5769   21.9321    6.7675 H   0  0  0  0  0  0  0  0  0  0  0  0
    0.9624   21.3060    7.1012 H   0  0  0  0  0  0  0  0  0  0  0  0
    1.4262   21.5287    5.0020 C   0  0  0  0  0  0  0  0  0  0  0  0
    1.8930   20.5523    4.8856 H   0  0  0  0  0  0  0  0  0  0  0  0
    0.3808   21.4625    4.6915 H   0  0  0  0  0  0  0  0  0  0  0  0
    2.1594   22.5671    4.1802 C   0  0  1  0  0  0  0  0  0  0  0  0
    3.1897   22.6335    4.5665 H   0  0  0  0  0  0  0  0  0  0  0  0
    3.5421   19.2895    0.2727 C   0  0  1  0  0  0  0  0  0  0  0  0
    2.2454   19.7330   -0.1357 C   0  0  2  0  0  3  0  0  0  0  0  0
    1.3924   19.6521    1.0056 C   0  0  2  0  0  0  0  0  0  0  0  0
    2.1106   18.9669    2.0641 C   0  0  0  0  0  0  0  0  0  0  0  0
    3.4202   18.7528    1.6191 C   0  0  0  0  0  0  0  0  0  0  0  0
    4.7266   19.0121   -0.6045 C   0  0  0  0  0  0  0  0  0  0  0  0
    5.6460   19.3349   -0.1193 H   0  0  0  0  0  0  0  0  0  0  0  0
    4.6430   19.5224   -1.5608 H   0  0  0  0  0  0  0  0  0  0  0  0
    4.7992   17.9391   -0.7946 H   0  0  0  0  0  0  0  0  0  0  0  0
    1.7909   20.0779   -1.5214 C   0  0  0  0  0  0  0  0  0  0  0  0
    1.1651   19.2680   -1.9015 H   0  0  0  0  0  0  0  0  0  0  0  0
    2.6337   20.2008   -2.1954 H   0  0  0  0  0  0  0  0  0  0  0  0
    1.2058   20.9957   -1.5364 H   0  0  0  0  0  0  0  0  0  0  0  0
   -0.0869   19.8871    0.9921 C   0  0  0  0  0  0  0  0  0  0  0  0
   -0.3512   20.6518    0.2653 H   0  0  0  0  0  0  0  0  0  0  0  0
   -0.4452   20.2018    1.9701 H   0  0  0  0  0  0  0  0  0  0  0  0
   -0.6037   18.9634    0.7219 H   0  0  0  0  0  0  0  0  0  0  0  0
    1.4715   18.3655    3.2786 C   0  0  0  0  0  0  0  0  0  0  0  0
    1.1288   17.3562    3.0375 H   0  0  0  0  0  0  0  0  0  0  0  0
    0.6084   18.9426    3.6005 H   0  0  0  0  0  0  0  0  0  0  0  0
    2.1736   18.2918    4.1065 H   0  0  0  0  0  0  0  0  0  0  0  0
    4.5176   18.0134    2.3146 C   0  0  0  0  0  0  0  0  0  0  0  0
    4.2189   17.7165    3.3166 H   0  0  0  0  0  0  0  0  0  0  0  0
    5.4078   18.6370    2.3896 H   0  0  0  0  0  0  0  0  0  0  0  0
    4.7759   17.1186    1.7459 H   0  0  0  0  0  0  0  0  0  0  0  0
    2.2884   22.4542    2.7329 N   0  0  2  0  0  0  0  0  0  0  0  0
    2.0660   24.6336    3.2149 N   0  0  0  0  0  0  0  0  0  0  0  0
    1.7341   25.5441    2.9420 H   0  0  0  0  0  0  0  0  0  0  0  0
    5.1070   21.5970    2.3201 Cl  0  0  0  0  0 15  0  0  0  0  0  0
    3.0566   21.0265    1.4600 Rh  0  0  2  0  0  0  0  0  0  0  0  0
  1 10  1  0  0  0  0
  1 57  1  0  0  0  0
  2  1  2  0  0  0  0
  3  2  1  0  0  0  0
  4  6  2  0  0  0  0
  4  2  1  0  0  0  0
  5  4  1  0  0  0  0
  6  8  1  0  0  0  0
  7  6  1  0  0  0  0
  8  9  1  0  0  0  0
  8 10  2  0  0  0  0
 11 10  1  1  0  0  0
 11 53  1  0  0  0  0
 11 54  1  0  0  0  0
 12 13  1  6  0  0  0
 12 14  1  0  0  0  0
 14 15  1  0  0  0  0
 14 16  1  0  0  0  0
 14 17  1  0  0  0  0
 17 19  1  0  0  0  0
 18 17  1  0  0  0  0
 20 17  1  0  0  0  0
 20 21  1  0  0  0  0
 20 22  1  0  0  0  0
 23 20  1  0  0  0  0
 24 23  1  0  0  0  0
 25 23  1  0  0  0  0
 26 12  1  0  0  0  0
 26 27  1  1  0  0  0
 26 23  1  0  0  0  0
 28 33  1  6  0  0  0
 28 57  1  0  0  0  0
 28 32  1  0  0  0  0
 29 28  1  0  0  0  0
 29 30  1  0  0  0  0
 30 41  1  1  0  0  0
 30 57  1  0  0  0  0
 30 31  1  0  0  0  0
 31 45  1  0  0  0  0
 32 31  2  0  0  0  0
 32 49  1  0  0  0  0
 33 34  1  0  0  0  0
 35 33  1  0  0  0  0
 36 33  1  0  0  0  0
 37 29  1  0  0  0  0
 38 37  1  0  0  0  0
 39 37  1  0  0  0  0
 40 37  1  0  0  0  0
 41 43  1  0  0  0  0
 42 41  1  0  0  0  0
 44 41  1  0  0  0  0
 45 47  1  0  0  0  0
 45 48  1  0  0  0  0
 46 45  1  0  0  0  0
 49 51  1  0  0  0  0
 49 50  1  0  0  0  0
 52 49  1  0  0  0  0
 53 26  1  0  0  0  0
 54 12  1  0  0  0  0
 55 54  1  0  0  0  0
 57 53  1  0  0  0  0
M  END
$$$$
