CSD_code = XIYGIW | q = 0 | S = 0 | Stoichiometry = C12H16I2N4Zn | MND = 4
 OpenBabel04212202123D

 35 36  0  0  0  0  0  0  0  0999 V2000
   -0.7146    3.2826    9.9807 Zn  0  0  0  0  0  0  0  0  0  0  0  0
   -0.8856    1.6534    8.0632 I   0  0  0  0  0  0  0  0  0  0  0  0
    0.2963    5.5407   10.4596 I   0  0  0  0  0  0  0  0  0  0  0  0
   -2.7818    3.4293   10.7627 N   0  0  0  0  0  0  0  0  0  0  0  0
   -5.3780    3.6788   11.6638 N   0  0  0  0  0  0  0  0  0  0  0  0
   -0.1252    2.0315   11.7064 N   0  0  0  0  0  0  0  0  0  0  0  0
    0.6294    0.4451   13.8343 N   0  0  0  0  0  0  0  0  0  0  0  0
   -3.7271    2.5756   10.3851 C   0  0  0  0  0  3  0  0  0  0  0  0
   -3.4436    1.7876    9.7026 H   0  0  0  0  0  0  0  0  0  0  0  0
   -5.0405    2.6984   10.8364 C   0  0  0  0  0  0  0  0  0  0  0  0
   -4.4426    4.5349   12.0510 C   0  0  0  0  0  0  0  0  0  0  0  0
   -3.1310    4.4034   11.5950 C   0  0  0  0  0  0  0  0  0  0  0  0
   -2.3635    5.1012   11.8969 H   0  0  0  0  0  0  0  0  0  0  0  0
   -6.1044    1.7442   10.4145 C   0  0  0  0  0  0  0  0  0  0  0  0
   -5.9748    0.7934   10.9301 H   0  0  0  0  0  0  0  0  0  0  0  0
   -6.0481    1.5569    9.3452 H   0  0  0  0  0  0  0  0  0  0  0  0
   -7.0786    2.1493   10.6705 H   0  0  0  0  0  0  0  0  0  0  0  0
   -4.8416    5.6358   12.9726 C   0  0  0  0  0  0  0  0  0  0  0  0
   -5.9020    5.5586   13.1926 H   0  0  0  0  0  0  0  0  0  0  0  0
   -4.6350    6.6011   12.5137 H   0  0  0  0  0  0  0  0  0  0  0  0
   -4.2730    5.5786   13.8992 H   0  0  0  0  0  0  0  0  0  0  0  0
   -0.3296    0.7191   11.6934 C   0  0  0  0  0  3  0  0  0  0  0  0
   -0.7922    0.2948   10.8141 H   0  0  0  0  0  0  0  0  0  0  0  0
    0.0506   -0.0866   12.7660 C   0  0  0  0  0  0  0  0  0  0  0  0
    0.8403    1.7541   13.8584 C   0  0  0  0  0  0  0  0  0  0  0  0
    0.4542    2.5524   12.7819 C   0  0  0  0  0  0  0  0  0  0  0  0
    0.6256    3.6191   12.7892 H   0  0  0  0  0  0  0  0  0  0  0  0
   -0.1723   -1.5600   12.7529 C   0  0  0  0  0  0  0  0  0  0  0  0
    0.3169   -2.0058   11.8889 H   0  0  0  0  0  0  0  0  0  0  0  0
   -1.2363   -1.7804   12.6849 H   0  0  0  0  0  0  0  0  0  0  0  0
    0.2287   -1.9958   13.6629 H   0  0  0  0  0  0  0  0  0  0  0  0
    1.5037    2.3330   15.0605 C   0  0  0  0  0  0  0  0  0  0  0  0
    0.8764    3.1021   15.5071 H   0  0  0  0  0  0  0  0  0  0  0  0
    2.4480    2.7957   14.7784 H   0  0  0  0  0  0  0  0  0  0  0  0
    1.6901    1.5473   15.7863 H   0  0  0  0  0  0  0  0  0  0  0  0
  1  3  1  0  0  0  0
  1  4  1  0  0  0  0
  1  6  1  0  0  0  0
  2  1  1  0  0  0  0
  4 12  1  0  0  0  0
  5 11  1  0  0  0  0
  6 26  1  0  0  0  0
  7 25  1  0  0  0  0
  8  4  1  0  0  0  0
  8 10  1  0  0  0  0
  9  8  1  0  0  0  0
 10  5  2  0  0  0  0
 11 18  1  0  0  0  0
 12 13  1  0  0  0  0
 12 11  2  0  0  0  0
 14 17  1  0  0  0  0
 14 10  1  0  0  0  0
 14 15  1  0  0  0  0
 16 14  1  0  0  0  0
 18 19  1  0  0  0  0
 18 21  1  0  0  0  0
 20 18  1  0  0  0  0
 22  6  1  0  0  0  0
 22 24  1  0  0  0  0
 23 22  1  0  0  0  0
 24  7  2  0  0  0  0
 25 32  1  0  0  0  0
 26 27  1  0  0  0  0
 26 25  2  0  0  0  0
 28 24  1  0  0  0  0
 28 31  1  0  0  0  0
 29 28  1  0  0  0  0
 30 28  1  0  0  0  0
 32 33  1  0  0  0  0
 32 35  1  0  0  0  0
 34 32  1  0  0  0  0
M  END
$$$$
