CSD_code = XIYHES | q = 0 | S = 0 | Stoichiometry = C6H18Cl6N2NbPSi2 | MND = 6
 OpenBabel04212202123D

 36 36  0  0  0  0  0  0  0  0999 V2000
    2.8753    2.9010    3.3083 Nb  0  0  0  0  0  0  0  0  0  0  0  0
    3.4676    1.0900    4.5073 Cl  0  0  0  0  0  0  0  0  0  0  0  0
    4.2571    2.1872    1.4883 Cl  0  0  0  0  0  0  0  0  0  0  0  0
    1.0682    1.9727    2.3375 Cl  0  0  0  0  0  0  0  0  0  0  0  0
    1.6050    3.7903    5.0743 Cl  0  0  0  0  0  0  0  0  0  0  0  0
    4.0978    7.0134    3.6331 Cl  0  0  0  0  0  0  0  0  0  0  0  0
    5.4849    5.3162    1.4083 Cl  0  0  0  0  0  0  0  0  0  0  0  0
    4.1448    5.2136    2.8479 P   0  0  0  0  0  4  0  0  0  0  0  0
    1.7075    5.4060    1.0540 Si  0  0  0  0  0  0  0  0  0  0  0  0
    5.9392    3.8467    4.8723 Si  0  0  0  0  0  0  0  0  0  0  0  0
    2.7200    4.7319    2.3230 N   0  0  0  0  0  0  0  0  0  0  0  0
    4.4819    4.0824    3.9179 N   0  0  0  0  0  0  0  0  0  0  0  0
   -0.0254    5.3968    1.8453 C   0  0  0  0  0  0  0  0  0  0  0  0
   -0.2444    4.4229    2.2807 H   0  0  0  0  0  0  0  0  0  0  0  0
   -0.7907    5.6161    1.1093 H   0  0  0  0  0  0  0  0  0  0  0  0
   -0.1047    6.1347    2.6404 H   0  0  0  0  0  0  0  0  0  0  0  0
    2.3165    7.1658    0.6513 C   0  0  0  0  0  0  0  0  0  0  0  0
    3.3693    7.1814    0.3811 H   0  0  0  0  0  0  0  0  0  0  0  0
    2.1783    7.8436    1.4887 H   0  0  0  0  0  0  0  0  0  0  0  0
    1.7564    7.5653   -0.1869 H   0  0  0  0  0  0  0  0  0  0  0  0
    1.9237    4.2227   -0.4261 C   0  0  0  0  0  0  0  0  0  0  0  0
    2.9318    4.2696   -0.8336 H   0  0  0  0  0  0  0  0  0  0  0  0
    1.2298    4.4619   -1.2247 H   0  0  0  0  0  0  0  0  0  0  0  0
    1.7441    3.1917   -0.1227 H   0  0  0  0  0  0  0  0  0  0  0  0
    5.2525    3.4487    6.6040 C   0  0  0  0  0  0  0  0  0  0  0  0
    4.5109    2.6529    6.5509 H   0  0  0  0  0  0  0  0  0  0  0  0
    4.7694    4.3154    7.0501 H   0  0  0  0  0  0  0  0  0  0  0  0
    6.0440    3.1270    7.2717 H   0  0  0  0  0  0  0  0  0  0  0  0
    6.8572    2.4083    4.0199 C   0  0  0  0  0  0  0  0  0  0  0  0
    6.1851    1.5649    3.8614 H   0  0  0  0  0  0  0  0  0  0  0  0
    7.6913    2.0632    4.6219 H   0  0  0  0  0  0  0  0  0  0  0  0
    7.2457    2.7011    3.0459 H   0  0  0  0  0  0  0  0  0  0  0  0
    6.9582    5.4563    4.8458 C   0  0  0  0  0  0  0  0  0  0  0  0
    6.4433    6.2694    5.3492 H   0  0  0  0  0  0  0  0  0  0  0  0
    7.1825    5.7811    3.8331 H   0  0  0  0  0  0  0  0  0  0  0  0
    7.9017    5.3021    5.3577 H   0  0  0  0  0  0  0  0  0  0  0  0
  1 12  1  0  0  0  0
  1  2  1  0  0  0  0
  1  5  1  0  0  0  0
  3  1  1  0  0  0  0
  4  1  1  0  0  0  0
  7  8  1  0  0  0  0
  8  6  1  0  0  0  0
  8 12  1  0  0  0  0
  9 13  1  0  0  0  0
  9 11  1  0  0  0  0
 10 25  1  0  0  0  0
 11  8  1  0  0  0  0
 11  1  1  0  0  0  0
 12 10  1  0  0  0  0
 13 14  1  0  0  0  0
 13 16  1  0  0  0  0
 15 13  1  0  0  0  0
 17  9  1  0  0  0  0
 17 19  1  0  0  0  0
 18 17  1  0  0  0  0
 20 17  1  0  0  0  0
 21 24  1  0  0  0  0
 21  9  1  0  0  0  0
 22 21  1  0  0  0  0
 23 21  1  0  0  0  0
 25 27  1  0  0  0  0
 25 28  1  0  0  0  0
 26 25  1  0  0  0  0
 29 31  1  0  0  0  0
 29 10  1  0  0  0  0
 30 29  1  0  0  0  0
 32 29  1  0  0  0  0
 33 10  1  0  0  0  0
 33 34  1  0  0  0  0
 33 36  1  0  0  0  0
 35 33  1  0  0  0  0
M  END
$$$$
