CSD_code = XIYHAO | q = 0 | S = 0 | Stoichiometry = C10H26Cl5N2OPSi2Zr | MND = 6
 OpenBabel04212202123D

 48 48  0  0  0  0  0  0  0  0999 V2000
    5.2957    2.8928    3.7476 Zr  0  0  0  0  0  0  0  0  0  0  0  0
    6.3470   -0.4298    6.5303 Cl  0  0  0  0  0  0  0  0  0  0  0  0
    7.3939    2.5003    6.8336 Cl  0  0  0  0  0  0  0  0  0  0  0  0
    3.3442    4.1572    3.5174 Cl  0  0  0  0  0  0  0  0  0  0  0  0
    6.0468    3.3209    1.5798 Cl  0  0  0  0  0  0  0  0  0  0  0  0
    6.4567    4.6854    4.6327 Cl  0  0  0  0  0  0  0  0  0  0  0  0
    6.2473    1.3564    5.6801 P   0  0  0  0  0  4  0  0  0  0  0  0
    3.8282    2.6419    6.8652 Si  0  0  0  0  0  0  0  0  0  0  0  0
    8.3968    1.3456    3.6128 Si  0  0  0  0  0  0  0  0  0  0  0  0
    4.1646    1.3277    2.8456 O   0  0  0  0  0  0  0  0  0  0  0  0
    4.7543    1.8991    5.5844 N   0  0  0  0  0  0  0  0  0  0  0  0
    6.7392    1.3367    4.1662 N   0  0  0  0  0  0  0  0  0  0  0  0
    2.0001    2.3900    6.3779 C   0  0  0  0  0  0  0  0  0  0  0  0
    1.7268    1.3444    6.2746 H   0  0  0  0  0  0  0  0  0  0  0  0
    1.7732    2.9018    5.4474 H   0  0  0  0  0  0  0  0  0  0  0  0
    1.3692    2.8157    7.1493 H   0  0  0  0  0  0  0  0  0  0  0  0
    4.2243    4.5026    7.0046 C   0  0  0  0  0  0  0  0  0  0  0  0
    5.2671    4.6966    7.2482 H   0  0  0  0  0  0  0  0  0  0  0  0
    3.6149    4.9654    7.7748 H   0  0  0  0  0  0  0  0  0  0  0  0
    4.0061    5.0118    6.0651 H   0  0  0  0  0  0  0  0  0  0  0  0
    4.2138    1.7355    8.5018 C   0  0  0  0  0  0  0  0  0  0  0  0
    4.0334    0.6679    8.4155 H   0  0  0  0  0  0  0  0  0  0  0  0
    3.5855    2.1106    9.3018 H   0  0  0  0  0  0  0  0  0  0  0  0
    5.2485    1.8703    8.8040 H   0  0  0  0  0  0  0  0  0  0  0  0
    9.4430    0.2733    4.7976 C   0  0  0  0  0  0  0  0  0  0  0  0
    9.5049    0.7103    5.7901 H   0  0  0  0  0  0  0  0  0  0  0  0
   10.4542    0.1675    4.4211 H   0  0  0  0  0  0  0  0  0  0  0  0
    9.0260   -0.7241    4.9032 H   0  0  0  0  0  0  0  0  0  0  0  0
    9.0797    3.1235    3.5171 C   0  0  0  0  0  0  0  0  0  0  0  0
    9.0997    3.6218    4.4844 H   0  0  0  0  0  0  0  0  0  0  0  0
    8.4721    3.7320    2.8461 H   0  0  0  0  0  0  0  0  0  0  0  0
   10.0929    3.1210    3.1269 H   0  0  0  0  0  0  0  0  0  0  0  0
    8.3648    0.5584    1.8731 C   0  0  0  0  0  0  0  0  0  0  0  0
    7.9927   -0.4622    1.8730 H   0  0  0  0  0  0  0  0  0  0  0  0
    9.3765    0.5319    1.4852 H   0  0  0  0  0  0  0  0  0  0  0  0
    7.7663    1.1501    1.1861 H   0  0  0  0  0  0  0  0  0  0  0  0
    2.7990    0.9758    3.1471 C   0  0  0  0  0  0  0  0  0  0  0  0
    2.2014    1.8948    3.1444 H   0  0  0  0  0  0  0  0  0  0  0  0
    2.7823    0.5238    4.1489 H   0  0  0  0  0  0  0  0  0  0  0  0
    2.3761   -0.0216    2.0716 C   0  0  0  0  0  0  0  0  0  0  0  0
    1.9989    0.5049    1.1946 H   0  0  0  0  0  0  0  0  0  0  0  0
    1.6135   -0.7095    2.4276 H   0  0  0  0  0  0  0  0  0  0  0  0
    3.7001   -0.7077    1.7448 C   0  0  0  0  0  0  0  0  0  0  0  0
    3.9470   -1.4432    2.5119 H   0  0  0  0  0  0  0  0  0  0  0  0
    3.7011   -1.1929    0.7723 H   0  0  0  0  0  0  0  0  0  0  0  0
    4.6679    0.4689    1.8039 C   0  0  0  0  0  0  0  0  0  0  0  0
    5.6916    0.1874    2.0718 H   0  0  0  0  0  0  0  0  0  0  0  0
    4.6728    1.0337    0.8601 H   0  0  0  0  0  0  0  0  0  0  0  0
  1 12  1  0  0  0  0
  1  6  1  0  0  0  0
  1 11  1  0  0  0  0
  4  1  1  0  0  0  0
  5  1  1  0  0  0  0
  7  2  1  0  0  0  0
  7  3  1  0  0  0  0
  8 17  1  0  0  0  0
  8 21  1  0  0  0  0
  9 12  1  0  0  0  0
  9 25  1  0  0  0  0
 10 37  1  0  0  0  0
 11  7  1  0  0  0  0
 11  8  1  0  0  0  0
 12  7  1  0  0  0  0
 13  8  1  0  0  0  0
 13 16  1  0  0  0  0
 14 13  1  0  0  0  0
 15 13  1  0  0  0  0
 17 18  1  0  0  0  0
 17 19  1  0  0  0  0
 20 17  1  0  0  0  0
 21 24  1  0  0  0  0
 21 23  1  0  0  0  0
 22 21  1  0  0  0  0
 25 28  1  0  0  0  0
 25 26  1  0  0  0  0
 27 25  1  0  0  0  0
 29  9  1  0  0  0  0
 29 30  1  0  0  0  0
 31 29  1  0  0  0  0
 32 29  1  0  0  0  0
 33  9  1  0  0  0  0
 34 33  1  0  0  0  0
 35 33  1  0  0  0  0
 36 33  1  0  0  0  0
 37 39  1  0  0  0  0
 38 37  1  0  0  0  0
 40 42  1  0  0  0  0
 40 37  1  0  0  0  0
 41 40  1  0  0  0  0
 43 46  1  0  0  0  0
 43 40  1  0  0  0  0
 43 44  1  0  0  0  0
 45 43  1  0  0  0  0
 46 47  1  0  0  0  0
 46 10  1  0  0  0  0
 48 46  1  0  0  0  0
M  END
$$$$
