CSD_code = XIYJUL | q = 0 | S = 0 | Stoichiometry = C22H18ClMnN2O2 | MND = 5
 OpenBabel04212202123D

 46 51  0  0  0  0  0  0  0  0999 V2000
    3.2357    5.6969    1.1781 Mn  0  0  0  0  0  0  0  0  0  0  0  0
    3.9508    3.6345    1.1810 Cl  0  0  0  0  0  0  0  0  0  0  0  0
    4.1350    6.7496    2.1277 O   0  0  0  0  0  0  0  0  0  0  0  0
    1.7686    5.3499    2.0641 O   0  0  0  0  0  0  0  0  0  0  0  0
    4.7864    6.2130   -0.2722 N   0  0  0  0  0  0  0  0  0  0  0  0
    2.3379    5.4218   -0.5116 N   0  0  0  0  0  0  0  0  0  0  0  0
    5.3249    7.2350    2.3378 C   0  0  0  0  0  0  0  0  0  0  0  0
    5.6501    7.8223    3.5828 C   0  0  0  0  0  0  0  0  0  0  0  0
    6.9308    8.2845    3.7897 C   0  0  0  0  0  0  0  0  0  0  0  0
    7.1821    8.7322    4.7401 H   0  0  0  0  0  0  0  0  0  0  0  0
    7.9117    8.1774    2.8008 C   0  0  0  0  0  0  0  0  0  0  0  0
    8.9058    8.5489    2.9965 H   0  0  0  0  0  0  0  0  0  0  0  0
    7.6157    7.5988    1.5935 C   0  0  0  0  0  0  0  0  0  0  0  0
    8.3694    7.5154    0.8245 H   0  0  0  0  0  0  0  0  0  0  0  0
    6.3219    7.1205    1.3237 C   0  0  0  0  0  0  0  0  0  0  0  0
    6.0072    6.5089    0.0816 C   0  0  0  0  0  3  0  0  0  0  0  0
    6.8436    6.2950   -0.5827 H   0  0  0  0  0  0  0  0  0  0  0  0
    4.4579    5.7548   -1.5285 C   0  0  0  0  0  0  0  0  0  0  0  0
    5.2884    5.7636   -2.6534 C   0  0  0  0  0  0  0  0  0  0  0  0
    6.2831    6.1767   -2.5927 H   0  0  0  0  0  0  0  0  0  0  0  0
    4.8421    5.2418   -3.8479 C   0  0  0  0  0  0  0  0  0  0  0  0
    5.4939    5.2379   -4.7082 H   0  0  0  0  0  0  0  0  0  0  0  0
    3.5651    4.7015   -3.9439 C   0  0  0  0  0  0  0  0  0  0  0  0
    3.2362    4.2602   -4.8722 H   0  0  0  0  0  0  0  0  0  0  0  0
    2.7112    4.7279   -2.8608 C   0  0  0  0  0  0  0  0  0  0  0  0
    1.7317    4.2844   -2.9504 H   0  0  0  0  0  0  0  0  0  0  0  0
    3.1251    5.2897   -1.6515 C   0  0  0  0  0  0  0  0  0  0  0  0
    1.0182    5.3807   -0.6416 C   0  0  0  0  0  3  0  0  0  0  0  0
    0.6028    5.3954   -1.6462 H   0  0  0  0  0  0  0  0  0  0  0  0
    0.0861    5.3407    0.4079 C   0  0  0  0  0  0  0  0  0  0  0  0
   -1.3014    5.2868    0.1351 C   0  0  0  0  0  0  0  0  0  0  0  0
   -1.6218    5.2554   -0.8962 H   0  0  0  0  0  0  0  0  0  0  0  0
   -2.2148    5.2711    1.1478 C   0  0  0  0  0  0  0  0  0  0  0  0
   -3.2712    5.2295    0.9308 H   0  0  0  0  0  0  0  0  0  0  0  0
   -1.7893    5.3083    2.4862 C   0  0  0  0  0  0  0  0  0  0  0  0
   -2.5291    5.2980    3.2737 H   0  0  0  0  0  0  0  0  0  0  0  0
   -0.4606    5.3475    2.8150 C   0  0  0  0  0  0  0  0  0  0  0  0
    0.5171    5.3540    1.7766 C   0  0  0  0  0  0  0  0  0  0  0  0
    4.5815    7.9016    4.6286 C   0  0  0  0  0  0  0  0  0  0  0  0
    4.9740    8.3097    5.5561 H   0  0  0  0  0  0  0  0  0  0  0  0
    4.1743    6.9080    4.8185 H   0  0  0  0  0  0  0  0  0  0  0  0
    3.7611    8.5321    4.2829 H   0  0  0  0  0  0  0  0  0  0  0  0
    0.0262    5.3873    4.2300 C   0  0  0  0  0  0  0  0  0  0  0  0
   -0.7889    5.2154    4.9276 H   0  0  0  0  0  0  0  0  0  0  0  0
    0.4761    6.3573    4.4463 H   0  0  0  0  0  0  0  0  0  0  0  0
    0.7953    4.6299    4.3779 H   0  0  0  0  0  0  0  0  0  0  0  0
  1  2  1  0  0  0  0
  1  4  1  0  0  0  0
  1  3  1  0  0  0  0
  3  7  1  0  0  0  0
  5 16  1  0  0  0  0
  5  1  1  0  0  0  0
  6  1  1  0  0  0  0
  7  8  1  0  0  0  0
  8  9  2  0  0  0  0
  8 39  1  0  0  0  0
  9 10  1  0  0  0  0
 11 12  1  0  0  0  0
 11  9  1  0  0  0  0
 13 11  2  0  0  0  0
 14 13  1  0  0  0  0
 15 13  1  0  0  0  0
 15  7  2  0  0  0  0
 16 15  1  0  0  0  0
 17 16  1  0  0  0  0
 18  5  1  0  0  0  0
 19 20  1  0  0  0  0
 19 18  2  0  0  0  0
 21 19  1  0  0  0  0
 22 21  1  0  0  0  0
 23 21  2  0  0  0  0
 23 25  1  0  0  0  0
 24 23  1  0  0  0  0
 25 27  2  0  0  0  0
 26 25  1  0  0  0  0
 27 18  1  0  0  0  0
 27  6  1  0  0  0  0
 28  6  1  0  0  0  0
 28 30  1  0  0  0  0
 29 28  1  0  0  0  0
 30 38  1  0  0  0  0
 31 30  2  0  0  0  0
 31 33  1  0  0  0  0
 32 31  1  0  0  0  0
 33 35  2  0  0  0  0
 34 33  1  0  0  0  0
 35 37  1  0  0  0  0
 35 36  1  0  0  0  0
 37 43  1  0  0  0  0
 38  4  1  0  0  0  0
 38 37  2  0  0  0  0
 39 41  1  0  0  0  0
 39 40  1  0  0  0  0
 42 39  1  0  0  0  0
 43 46  1  0  0  0  0
 43 45  1  0  0  0  0
 43 44  1  0  0  0  0
M  END
$$$$
