CSD_code = XIYLOG | q = 0 | S = 0 | Stoichiometry = C34H29Cl2N2PPd | MND = 4
 OpenBabel04212202123D

 69 74  0  0  0  0  0  0  0  0999 V2000
    2.2305    7.4929    1.8420 Pd  0  0  0  0  0  0  0  0  0  0  0  0
    1.4675    6.7124    3.7668 P   0  0  2  0  0  4  0  0  0  0  0  0
    3.9657    5.9936    1.8637 Cl  0  0  0  0  0  0  0  0  0  0  0  0
    0.4258    8.8805    1.7617 Cl  0  0  0  0  0  0  0  0  0  0  0  0
    1.8067    7.4347    6.8290 N   0  0  0  0  0  0  0  0  0  0  0  0
    3.1263    8.3231   -0.0081 N   0  0  0  0  0  4  0  0  0  0  0  0
    3.9621    7.7315   -0.0341 H   0  0  0  0  0  0  0  0  0  0  0  0
    2.6499    8.3401   -0.9078 H   0  0  0  0  0  0  0  0  0  0  0  0
    2.6267    6.1123    4.9762 C   0  0  0  0  0  0  0  0  0  0  0  0
    3.3987    5.4449    4.6183 H   0  0  0  0  0  0  0  0  0  0  0  0
    2.6968    6.5547    6.2485 C   0  0  0  0  0  0  0  0  0  0  0  0
    3.8257    6.0821    7.0840 C   0  0  0  0  0  0  0  0  0  0  0  0
    4.0107    4.7193    7.2903 C   0  0  0  0  0  0  0  0  0  0  0  0
    3.3074    4.0188    6.8636 H   0  0  0  0  0  0  0  0  0  0  0  0
    5.0793    4.2654    8.0416 C   0  0  0  0  0  0  0  0  0  0  0  0
    5.2107    3.2057    8.2017 H   0  0  0  0  0  0  0  0  0  0  0  0
    5.9796    5.1667    8.5837 C   0  0  0  0  0  0  0  0  0  0  0  0
    6.8138    4.8122    9.1703 H   0  0  0  0  0  0  0  0  0  0  0  0
    5.8133    6.5236    8.3629 C   0  0  0  0  0  0  0  0  0  0  0  0
    6.5214    7.2294    8.7707 H   0  0  0  0  0  0  0  0  0  0  0  0
    4.7435    6.9816    7.6169 C   0  0  0  0  0  0  0  0  0  0  0  0
    4.6260    8.0395    7.4351 H   0  0  0  0  0  0  0  0  0  0  0  0
    1.9936    7.8092    8.1872 C   0  0  0  0  0  0  0  0  0  0  0  0
    1.9747    6.8437    9.1865 C   0  0  0  0  0  0  0  0  0  0  0  0
    1.8125    5.8077    8.9284 H   0  0  0  0  0  0  0  0  0  0  0  0
    2.1592    7.2142   10.5054 C   0  0  0  0  0  0  0  0  0  0  0  0
    2.1438    6.4604   11.2781 H   0  0  0  0  0  0  0  0  0  0  0  0
    2.3542    8.5447   10.8350 C   0  0  0  0  0  0  0  0  0  0  0  0
    2.4944    8.8312   11.8660 H   0  0  0  0  0  0  0  0  0  0  0  0
    2.3686    9.5071    9.8396 C   0  0  0  0  0  0  0  0  0  0  0  0
    2.5231   10.5453   10.0915 H   0  0  0  0  0  0  0  0  0  0  0  0
    2.1930    9.1440    8.5174 C   0  0  0  0  0  0  0  0  0  0  0  0
    2.2127    9.8900    7.7370 H   0  0  0  0  0  0  0  0  0  0  0  0
    0.4158    5.2894    3.3086 C   0  0  0  0  0  0  0  0  0  0  0  0
   -0.1785    4.4994    4.2859 C   0  0  0  0  0  0  0  0  0  0  0  0
   -0.0179    4.7362    5.3297 H   0  0  0  0  0  0  0  0  0  0  0  0
   -0.9661    3.4248    3.9170 C   0  0  0  0  0  0  0  0  0  0  0  0
   -1.4292    2.8084    4.6740 H   0  0  0  0  0  0  0  0  0  0  0  0
   -1.1620    3.1377    2.5750 C   0  0  0  0  0  0  0  0  0  0  0  0
   -1.7769    2.2967    2.2900 H   0  0  0  0  0  0  0  0  0  0  0  0
   -0.5730    3.9247    1.5981 C   0  0  0  0  0  0  0  0  0  0  0  0
   -0.7303    3.6961    0.5543 H   0  0  0  0  0  0  0  0  0  0  0  0
    0.2163    5.0009    1.9625 C   0  0  0  0  0  0  0  0  0  0  0  0
    0.6895    5.6363    1.1992 H   0  0  0  0  0  0  0  0  0  0  0  0
    0.4690    7.7250    4.8338 C   0  0  0  0  0  0  0  0  0  0  0  0
   -0.3936    8.1950    4.3834 H   0  0  0  0  0  0  0  0  0  0  0  0
    0.7411    7.9689    6.1310 C   0  0  0  0  0  0  0  0  0  0  0  0
   -0.2049    8.8239    6.8844 C   0  0  0  0  0  0  0  0  0  0  0  0
   -0.8692    8.3506    8.0116 C   0  0  0  0  0  0  0  0  0  0  0  0
   -0.6892    7.3446    8.3611 H   0  0  0  0  0  0  0  0  0  0  0  0
   -1.7723    9.1584    8.6770 C   0  0  0  0  0  0  0  0  0  0  0  0
   -2.2839    8.7814    9.5501 H   0  0  0  0  0  0  0  0  0  0  0  0
   -2.0230   10.4433    8.2255 C   0  0  0  0  0  0  0  0  0  0  0  0
   -2.7250   11.0736    8.7507 H   0  0  0  0  0  0  0  0  0  0  0  0
   -1.3788   10.9135    7.0936 C   0  0  0  0  0  0  0  0  0  0  0  0
   -1.5793   11.9104    6.7307 H   0  0  0  0  0  0  0  0  0  0  0  0
   -0.4788   10.1072    6.4215 C   0  0  0  0  0  0  0  0  0  0  0  0
    0.0234   10.4676    5.5359 H   0  0  0  0  0  0  0  0  0  0  0  0
    3.3744    9.6244    0.5043 C   0  0  0  0  0  0  0  0  0  0  0  0
    2.8562   10.7509   -0.1230 C   0  0  0  0  0  0  0  0  0  0  0  0
    2.2709   10.6418   -1.0255 H   0  0  0  0  0  0  0  0  0  0  0  0
    3.0587   12.0047    0.4276 C   0  0  0  0  0  0  0  0  0  0  0  0
    2.6431   12.8729   -0.0616 H   0  0  0  0  0  0  0  0  0  0  0  0
    3.7854   12.1462    1.5958 C   0  0  0  0  0  0  0  0  0  0  0  0
    3.9392   13.1257    2.0228 H   0  0  0  0  0  0  0  0  0  0  0  0
    4.3086   11.0251    2.2226 C   0  0  0  0  0  0  0  0  0  0  0  0
    4.8732   11.1315    3.1374 H   0  0  0  0  0  0  0  0  0  0  0  0
    4.1093    9.7659    1.6876 C   0  0  0  0  0  0  0  0  0  0  0  0
    4.5332    8.8842    2.1758 H   0  0  0  0  0  0  0  0  0  0  0  0
  1  3  1  0  0  0  0
  2  1  1  6  0  0  0
  2 45  1  0  0  0  0
  2  9  1  0  0  0  0
  4  1  1  0  0  0  0
  5 23  1  0  0  0  0
  6 59  1  0  0  0  0
  6  1  1  0  0  0  0
  7  6  1  0  0  0  0
  8  6  1  0  0  0  0
  9 11  2  0  0  0  0
 10  9  1  0  0  0  0
 11  5  1  0  0  0  0
 11 12  1  0  0  0  0
 12 13  2  0  0  0  0
 12 21  1  0  0  0  0
 13 15  1  0  0  0  0
 14 13  1  0  0  0  0
 15 16  1  0  0  0  0
 15 17  2  0  0  0  0
 17 18  1  0  0  0  0
 19 17  1  0  0  0  0
 19 20  1  0  0  0  0
 21 19  2  0  0  0  0
 22 21  1  0  0  0  0
 23 32  2  0  0  0  0
 23 24  1  0  0  0  0
 24 26  2  0  0  0  0
 25 24  1  0  0  0  0
 26 28  1  0  0  0  0
 26 27  1  0  0  0  0
 28 29  1  0  0  0  0
 30 31  1  0  0  0  0
 30 28  2  0  0  0  0
 32 30  1  0  0  0  0
 33 32  1  0  0  0  0
 34  2  1  0  0  0  0
 34 35  1  0  0  0  0
 35 36  1  0  0  0  0
 37 35  2  0  0  0  0
 37 38  1  0  0  0  0
 39 37  1  0  0  0  0
 40 39  1  0  0  0  0
 41 43  1  0  0  0  0
 41 39  2  0  0  0  0
 42 41  1  0  0  0  0
 43 34  2  0  0  0  0
 44 43  1  0  0  0  0
 45 47  2  0  0  0  0
 46 45  1  0  0  0  0
 47  5  1  0  0  0  0
 47 48  1  0  0  0  0
 48 49  1  0  0  0  0
 49 50  1  0  0  0  0
 49 51  2  0  0  0  0
 51 52  1  0  0  0  0
 53 51  1  0  0  0  0
 53 54  1  0  0  0  0
 55 53  2  0  0  0  0
 56 55  1  0  0  0  0
 57 48  2  0  0  0  0
 57 55  1  0  0  0  0
 58 57  1  0  0  0  0
 59 68  1  0  0  0  0
 60 62  1  0  0  0  0
 60 59  2  0  0  0  0
 61 60  1  0  0  0  0
 62 64  2  0  0  0  0
 63 62  1  0  0  0  0
 64 65  1  0  0  0  0
 64 66  1  0  0  0  0
 66 67  1  0  0  0  0
 68 69  1  0  0  0  0
 68 66  2  0  0  0  0
M  END
$$$$
