CSD_code = XIZDIW | q = 1 | S = 0 | Stoichiometry = C12H8AuCl2N2(1+) | MND = 4
 OpenBabel04212202123D

 25 28  0  0  0  0  0  0  0  0999 V2000
    5.3809    4.6460   10.8804 Au  0  0  0  0  0  0  0  0  0  0  0  0
    5.5791    6.5860   11.9594 Cl  0  0  0  0  0  0  0  0  0  0  0  0
    3.3934    5.2876   10.1023 Cl  0  0  0  0  0  0  0  0  0  0  0  0
    7.2111    3.9153   11.5259 N   0  0  0  0  0  0  0  0  0  0  0  0
    5.3356    2.8018    9.9336 N   0  0  0  0  0  0  0  0  0  0  0  0
    8.0982    4.4981   12.3056 C   0  0  0  0  0  0  0  0  0  0  0  0
    7.8469    5.4880   12.6626 H   0  0  0  0  0  0  0  0  0  0  0  0
    9.2971    3.8685   12.6501 C   0  0  0  0  0  0  0  0  0  0  0  0
    9.9957    4.3831   13.2903 H   0  0  0  0  0  0  0  0  0  0  0  0
    9.5649    2.6076   12.1683 C   0  0  0  0  0  0  0  0  0  0  0  0
   10.4844    2.1006   12.4203 H   0  0  0  0  0  0  0  0  0  0  0  0
    8.6259    1.9707   11.3347 C   0  0  0  0  0  0  0  0  0  0  0  0
    7.4423    2.6778   11.0353 C   0  0  0  0  0  0  0  0  0  0  0  0
    6.4541    2.0910   10.1968 C   0  0  0  0  0  0  0  0  0  0  0  0
    6.6551    0.8003    9.6637 C   0  0  0  0  0  0  0  0  0  0  0  0
    5.6402    0.2770    8.8400 C   0  0  0  0  0  0  0  0  0  0  0  0
    5.7560   -0.7074    8.4114 H   0  0  0  0  0  0  0  0  0  0  0  0
    4.5143    1.0285    8.5924 C   0  0  0  0  0  0  0  0  0  0  0  0
    3.7196    0.6563    7.9659 H   0  0  0  0  0  0  0  0  0  0  0  0
    4.3944    2.2990    9.1617 C   0  0  0  0  0  0  0  0  0  0  0  0
    3.5267    2.9230    8.9940 H   0  0  0  0  0  0  0  0  0  0  0  0
    8.8024    0.6678   10.7835 C   0  0  0  0  0  0  0  0  0  0  0  0
    9.7106    0.1350   11.0196 H   0  0  0  0  0  0  0  0  0  0  0  0
    7.8593    0.1076    9.9842 C   0  0  0  0  0  0  0  0  0  0  0  0
    8.0025   -0.8795    9.5725 H   0  0  0  0  0  0  0  0  0  0  0  0
  1  4  1  0  0  0  0
  1  2  1  0  0  0  0
  3  1  1  0  0  0  0
  4  6  1  0  0  0  0
  5 14  1  0  0  0  0
  5  1  1  0  0  0  0
  6  8  2  0  0  0  0
  6  7  1  0  0  0  0
  8  9  1  0  0  0  0
 10 11  1  0  0  0  0
 10  8  1  0  0  0  0
 12 10  2  0  0  0  0
 13 12  1  0  0  0  0
 13  4  1  0  0  0  0
 14 13  2  0  0  0  0
 15 24  1  0  0  0  0
 15 14  1  0  0  0  0
 16 15  2  0  0  0  0
 17 16  1  0  0  0  0
 18 16  1  0  0  0  0
 18 20  2  0  0  0  0
 19 18  1  0  0  0  0
 20  5  1  0  0  0  0
 21 20  1  0  0  0  0
 22 23  1  0  0  0  0
 22 12  1  0  0  0  0
 24 22  2  0  0  0  0
 25 24  1  0  0  0  0
M  END
$$$$
