CSD_code = XIZDUI | q = 1 | S = 0 | Stoichiometry = C14H12AuCl2N2(1+) | MND = 4
 OpenBabel04212202123D

 31 34  0  0  0  0  0  0  0  0999 V2000
    5.6846    8.2012   14.1237 Au  0  0  0  0  0  0  0  0  0  0  0  0
    7.4703    8.5808   15.3993 Cl  0  0  0  0  0  0  0  0  0  0  0  0
    4.9288    6.7437   15.6294 Cl  0  0  0  0  0  0  0  0  0  0  0  0
    6.2543    9.5166   12.6459 N   0  0  0  0  0  0  0  0  0  0  0  0
    4.0923    7.9537   12.8420 N   0  0  0  0  0  0  0  0  0  0  0  0
    7.3369   10.2682   12.5956 C   0  0  0  0  0  0  0  0  0  0  0  0
    8.0152   10.1895   13.4342 H   0  0  0  0  0  0  0  0  0  0  0  0
    7.5907   11.1146   11.5223 C   0  0  0  0  0  0  0  0  0  0  0  0
    8.4921   11.7069   11.5320 H   0  0  0  0  0  0  0  0  0  0  0  0
    6.7077   11.1994   10.4588 C   0  0  0  0  0  0  0  0  0  0  0  0
    5.5393   10.3912   10.5116 C   0  0  0  0  0  0  0  0  0  0  0  0
    5.3569    9.5603   11.6342 C   0  0  0  0  0  0  0  0  0  0  0  0
    4.2058    8.7291   11.7390 C   0  0  0  0  0  0  0  0  0  0  0  0
    3.2309    8.7263   10.7224 C   0  0  0  0  0  0  0  0  0  0  0  0
    2.1012    7.8775   10.8795 C   0  0  0  0  0  0  0  0  0  0  0  0
    2.0381    7.1055   12.0276 C   0  0  0  0  0  0  0  0  0  0  0  0
    1.2028    6.4440   12.1952 H   0  0  0  0  0  0  0  0  0  0  0  0
    3.0444    7.1657   12.9849 C   0  0  0  0  0  0  0  0  0  0  0  0
    3.0113    6.5701   13.8869 H   0  0  0  0  0  0  0  0  0  0  0  0
    4.5387   10.3681    9.4987 C   0  0  0  0  0  0  0  0  0  0  0  0
    4.6652   10.9988    8.6338 H   0  0  0  0  0  0  0  0  0  0  0  0
    3.4402    9.5762    9.5991 C   0  0  0  0  0  0  0  0  0  0  0  0
    2.7024    9.5840    8.8133 H   0  0  0  0  0  0  0  0  0  0  0  0
    6.9760   12.1002    9.3107 C   0  0  0  0  0  0  0  0  0  0  0  0
    7.0367   11.5294    8.3845 H   0  0  0  0  0  0  0  0  0  0  0  0
    7.9100   12.6365    9.4493 H   0  0  0  0  0  0  0  0  0  0  0  0
    6.1712   12.8258    9.1979 H   0  0  0  0  0  0  0  0  0  0  0  0
    1.0289    7.8168    9.8558 C   0  0  0  0  0  0  0  0  0  0  0  0
    0.5843    8.8006    9.7089 H   0  0  0  0  0  0  0  0  0  0  0  0
    0.2478    7.1239   10.1539 H   0  0  0  0  0  0  0  0  0  0  0  0
    1.4344    7.4925    8.8978 H   0  0  0  0  0  0  0  0  0  0  0  0
  1  2  1  0  0  0  0
  1  3  1  0  0  0  0
  4  1  1  0  0  0  0
  5 18  1  0  0  0  0
  5  1  1  0  0  0  0
  6  4  1  0  0  0  0
  6  7  1  0  0  0  0
  8  9  1  0  0  0  0
  8  6  2  0  0  0  0
 10 11  2  0  0  0  0
 10  8  1  0  0  0  0
 11 12  1  0  0  0  0
 12 13  2  0  0  0  0
 12  4  1  0  0  0  0
 13  5  1  0  0  0  0
 14 15  2  0  0  0  0
 14 13  1  0  0  0  0
 15 16  1  0  0  0  0
 16 17  1  0  0  0  0
 16 18  2  0  0  0  0
 18 19  1  0  0  0  0
 20 22  2  0  0  0  0
 20 11  1  0  0  0  0
 21 20  1  0  0  0  0
 22 14  1  0  0  0  0
 23 22  1  0  0  0  0
 24 26  1  0  0  0  0
 24 10  1  0  0  0  0
 25 24  1  0  0  0  0
 27 24  1  0  0  0  0
 28 30  1  0  0  0  0
 28 15  1  0  0  0  0
 29 28  1  0  0  0  0
 31 28  1  0  0  0  0
M  END
$$$$
