CSD_code = XIZFAQ | q = 1 | S = 0 | Stoichiometry = C12H8AuCl2N2(1+) | MND = 4
 OpenBabel04212202123D

 25 28  0  0  0  0  0  0  0  0999 V2000
    8.2853    3.7371    9.9503 Au  0  0  0  0  0  0  0  0  0  0  0  0
   10.2379    3.0337    9.1397 Cl  0  0  0  0  0  0  0  0  0  0  0  0
    8.0432    1.7891   11.0043 Cl  0  0  0  0  0  0  0  0  0  0  0  0
    8.3784    5.5926    9.0275 N   0  0  0  0  0  0  0  0  0  0  0  0
    6.4873    4.5186   10.6277 N   0  0  0  0  0  0  0  0  0  0  0  0
    9.3279    6.0770    8.2538 C   0  0  0  0  0  0  0  0  0  0  0  0
   10.1748    5.4295    8.0708 H   0  0  0  0  0  0  0  0  0  0  0  0
    9.2414    7.3578    7.7017 C   0  0  0  0  0  0  0  0  0  0  0  0
   10.0422    7.7144    7.0741 H   0  0  0  0  0  0  0  0  0  0  0  0
    8.1398    8.1387    7.9668 C   0  0  0  0  0  0  0  0  0  0  0  0
    8.0496    9.1313    7.5513 H   0  0  0  0  0  0  0  0  0  0  0  0
    7.1164    7.6353    8.7924 C   0  0  0  0  0  0  0  0  0  0  0  0
    7.2842    6.3334    9.3094 C   0  0  0  0  0  0  0  0  0  0  0  0
    6.2877    5.7674   10.1524 C   0  0  0  0  0  0  0  0  0  0  0  0
    5.1295    6.5067   10.4725 C   0  0  0  0  0  0  0  0  0  0  0  0
    4.1828    5.8910   11.3134 C   0  0  0  0  0  0  0  0  0  0  0  0
    3.2829    6.4235   11.5826 H   0  0  0  0  0  0  0  0  0  0  0  0
    4.4187    4.6183   11.7805 C   0  0  0  0  0  0  0  0  0  0  0  0
    3.7141    4.1197   12.4266 H   0  0  0  0  0  0  0  0  0  0  0  0
    5.5927    3.9553   11.4132 C   0  0  0  0  0  0  0  0  0  0  0  0
    5.8175    2.9543   11.7561 H   0  0  0  0  0  0  0  0  0  0  0  0
    5.9355    8.3590    9.1303 C   0  0  0  0  0  0  0  0  0  0  0  0
    5.8165    9.3533    8.7283 H   0  0  0  0  0  0  0  0  0  0  0  0
    4.9846    7.8189    9.9342 C   0  0  0  0  0  0  0  0  0  0  0  0
    4.0942    8.3749   10.1841 H   0  0  0  0  0  0  0  0  0  0  0  0
  1  5  1  0  0  0  0
  1  3  1  0  0  0  0
  2  1  1  0  0  0  0
  4 13  1  0  0  0  0
  4  1  1  0  0  0  0
  5 20  1  0  0  0  0
  6  4  1  0  0  0  0
  7  6  1  0  0  0  0
  8 10  1  0  0  0  0
  8  6  2  0  0  0  0
  9  8  1  0  0  0  0
 10 12  2  0  0  0  0
 11 10  1  0  0  0  0
 12 22  1  0  0  0  0
 12 13  1  0  0  0  0
 13 14  2  0  0  0  0
 14 15  1  0  0  0  0
 14  5  1  0  0  0  0
 15 16  2  0  0  0  0
 16 17  1  0  0  0  0
 16 18  1  0  0  0  0
 18 19  1  0  0  0  0
 20 21  1  0  0  0  0
 20 18  2  0  0  0  0
 22 24  2  0  0  0  0
 23 22  1  0  0  0  0
 24 25  1  0  0  0  0
 24 15  1  0  0  0  0
M  END
$$$$
