CSD_code = XIZFIY | q = 1 | S = 0 | Stoichiometry = C12H8AuCl2N2(1+) | MND = 4
 OpenBabel04212202123D

 25 28  0  0  0  0  0  0  0  0999 V2000
    0.4502   -0.3483    9.3610 Au  0  0  0  0  0  0  0  0  0  0  0  0
   -1.4982    0.4048   10.1380 Cl  0  0  0  0  0  0  0  0  0  0  0  0
   -0.6075   -2.0530    8.3898 Cl  0  0  0  0  0  0  0  0  0  0  0  0
    2.3313   -0.9302    8.7086 N   0  0  0  0  0  0  0  0  0  0  0  0
    1.5658    1.1822   10.2071 N   0  0  0  0  0  0  0  0  0  0  0  0
    2.6583   -1.9742    7.9754 C   0  0  0  0  0  0  0  0  0  0  0  0
    1.8454   -2.6179    7.6666 H   0  0  0  0  0  0  0  0  0  0  0  0
    3.9843   -2.2326    7.6180 C   0  0  0  0  0  0  0  0  0  0  0  0
    4.2070   -3.0992    7.0164 H   0  0  0  0  0  0  0  0  0  0  0  0
    4.9792   -1.3798    8.0382 C   0  0  0  0  0  0  0  0  0  0  0  0
    6.0113   -1.5586    7.7755 H   0  0  0  0  0  0  0  0  0  0  0  0
    4.6456   -0.2585    8.8216 C   0  0  0  0  0  0  0  0  0  0  0  0
    3.2831   -0.0724    9.1372 C   0  0  0  0  0  0  0  0  0  0  0  0
    2.8798    1.0411    9.9256 C   0  0  0  0  0  0  0  0  0  0  0  0
    3.8411    1.9628   10.3911 C   0  0  0  0  0  0  0  0  0  0  0  0
    3.3770    3.0440   11.1645 C   0  0  0  0  0  0  0  0  0  0  0  0
    4.0806    3.7726   11.5388 H   0  0  0  0  0  0  0  0  0  0  0  0
    2.0320    3.1569   11.4324 C   0  0  0  0  0  0  0  0  0  0  0  0
    1.6451    3.9729   12.0215 H   0  0  0  0  0  0  0  0  0  0  0  0
    1.1466    2.1980   10.9330 C   0  0  0  0  0  0  0  0  0  0  0  0
    0.0822    2.2478   11.1199 H   0  0  0  0  0  0  0  0  0  0  0  0
    5.5958    0.6872    9.3066 C   0  0  0  0  0  0  0  0  0  0  0  0
    6.6353    0.5354    9.0599 H   0  0  0  0  0  0  0  0  0  0  0  0
    5.2107    1.7506   10.0570 C   0  0  0  0  0  0  0  0  0  0  0  0
    5.9379    2.4611   10.4186 H   0  0  0  0  0  0  0  0  0  0  0  0
  1  2  1  0  0  0  0
  1  5  1  0  0  0  0
  3  1  1  0  0  0  0
  4 13  1  0  0  0  0
  4  1  1  0  0  0  0
  5 20  1  0  0  0  0
  6  4  1  0  0  0  0
  7  6  1  0  0  0  0
  8  6  2  0  0  0  0
  8 10  1  0  0  0  0
  9  8  1  0  0  0  0
 10 12  2  0  0  0  0
 11 10  1  0  0  0  0
 12 13  1  0  0  0  0
 12 22  1  0  0  0  0
 13 14  2  0  0  0  0
 14  5  1  0  0  0  0
 14 15  1  0  0  0  0
 15 16  2  0  0  0  0
 16 18  1  0  0  0  0
 16 17  1  0  0  0  0
 18 19  1  0  0  0  0
 20 21  1  0  0  0  0
 20 18  2  0  0  0  0
 22 24  2  0  0  0  0
 23 22  1  0  0  0  0
 24 15  1  0  0  0  0
 24 25  1  0  0  0  0
M  END
$$$$
