CSD_code = XIZJEX | q = 0 | S = 0 | Stoichiometry = C11H14Cl2N2Pd | MND = 4
 OpenBabel04212202123D

 30 32  0  0  0  0  0  0  0  0999 V2000
   20.0359    2.4623    4.9364 Pd  0  0  0  0  0  0  0  0  0  0  0  0
   19.4839    2.5282    2.7947 Cl  0  0  0  0  0  0  0  0  0  0  0  0
   21.0644    0.5326    4.5659 Cl  0  0  0  0  0  0  0  0  0  0  0  0
   18.9741    4.1147    5.4097 N   0  0  0  0  0  0  0  0  0  0  0  0
   20.5153    2.5862    6.8629 N   0  0  0  0  0  0  0  0  0  0  0  0
   18.1838    4.8474    4.6294 C   0  0  0  0  0  0  0  0  0  0  0  0
   18.1716    4.5742    3.5800 H   0  0  0  0  0  0  0  0  0  0  0  0
   17.4240    5.8938    5.1217 C   0  0  0  0  0  0  0  0  0  0  0  0
   16.7951    6.4606    4.4547 H   0  0  0  0  0  0  0  0  0  0  0  0
   17.4851    6.1990    6.4784 C   0  0  0  0  0  0  0  0  0  0  0  0
   16.9026    7.0106    6.8865 H   0  0  0  0  0  0  0  0  0  0  0  0
   18.3044    5.4436    7.2926 C   0  0  0  0  0  0  0  0  0  0  0  0
   18.3821    5.6428    8.3501 H   0  0  0  0  0  0  0  0  0  0  0  0
   19.0418    4.3968    6.7326 C   0  0  0  0  0  0  0  0  0  0  0  0
   19.9493    3.5660    7.4786 C   0  0  0  0  0  0  0  0  0  0  0  0
   20.1534    3.8171    8.5154 H   0  0  0  0  0  0  0  0  0  0  0  0
   21.5836    1.8053    7.4347 C   0  0  0  0  0  0  0  0  0  0  0  0
   21.4249    0.7732    7.1037 H   0  0  0  0  0  0  0  0  0  0  0  0
   21.7956    1.9123    8.9499 C   0  0  0  0  0  0  0  0  0  0  0  0
   22.2323    0.9752    9.2929 H   0  0  0  0  0  0  0  0  0  0  0  0
   20.8580    2.0437    9.4889 H   0  0  0  0  0  0  0  0  0  0  0  0
   22.7874    3.0718    9.1713 C   0  0  0  0  0  0  0  0  0  0  0  0
   22.3433    3.8851    9.7455 H   0  0  0  0  0  0  0  0  0  0  0  0
   23.6552    2.7186    9.7268 H   0  0  0  0  0  0  0  0  0  0  0  0
   23.2062    3.5452    7.7707 C   0  0  0  0  0  0  0  0  0  0  0  0
   22.6121    4.4100    7.4665 H   0  0  0  0  0  0  0  0  0  0  0  0
   24.2554    3.8311    7.7311 H   0  0  0  0  0  0  0  0  0  0  0  0
   22.9001    2.3621    6.8567 C   0  0  0  0  0  0  0  0  0  0  0  0
   23.6713    1.5976    6.9342 H   0  0  0  0  0  0  0  0  0  0  0  0
   22.7875    2.6437    5.8013 H   0  0  0  0  0  0  0  0  0  0  0  0
  1  4  1  0  0  0  0
  1  5  1  0  0  0  0
  2  1  1  0  0  0  0
  3  1  1  0  0  0  0
  4 14  1  0  0  0  0
  5 17  1  0  0  0  0
  5 15  1  0  0  0  0
  6  8  2  0  0  0  0
  6  4  1  0  0  0  0
  7  6  1  0  0  0  0
  8 10  1  0  0  0  0
  9  8  1  0  0  0  0
 10 11  1  0  0  0  0
 10 12  2  0  0  0  0
 12 13  1  0  0  0  0
 14 12  1  0  0  0  0
 14 15  2  0  0  0  0
 15 16  1  0  0  0  0
 17 19  1  0  0  0  0
 18 17  1  0  0  0  0
 19 22  1  0  0  0  0
 19 20  1  0  0  0  0
 19 21  1  0  0  0  0
 22 24  1  0  0  0  0
 22 23  1  0  0  0  0
 25 22  1  0  0  0  0
 26 25  1  0  0  0  0
 27 25  1  0  0  0  0
 28 29  1  0  0  0  0
 28 17  1  0  0  0  0
 28 25  1  0  0  0  0
 30 28  1  0  0  0  0
M  END
$$$$
