CSD_code = XIZSAA | q = 1 | S = 0 | Stoichiometry = C28H29BrNP2Pd(1+) | MND = 4
 OpenBabel04212202123D

 62 67  0  0  1  0  0  0  0  0999 V2000
    1.8117   -0.2880    3.2442 Pd  0  0  2  0  0  0  0  0  0  0  0  0
   -0.3694   -0.0611    2.3583 Br  0  0  0  0  0  0  0  0  0  0  0  0
    1.7005   -2.5553    3.4551 P   0  0  0  0  0  4  0  0  0  0  0  0
    2.0818   -3.1516    1.7797 C   0  0  0  0  0  0  0  0  0  0  0  0
    2.0359   -4.5055    1.4622 C   0  0  0  0  0  0  0  0  0  0  0  0
    1.7392   -5.2239    2.2136 H   0  0  0  0  0  0  0  0  0  0  0  0
    2.3567   -4.9207    0.1827 C   0  0  0  0  0  0  0  0  0  0  0  0
    2.3173   -5.9701   -0.0657 H   0  0  0  0  0  0  0  0  0  0  0  0
    2.7212   -3.9928   -0.7805 C   0  0  0  0  0  0  0  0  0  0  0  0
    2.9643   -4.3217   -1.7789 H   0  0  0  0  0  0  0  0  0  0  0  0
    2.7664   -2.6429   -0.4694 C   0  0  0  0  0  0  0  0  0  0  0  0
    3.0428   -1.9223   -1.2241 H   0  0  0  0  0  0  0  0  0  0  0  0
    2.4468   -2.2196    0.8079 C   0  0  0  0  0  0  0  0  0  0  0  0
    2.4655   -1.1445    1.0476 H   0  0  0  0  0  0  0  0  0  0  0  0
    0.4573   -3.7045    4.0787 C   0  0  0  0  0  0  0  0  0  0  0  0
   -0.7755   -3.6881    3.4245 C   0  0  0  0  0  0  0  0  0  0  0  0
   -0.9360   -3.0052    2.6007 H   0  0  0  0  0  0  0  0  0  0  0  0
   -1.7829   -4.5380    3.8382 C   0  0  0  0  0  0  0  0  0  0  0  0
   -2.7355   -4.5252    3.3321 H   0  0  0  0  0  0  0  0  0  0  0  0
   -1.5690   -5.3992    4.9038 C   0  0  0  0  0  0  0  0  0  0  0  0
   -2.3565   -6.0616    5.2283 H   0  0  0  0  0  0  0  0  0  0  0  0
   -0.3477   -5.4094    5.5580 C   0  0  0  0  0  0  0  0  0  0  0  0
   -0.1839   -6.0795    6.3882 H   0  0  0  0  0  0  0  0  0  0  0  0
    0.6685   -4.5609    5.1546 C   0  0  0  0  0  0  0  0  0  0  0  0
    1.6162   -4.5771    5.6729 H   0  0  0  0  0  0  0  0  0  0  0  0
    3.2935   -2.8938    4.3548 C   0  0  0  0  0  0  0  0  0  0  0  0
    3.1165   -2.8056    5.4321 H   0  0  0  0  0  0  0  0  0  0  0  0
    3.6566   -3.9012    4.1380 H   0  0  0  0  0  0  0  0  0  0  0  0
    4.3089   -1.8442    3.9034 C   0  0  0  0  0  0  0  0  0  0  0  0
    5.2547   -1.9721    4.4490 H   0  0  0  0  0  0  0  0  0  0  0  0
    4.5137   -1.9657    2.8321 H   0  0  0  0  0  0  0  0  0  0  0  0
    3.7698   -0.4949    4.1159 N   0  0  1  0  0  4  0  0  0  0  0  0
    3.6071   -0.3719    5.1224 H   0  0  0  0  0  0  0  0  0  0  0  0
    4.6517    0.5881    3.6630 C   0  0  0  0  0  0  0  0  0  0  0  0
    4.8353    0.4516    2.5896 H   0  0  0  0  0  0  0  0  0  0  0  0
    5.6185    0.5442    4.1843 H   0  0  0  0  0  0  0  0  0  0  0  0
    3.9811    1.9404    3.9023 C   0  0  0  0  0  0  0  0  0  0  0  0
    4.6060    2.7481    3.5187 H   0  0  0  0  0  0  0  0  0  0  0  0
    3.8219    2.1047    4.9738 H   0  0  0  0  0  0  0  0  0  0  0  0
    2.3142    1.9071    3.0582 P   0  0  0  0  0  4  0  0  0  0  0  0
    2.5166    2.7867    1.4942 C   0  0  0  0  0  0  0  0  0  0  0  0
    3.1908    4.0037    1.4151 C   0  0  0  0  0  0  0  0  0  0  0  0
    3.6271    4.4477    2.2997 H   0  0  0  0  0  0  0  0  0  0  0  0
    3.2962    4.6456    0.1954 C   0  0  0  0  0  0  0  0  0  0  0  0
    3.8133    5.5909    0.1314 H   0  0  0  0  0  0  0  0  0  0  0  0
    2.7381    4.0806   -0.9418 C   0  0  0  0  0  0  0  0  0  0  0  0
    2.8232    4.5898   -1.8892 H   0  0  0  0  0  0  0  0  0  0  0  0
    2.0722    2.8682   -0.8649 C   0  0  0  0  0  0  0  0  0  0  0  0
    1.6367    2.4307   -1.7497 H   0  0  0  0  0  0  0  0  0  0  0  0
    1.9600    2.2182    0.3510 C   0  0  0  0  0  0  0  0  0  0  0  0
    1.4297    1.2748    0.4221 H   0  0  0  0  0  0  0  0  0  0  0  0
    1.2360    2.8622    4.1549 C   0  0  0  0  0  0  0  0  0  0  0  0
    0.6648    2.1312    5.1991 C   0  0  0  0  0  0  0  0  0  0  0  0
    0.8711    1.0542    5.2934 H   0  0  0  0  0  0  0  0  0  0  0  0
   -0.1844    2.7521    6.0930 C   0  0  0  0  0  0  0  0  0  0  0  0
   -0.6323    2.1885    6.8972 H   0  0  0  0  0  0  0  0  0  0  0  0
   -0.4741    4.1003    5.9415 C   0  0  0  0  0  0  0  0  0  0  0  0
   -1.1438    4.5850    6.6347 H   0  0  0  0  0  0  0  0  0  0  0  0
    0.0755    4.8213    4.8942 C   0  0  0  0  0  0  0  0  0  0  0  0
   -0.1680    5.8653    4.7714 H   0  0  0  0  0  0  0  0  0  0  0  0
    0.9289    4.2071    3.9935 C   0  0  0  0  0  0  0  0  0  0  0  0
    1.3391    4.7633    3.1636 H   0  0  0  0  0  0  0  0  0  0  0  0
  1  2  1  1  0  0  0
  1  3  1  0  0  0  0
  1 32  1  0  0  0  0
  3 15  1  0  0  0  0
  3 26  1  0  0  0  0
  4  3  1  0  0  0  0
  5  4  1  0  0  0  0
  5  6  1  0  0  0  0
  7  5  2  0  0  0  0
  8  7  1  0  0  0  0
  9 11  2  0  0  0  0
  9  7  1  0  0  0  0
 10  9  1  0  0  0  0
 11 13  1  0  0  0  0
 12 11  1  0  0  0  0
 13 14  1  0  0  0  0
 13  4  2  0  0  0  0
 15 24  1  0  0  0  0
 16 18  1  0  0  0  0
 16 15  2  0  0  0  0
 17 16  1  0  0  0  0
 18 20  2  0  0  0  0
 19 18  1  0  0  0  0
 20 21  1  0  0  0  0
 20 22  1  0  0  0  0
 22 23  1  0  0  0  0
 24 22  2  0  0  0  0
 24 25  1  0  0  0  0
 26 27  1  0  0  0  0
 28 26  1  0  0  0  0
 29 32  1  0  0  0  0
 29 26  1  0  0  0  0
 29 30  1  0  0  0  0
 31 29  1  0  0  0  0
 32 33  1  1  0  0  0
 34 37  1  0  0  0  0
 34 32  1  0  0  0  0
 34 36  1  0  0  0  0
 35 34  1  0  0  0  0
 37 39  1  0  0  0  0
 38 37  1  0  0  0  0
 40  1  1  0  0  0  0
 40 37  1  0  0  0  0
 40 52  1  0  0  0  0
 41 40  1  0  0  0  0
 42 41  1  0  0  0  0
 42 43  1  0  0  0  0
 44 42  2  0  0  0  0
 45 44  1  0  0  0  0
 46 48  2  0  0  0  0
 46 44  1  0  0  0  0
 47 46  1  0  0  0  0
 48 50  1  0  0  0  0
 49 48  1  0  0  0  0
 50 51  1  0  0  0  0
 50 41  2  0  0  0  0
 52 53  1  0  0  0  0
 53 54  1  0  0  0  0
 53 55  2  0  0  0  0
 55 56  1  0  0  0  0
 57 55  1  0  0  0  0
 57 58  1  0  0  0  0
 59 57  2  0  0  0  0
 60 59  1  0  0  0  0
 61 52  2  0  0  0  0
 61 59  1  0  0  0  0
 62 61  1  0  0  0  0
M  END
$$$$
