CSD_code = XIZVOU | q = 0 | S = 0 | Stoichiometry = C11H13Cl2N3Zn | MND = 4
 OpenBabel04212202123D

 30 32  0  0  1  0  0  0  0  0999 V2000
    1.2680   11.7661    6.5508 Zn  0  0  0  0  0  0  0  0  0  0  0  0
    3.1944   11.7069    7.6809 Cl  0  0  0  0  0  0  0  0  0  0  0  0
   -0.1380   10.2006    5.9756 Cl  0  0  0  0  0  0  0  0  0  0  0  0
    1.5221   13.4072    5.3376 N   0  0  0  0  0  0  0  0  0  0  0  0
    1.9071   15.5786    5.3741 N   0  0  0  0  0  0  0  0  0  0  0  0
    2.0199   16.5122    5.7337 H   0  0  0  0  0  0  0  0  0  0  0  0
    0.5243   13.2942    7.8860 N   0  0  0  0  0  0  0  0  0  0  0  0
    1.5576   14.4790    6.0834 C   0  0  2  0  0  3  0  0  0  0  0  0
    1.8688   13.7910    4.0652 C   0  0  0  0  0  0  0  0  0  0  0  0
    1.9884   13.0510    2.8960 C   0  0  0  0  0  0  0  0  0  0  0  0
    1.7938   11.9906    2.8973 H   0  0  0  0  0  0  0  0  0  0  0  0
    2.3639   13.7325    1.7569 C   0  0  0  0  0  0  0  0  0  0  0  0
    2.4707   13.1938    0.8280 H   0  0  0  0  0  0  0  0  0  0  0  0
    2.6134   15.1069    1.7704 C   0  0  0  0  0  0  0  0  0  0  0  0
    2.9055   15.5950    0.8532 H   0  0  0  0  0  0  0  0  0  0  0  0
    2.4970   15.8566    2.9246 C   0  0  0  0  0  0  0  0  0  0  0  0
    2.6906   16.9180    2.9323 H   0  0  0  0  0  0  0  0  0  0  0  0
    2.1211   15.1780    4.0724 C   0  0  0  0  0  0  0  0  0  0  0  0
    1.2695   14.4809    7.5440 C   0  0  0  0  0  0  0  0  0  0  0  0
    2.2302   14.4746    8.0805 H   0  0  0  0  0  0  0  0  0  0  0  0
    0.7257   15.3949    7.8190 H   0  0  0  0  0  0  0  0  0  0  0  0
    0.1006   13.1068    9.0702 C   0  0  0  0  0  3  0  0  0  0  0  0
    0.3234   14.0711   10.1932 C   0  0  0  0  0  0  0  0  0  0  0  0
   -0.1100   15.0437    9.9585 H   0  0  0  0  0  0  0  0  0  0  0  0
    1.3945   14.2135   10.3396 H   0  0  0  0  0  0  0  0  0  0  0  0
   -0.1136   13.7036   11.1162 H   0  0  0  0  0  0  0  0  0  0  0  0
   -0.6402   11.8593    9.3828 C   0  0  0  0  0  0  0  0  0  0  0  0
   -0.8192   11.2761    8.4826 H   0  0  0  0  0  0  0  0  0  0  0  0
   -1.5875   12.0930    9.8661 H   0  0  0  0  0  0  0  0  0  0  0  0
   -0.0481   11.2630   10.0770 H   0  0  0  0  0  0  0  0  0  0  0  0
  1  2  1  0  0  0  0
  1  7  1  0  0  0  0
  3  1  1  0  0  0  0
  4  1  1  0  0  0  0
  5  6  1  0  0  0  0
  5  8  1  0  0  0  0
  7 22  1  0  0  0  0
  8  4  1  1  0  0  0
  8 19  1  0  0  0  0
  9 18  1  0  0  0  0
  9  4  1  0  0  0  0
 10 11  1  0  0  0  0
 10  9  2  0  0  0  0
 12 14  2  0  0  0  0
 12 10  1  0  0  0  0
 13 12  1  0  0  0  0
 14 16  1  0  0  0  0
 15 14  1  0  0  0  0
 16 17  1  0  0  0  0
 16 18  2  0  0  0  0
 18  5  1  0  0  0  0
 19 21  1  0  0  0  0
 19  7  1  0  0  0  0
 19 20  1  0  0  0  0
 22 27  1  0  0  0  0
 22 23  1  0  0  0  0
 23 25  1  0  0  0  0
 23 26  1  0  0  0  0
 24 23  1  0  0  0  0
 27 29  1  0  0  0  0
 27 30  1  0  0  0  0
 28 27  1  0  0  0  0
M  END
$$$$
