CSD_code = XIZVOR | q = 0 | S = 0 | Stoichiometry = C12H18BrIN2Pt | MND = 4
 OpenBabel04212202123D

 35 37  0  0  0  0  0  0  0  0999 V2000
    6.4926    4.1377    3.0063 Pt  0  0  0  0  0  0  0  0  0  0  0  0
    9.0587    0.1831   -1.8837 I   0  0  0  0  0  0  0  0  0  0  0  0
    5.5691    5.5638    4.7607 Br  0  0  0  0  0  0  0  0  0  0  0  0
    8.4228    4.9971    2.8713 N   0  0  0  0  0  4  0  0  0  0  0  0
    4.8068    2.9021    2.6693 N   0  0  0  0  0  4  0  0  0  0  0  0
    7.2255    3.0081    1.6093 C   0  0  0  0  0  0  0  0  0  0  0  0
    8.5786    3.0919    1.3125 C   0  0  0  0  0  0  0  0  0  0  0  0
    9.1059    2.2926    0.3106 C   0  0  0  0  0  0  0  0  0  0  0  0
   10.1539    2.3391    0.0541 H   0  0  0  0  0  0  0  0  0  0  0  0
    8.2556    1.4210   -0.3533 C   0  0  0  0  0  0  0  0  0  0  0  0
    6.9035    1.3224   -0.0607 C   0  0  0  0  0  0  0  0  0  0  0  0
    6.2739    0.6313   -0.6013 H   0  0  0  0  0  0  0  0  0  0  0  0
    6.3834    2.1368    0.9328 C   0  0  0  0  0  0  0  0  0  0  0  0
    9.3477    4.0383    2.1997 C   0  0  0  0  0  0  0  0  0  0  0  0
   10.1219    4.5909    1.6520 H   0  0  0  0  0  0  0  0  0  0  0  0
    9.8457    3.4473    2.9761 H   0  0  0  0  0  0  0  0  0  0  0  0
    8.2113    6.1601    2.0025 C   0  0  0  0  0  0  0  0  0  0  0  0
    7.4704    6.8248    2.4514 H   0  0  0  0  0  0  0  0  0  0  0  0
    7.8520    5.8309    1.0260 H   0  0  0  0  0  0  0  0  0  0  0  0
    9.1451    6.7188    1.8663 H   0  0  0  0  0  0  0  0  0  0  0  0
    9.0040    5.4394    4.1393 C   0  0  0  0  0  0  0  0  0  0  0  0
    9.9971    5.8758    3.9852 H   0  0  0  0  0  0  0  0  0  0  0  0
    9.0859    4.5941    4.8238 H   0  0  0  0  0  0  0  0  0  0  0  0
    8.3590    6.1887    4.5973 H   0  0  0  0  0  0  0  0  0  0  0  0
    4.9348    2.2365    1.3400 C   0  0  0  0  0  0  0  0  0  0  0  0
    4.4386    1.2579    1.3656 H   0  0  0  0  0  0  0  0  0  0  0  0
    4.4153    2.8546    0.5998 H   0  0  0  0  0  0  0  0  0  0  0  0
    4.9138    1.8957    3.7312 C   0  0  0  0  0  0  0  0  0  0  0  0
    4.9036    2.3874    4.7061 H   0  0  0  0  0  0  0  0  0  0  0  0
    5.8466    1.3401    3.6208 H   0  0  0  0  0  0  0  0  0  0  0  0
    4.0742    1.1917    3.6860 H   0  0  0  0  0  0  0  0  0  0  0  0
    3.5085    3.5704    2.7650 C   0  0  0  0  0  0  0  0  0  0  0  0
    2.6896    2.8638    2.5883 H   0  0  0  0  0  0  0  0  0  0  0  0
    3.4523    4.3764    2.0319 H   0  0  0  0  0  0  0  0  0  0  0  0
    3.3901    4.0029    3.7582 H   0  0  0  0  0  0  0  0  0  0  0  0
  1  3  1  0  0  0  0
  2 10  1  0  0  0  0
  4  1  1  0  0  0  0
  4 21  1  0  0  0  0
  5 32  1  0  0  0  0
  5  1  1  0  0  0  0
  5 28  1  0  0  0  0
  6  1  1  0  0  0  0
  7  6  1  0  0  0  0
  7 14  1  0  0  0  0
  8  7  2  0  0  0  0
  9  8  1  0  0  0  0
 10 11  2  0  0  0  0
 10  8  1  0  0  0  0
 11 13  1  0  0  0  0
 12 11  1  0  0  0  0
 13 25  1  0  0  0  0
 13  6  2  0  0  0  0
 14  4  1  0  0  0  0
 14 16  1  0  0  0  0
 15 14  1  0  0  0  0
 17 18  1  0  0  0  0
 17  4  1  0  0  0  0
 19 17  1  0  0  0  0
 20 17  1  0  0  0  0
 21 24  1  0  0  0  0
 21 23  1  0  0  0  0
 22 21  1  0  0  0  0
 25 26  1  0  0  0  0
 25  5  1  0  0  0  0
 27 25  1  0  0  0  0
 28 29  1  0  0  0  0
 30 28  1  0  0  0  0
 31 28  1  0  0  0  0
 32 35  1  0  0  0  0
 33 32  1  0  0  0  0
 34 32  1  0  0  0  0
M  END
$$$$
