CSD_code = XIZWUA | q = 0 | S = 0 | Stoichiometry = C13H17Cl2MoN3O2 | MND = 6
 OpenBabel04212202123D

 38 40  0  0  1  0  0  0  0  0999 V2000
    9.8631    0.4820   13.1441 Mo  0  0  0  0  0  0  0  0  0  0  0  0
    9.2351   -0.5681   15.1444 Cl  0  0  0  0  0  0  0  0  0  0  0  0
    9.2696    1.7631   11.2794 Cl  0  0  0  0  0  0  0  0  0  0  0  0
   11.0218    1.4904   13.7203 O   0  0  0  0  0  1  0  0  0  0  0  0
   10.5180   -0.8272   12.3982 O   0  0  0  0  0  1  0  0  0  0  0  0
    7.3126   -1.3321   12.0311 N   0  0  0  0  0  0  0  0  0  0  0  0
    7.7922   -0.2812   12.6673 N   0  0  0  0  0  0  0  0  0  0  0  0
    8.3274    1.9095   14.0065 N   0  0  0  0  0  0  0  0  0  0  0  0
    5.9717   -1.3377   12.0589 C   0  0  0  0  0  3  0  0  0  0  0  0
    5.3976   -2.1144   11.5948 H   0  0  0  0  0  0  0  0  0  0  0  0
    5.5578   -0.2251   12.7600 C   0  0  0  0  0  0  0  0  0  0  0  0
    4.5526    0.0724   12.9736 H   0  0  0  0  0  0  0  0  0  0  0  0
    6.7473    0.4188   13.1274 C   0  0  0  0  0  0  0  0  0  0  0  0
    7.0219    1.6313   13.8712 C   0  0  2  0  0  3  0  0  0  0  0  0
    6.0337    2.4537   14.4079 C   0  0  0  0  0  0  0  0  0  0  0  0
    4.9941    2.2000   14.2788 H   0  0  0  0  0  0  0  0  0  0  0  0
    6.4158    3.5871   15.1027 C   0  0  0  0  0  0  0  0  0  0  0  0
    5.6723    4.2420   15.5314 H   0  0  0  0  0  0  0  0  0  0  0  0
    7.7681    3.8653   15.2389 C   0  0  0  0  0  0  0  0  0  0  0  0
    8.1073    4.7372   15.7739 H   0  0  0  0  0  0  0  0  0  0  0  0
    8.6883    2.9976   14.6728 C   0  0  0  0  0  0  0  0  0  0  0  0
    9.7563    3.1636   14.7475 H   0  0  0  0  0  0  0  0  0  0  0  0
    8.1689   -2.2634   11.3475 C   0  0  0  0  0  0  0  0  0  0  0  0
    7.6216   -3.2008   11.2253 H   0  0  0  0  0  0  0  0  0  0  0  0
    9.0574   -2.4217   11.9675 H   0  0  0  0  0  0  0  0  0  0  0  0
    8.6163   -1.7051    9.9921 C   0  0  0  0  0  0  0  0  0  0  0  0
    9.1597   -0.7748   10.1717 H   0  0  0  0  0  0  0  0  0  0  0  0
    9.3142   -2.4186    9.5528 H   0  0  0  0  0  0  0  0  0  0  0  0
    7.4550   -1.4643    9.0320 C   0  0  0  0  0  0  0  0  0  0  0  0
    6.7484   -0.7561    9.4718 H   0  0  0  0  0  0  0  0  0  0  0  0
    6.9286   -2.4087    8.8638 H   0  0  0  0  0  0  0  0  0  0  0  0
    7.9235   -0.9078    7.6862 C   0  0  0  0  0  0  0  0  0  0  0  0
    7.0934   -0.9639    6.9776 H   0  0  0  0  0  0  0  0  0  0  0  0
    8.7300   -1.5340    7.2995 H   0  0  0  0  0  0  0  0  0  0  0  0
    8.3962    0.5380    7.7788 C   0  0  0  0  0  0  0  0  0  0  0  0
    7.6032    1.1753    8.1633 H   0  0  0  0  0  0  0  0  0  0  0  0
    8.6827    0.9017    6.7950 H   0  0  0  0  0  0  0  0  0  0  0  0
    9.2514    0.6365    8.4407 H   0  0  0  0  0  0  0  0  0  0  0  0
  1  4  1  0  0  0  0
  1  8  1  0  0  0  0
  1  2  1  0  0  0  0
  3  1  1  0  0  0  0
  5  1  1  0  0  0  0
  6  9  1  0  0  0  0
  6  7  1  0  0  0  0
  7 13  1  0  0  0  0
  7  1  1  0  0  0  0
  8 21  1  0  0  0  0
  9 11  1  0  0  0  0
 10  9  1  0  0  0  0
 11 12  1  0  0  0  0
 11 13  2  0  0  0  0
 14 13  1  6  0  0  0
 14  8  1  0  0  0  0
 14 15  1  0  0  0  0
 15 17  2  0  0  0  0
 16 15  1  0  0  0  0
 17 19  1  0  0  0  0
 17 18  1  0  0  0  0
 19 20  1  0  0  0  0
 21 22  1  0  0  0  0
 21 19  2  0  0  0  0
 23 25  1  0  0  0  0
 23  6  1  0  0  0  0
 24 23  1  0  0  0  0
 26 27  1  0  0  0  0
 26 23  1  0  0  0  0
 28 26  1  0  0  0  0
 29 30  1  0  0  0  0
 29 26  1  0  0  0  0
 31 29  1  0  0  0  0
 32 35  1  0  0  0  0
 32 29  1  0  0  0  0
 33 32  1  0  0  0  0
 34 32  1  0  0  0  0
 35 36  1  0  0  0  0
 35 38  1  0  0  0  0
 37 35  1  0  0  0  0
M  END
$$$$
