CSD_code = XIZXOV | q = 0 | S = 0 | Stoichiometry = C12H9AuCl2N2O | MND = 4
 OpenBabel04212202123D

 27 29  0  0  1  0  0  0  0  0999 V2000
    0.9229    4.8660    6.9475 Au  0  0  0  0  0  0  0  0  0  0  0  0
    0.1215    6.8011    7.7146 Cl  0  0  0  0  0  0  0  0  0  0  0  0
   -0.5388    3.7265    8.2305 Cl  0  0  0  0  0  0  0  0  0  0  0  0
    4.0628    5.1751    4.4117 O   0  0  0  0  0  0  0  0  0  0  0  0
    2.2844    5.7024    5.7438 N   0  0  0  0  0  0  0  0  0  0  0  0
    1.7797    3.1611    6.2052 N   0  0  0  0  0  0  0  0  0  0  0  0
    2.4739    7.0914    5.6189 C   0  0  0  0  0  0  0  0  0  0  0  0
    3.6442    7.6861    6.0814 C   0  0  0  0  0  0  0  0  0  0  0  0
    4.4136    7.0710    6.5228 H   0  0  0  0  0  0  0  0  0  0  0  0
    3.8134    9.0515    5.9557 C   0  0  0  0  0  0  0  0  0  0  0  0
    4.7244    9.5105    6.3097 H   0  0  0  0  0  0  0  0  0  0  0  0
    2.8176    9.8295    5.3881 C   0  0  0  0  0  0  0  0  0  0  0  0
    2.9504   10.8976    5.3013 H   0  0  0  0  0  0  0  0  0  0  0  0
    1.6492    9.2375    4.9355 C   0  0  0  0  0  0  0  0  0  0  0  0
    0.8706    9.8417    4.4948 H   0  0  0  0  0  0  0  0  0  0  0  0
    1.4734    7.8725    5.0482 C   0  0  0  0  0  0  0  0  0  0  0  0
    0.5650    7.4012    4.7038 H   0  0  0  0  0  0  0  0  0  0  0  0
    3.1375    4.8599    5.1345 C   0  0  0  0  0  0  0  0  0  0  0  0
    2.8092    3.4195    5.3978 C   0  0  2  0  0  3  0  0  0  0  0  0
    1.4317    1.9083    6.4745 C   0  0  0  0  0  0  0  0  0  0  0  0
    0.5896    1.7847    7.1425 H   0  0  0  0  0  0  0  0  0  0  0  0
    2.1183    0.8391    5.9273 C   0  0  0  0  0  0  0  0  0  0  0  0
    1.8100   -0.1668    6.1623 H   0  0  0  0  0  0  0  0  0  0  0  0
    3.1943    1.0860    5.0844 C   0  0  0  0  0  0  0  0  0  0  0  0
    3.7476    0.2695    4.6458 H   0  0  0  0  0  0  0  0  0  0  0  0
    3.5458    2.3980    4.8162 C   0  0  0  0  0  0  0  0  0  0  0  0
    4.3689    2.6698    4.1733 H   0  0  0  0  0  0  0  0  0  0  0  0
  1  2  1  0  0  0  0
  1  3  1  0  0  0  0
  4 18  2  0  0  0  0
  5  1  1  0  0  0  0
  6 20  1  0  0  0  0
  6  1  1  0  0  0  0
  7  5  1  0  0  0  0
  7  8  1  0  0  0  0
  8  9  1  0  0  0  0
 10  8  2  0  0  0  0
 10 11  1  0  0  0  0
 12 10  1  0  0  0  0
 13 12  1  0  0  0  0
 14 16  1  0  0  0  0
 14 12  2  0  0  0  0
 15 14  1  0  0  0  0
 16  7  2  0  0  0  0
 17 16  1  0  0  0  0
 18 19  1  0  0  0  0
 18  5  1  0  0  0  0
 19 26  1  6  0  0  0
 19  6  1  0  0  0  0
 20 21  1  0  0  0  0
 22 23  1  0  0  0  0
 22 20  2  0  0  0  0
 24 22  1  0  0  0  0
 25 24  1  0  0  0  0
 26 24  2  0  0  0  0
 27 26  1  0  0  0  0
M  END
$$$$
