CSD_code = XOBHUS | q = 0 | S = 0 | Stoichiometry = C20H22Cl2Ti | MND = 12
 OpenBabel04212202123D

 45 46  0  0  1  0  0  0  0  0999 V2000
    4.5252    9.2370    3.1029 Ti  0  0  0  0  0  0  0  0  0  0  0  0
    3.1380   10.8553    2.3941 Cl  0  0  0  0  0  0  0  0  0  0  0  0
    2.8086    7.8240    3.0486 Cl  0  0  0  0  0  0  0  0  0  0  0  0
    6.3875    8.0557    2.1942 C   0  0  0  0  0  0  0  0  0  0  0  0
    7.0455    7.3563    2.6907 H   0  0  0  0  0  0  0  0  0  0  0  0
    5.2582    7.7102    1.4271 C   0  0  0  0  0  0  0  0  0  0  0  0
    4.8710    6.7104    1.2763 H   0  0  0  0  0  0  0  0  0  0  0  0
    4.7943    8.8772    0.7855 C   0  0  0  0  0  0  0  0  0  0  0  0
    3.9764    8.9301    0.0777 H   0  0  0  0  0  0  0  0  0  0  0  0
    5.6543    9.9412    1.1395 C   0  0  0  0  0  0  0  0  0  0  0  0
    5.6120   10.9459    0.7406 H   0  0  0  0  0  0  0  0  0  0  0  0
    6.6389    9.4345    2.0042 C   0  0  0  0  0  3  0  0  0  0  0  0
    7.5121    9.9703    2.3512 H   0  0  0  0  0  0  0  0  0  0  0  0
    4.8195    8.5099    5.3394 C   0  0  0  0  0  0  0  0  0  0  0  0
    6.0198    9.1269    4.9158 C   0  0  0  0  0  0  0  0  0  0  0  0
    7.0007    8.6728    4.9522 H   0  0  0  0  0  0  0  0  0  0  0  0
    5.7604   10.4937    4.6562 C   0  0  2  0  0  0  0  0  0  0  0  0
    6.4995   11.2534    4.4354 H   0  0  0  0  0  0  0  0  0  0  0  0
    4.4061   10.7368    4.9552 C   0  0  0  0  0  0  0  0  0  0  0  0
    3.9184   11.7028    4.9549 H   0  0  0  0  0  0  0  0  0  0  0  0
    3.8169    9.5179    5.3455 C   0  0  0  0  0  0  0  0  0  0  0  0
    2.7953    9.4029    5.6832 H   0  0  0  0  0  0  0  0  0  0  0  0
    4.7456    7.1211    5.9418 C   0  0  0  0  0  0  0  0  0  0  0  0
    5.6199    7.1300    7.1932 C   0  0  0  0  0  0  0  0  0  0  0  0
    6.4491    6.0746    7.5437 C   0  0  0  0  0  0  0  0  0  0  0  0
    6.5235    5.2007    6.9163 H   0  0  0  0  0  0  0  0  0  0  0  0
    7.1973    6.1145    8.7087 C   0  0  0  0  0  0  0  0  0  0  0  0
    7.8350    5.2772    8.9556 H   0  0  0  0  0  0  0  0  0  0  0  0
    7.1398    7.2056    9.5615 C   0  0  0  0  0  0  0  0  0  0  0  0
    6.3038    8.2608    9.2146 C   0  0  0  0  0  0  0  0  0  0  0  0
    6.2373    9.1220    9.8644 H   0  0  0  0  0  0  0  0  0  0  0  0
    5.5576    8.2228    8.0542 C   0  0  0  0  0  0  0  0  0  0  0  0
    4.9174    9.0583    7.8100 H   0  0  0  0  0  0  0  0  0  0  0  0
    3.3128    6.7743    6.3719 C   0  0  0  0  0  0  0  0  0  0  0  0
    3.2932    5.7737    6.7985 H   0  0  0  0  0  0  0  0  0  0  0  0
    2.6471    6.8025    5.5121 H   0  0  0  0  0  0  0  0  0  0  0  0
    2.9570    7.4690    7.1287 H   0  0  0  0  0  0  0  0  0  0  0  0
    5.2116    6.0849    4.9097 C   0  0  0  0  0  0  0  0  0  0  0  0
    6.2725    6.1969    4.6943 H   0  0  0  0  0  0  0  0  0  0  0  0
    4.6378    6.2135    3.9906 H   0  0  0  0  0  0  0  0  0  0  0  0
    5.0358    5.0766    5.2768 H   0  0  0  0  0  0  0  0  0  0  0  0
    7.9597    7.2627   10.8143 C   0  0  0  0  0  0  0  0  0  0  0  0
    8.3691    6.2853   11.0574 H   0  0  0  0  0  0  0  0  0  0  0  0
    7.3576    7.6105   11.6516 H   0  0  0  0  0  0  0  0  0  0  0  0
    8.7886    7.9598   10.6884 H   0  0  0  0  0  0  0  0  0  0  0  0
  1 17  1  0  0  0  0
  2  1  1  0  0  0  0
  3  1  1  0  0  0  0
  4  5  1  0  0  0  0
  6  4  2  0  0  0  0
  7  6  1  0  0  0  0
  8 10  2  0  0  0  0
  8  6  1  0  0  0  0
  9  8  1  0  0  0  0
 10 12  1  0  0  0  0
 11 10  1  0  0  0  0
 12  4  1  0  0  0  0
 12 13  1  0  0  0  0
 14 21  1  0  0  0  0
 14 23  1  0  0  0  0
 15 16  1  0  0  0  0
 15 14  2  0  0  0  0
 17 18  1  6  0  0  0
 17 15  1  0  0  0  0
 17 19  1  0  0  0  0
 19 21  2  0  0  0  0
 20 19  1  0  0  0  0
 21 22  1  0  0  0  0
 23 34  1  0  0  0  0
 23 24  1  0  0  0  0
 24 25  2  0  0  0  0
 24 32  1  0  0  0  0
 25 27  1  0  0  0  0
 26 25  1  0  0  0  0
 27 28  1  0  0  0  0
 27 29  2  0  0  0  0
 29 42  1  0  0  0  0
 30 29  1  0  0  0  0
 30 31  1  0  0  0  0
 32 30  2  0  0  0  0
 33 32  1  0  0  0  0
 34 35  1  0  0  0  0
 34 37  1  0  0  0  0
 36 34  1  0  0  0  0
 38 41  1  0  0  0  0
 38 23  1  0  0  0  0
 39 38  1  0  0  0  0
 40 38  1  0  0  0  0
 42 43  1  0  0  0  0
 42 44  1  0  0  0  0
 45 42  1  0  0  0  0
M  END
$$$$
