CSD_code = XOBKEG | q = 0 | S = 0 | Stoichiometry = C6H14I2N2Pt | MND = 4
 OpenBabel04212202123D

 25 26  0  0  1  0  0  0  0  0999 V2000
    5.6806    3.6135    2.3651 Pt  0  0  0  0  0  0  0  0  0  0  0  0
    6.1427    3.9627    4.8658 I   0  0  0  0  0  0  0  0  0  0  0  0
    6.4735    5.9160    1.5538 I   0  0  0  0  0  0  0  0  0  0  0  0
    5.1658    3.0254    0.3468 N   0  0  0  0  0  4  0  0  0  0  0  0
    4.2912    3.5090    0.1308 H   0  0  0  0  0  0  0  0  0  0  0  0
    5.8541    3.3478   -0.3338 H   0  0  0  0  0  0  0  0  0  0  0  0
    4.9629    1.6046    2.7283 N   0  0  0  0  0  4  0  0  0  0  0  0
    5.7958    1.0330    2.8862 H   0  0  0  0  0  0  0  0  0  0  0  0
    4.4026    1.5468    3.5791 H   0  0  0  0  0  0  0  0  0  0  0  0
    4.9788    1.5711    0.2890 C   0  0  2  0  0  0  0  0  0  0  0  0
    5.9745    1.1074    0.2980 H   0  0  0  0  0  0  0  0  0  0  0  0
    4.2252    1.1216   -0.9649 C   0  0  0  0  0  0  0  0  0  0  0  0
    4.7800    1.4227   -1.8563 H   0  0  0  0  0  0  0  0  0  0  0  0
    3.2481    1.6123   -0.9937 H   0  0  0  0  0  0  0  0  0  0  0  0
    4.0318   -0.3929   -0.9568 C   0  0  0  0  0  0  0  0  0  0  0  0
    3.4752   -0.6937   -1.8448 H   0  0  0  0  0  0  0  0  0  0  0  0
    5.0066   -0.8844   -0.9916 H   0  0  0  0  0  0  0  0  0  0  0  0
    3.2832   -0.8325    0.2981 C   0  0  0  0  0  0  0  0  0  0  0  0
    3.1715   -1.9171    0.3021 H   0  0  0  0  0  0  0  0  0  0  0  0
    2.2828   -0.3941    0.2993 H   0  0  0  0  0  0  0  0  0  0  0  0
    4.0331   -0.3918    1.5529 C   0  0  0  0  0  0  0  0  0  0  0  0
    3.4802   -0.6949    2.4448 H   0  0  0  0  0  0  0  0  0  0  0  0
    5.0120   -0.8789    1.5807 H   0  0  0  0  0  0  0  0  0  0  0  0
    4.2240    1.1266    1.5541 C   0  0  1  0  0  0  0  0  0  0  0  0
    3.2396    1.6141    1.5601 H   0  0  0  0  0  0  0  0  0  0  0  0
  1  7  1  0  0  0  0
  1  2  1  0  0  0  0
  3  1  1  0  0  0  0
  4  1  1  0  0  0  0
  5  4  1  0  0  0  0
  6  4  1  0  0  0  0
  7  8  1  0  0  0  0
  7  9  1  0  0  0  0
 10 11  1  1  0  0  0
 10  4  1  0  0  0  0
 10 24  1  0  0  0  0
 12 15  1  0  0  0  0
 12 10  1  0  0  0  0
 13 12  1  0  0  0  0
 14 12  1  0  0  0  0
 15 18  1  0  0  0  0
 16 15  1  0  0  0  0
 17 15  1  0  0  0  0
 18 20  1  0  0  0  0
 18 19  1  0  0  0  0
 18 21  1  0  0  0  0
 21 24  1  0  0  0  0
 21 23  1  0  0  0  0
 21 22  1  0  0  0  0
 24 25  1  6  0  0  0
 24  7  1  0  0  0  0
M  END
$$$$
