CSD_code = XOBLOR | q = 0 | S = 0 | Stoichiometry = C26H20Br2N2O3PRe | MND = 6
 OpenBabel04212202123D

 55 60  0  0  1  0  0  0  0  0999 V2000
   10.6288    9.7823   11.9238 Re  0  0  0  0  0  0  0  0  0  0  0  0
   11.1869   11.1823   11.2391 O   0  0  0  0  0  1  0  0  0  0  0  0
   10.5676    7.8273   12.7907 O   0  0  0  0  0  0  0  0  0  0  0  0
   11.3656    5.7342   12.8053 O   0  0  0  0  0  0  0  0  0  0  0  0
   12.0968    8.5868   10.8733 N   0  0  0  0  0  0  0  0  0  0  0  0
   13.0316    6.6293   10.4692 N   0  0  0  0  0  0  0  0  0  0  0  0
   13.2053    5.6408   10.5565 H   0  0  0  0  0  0  0  0  0  0  0  0
   11.9986    9.9171   13.9657 P   0  0  0  0  0  4  0  0  0  0  0  0
    8.8086   10.6571   13.2698 Br  0  0  0  0  0  0  0  0  0  0  0  0
    9.0051    8.9848   10.2585 Br  0  0  0  0  0  0  0  0  0  0  0  0
   11.1886    9.6538   15.5670 C   0  0  0  0  0  0  0  0  0  0  0  0
   11.3968   10.5524   16.6104 C   0  0  0  0  0  0  0  0  0  0  0  0
   12.0347   11.4125   16.4699 H   0  0  0  0  0  0  0  0  0  0  0  0
   10.7771   10.3460   17.8291 C   0  0  0  0  0  0  0  0  0  0  0  0
   10.9412   11.0462   18.6344 H   0  0  0  0  0  0  0  0  0  0  0  0
    9.9432    9.2559   18.0141 C   0  0  0  0  0  0  0  0  0  0  0  0
    9.4565    9.1038   18.9656 H   0  0  0  0  0  0  0  0  0  0  0  0
    9.7234    8.3685   16.9736 C   0  0  0  0  0  0  0  0  0  0  0  0
    9.0634    7.5252   17.1085 H   0  0  0  0  0  0  0  0  0  0  0  0
   10.3389    8.5638   15.7517 C   0  0  0  0  0  0  0  0  0  0  0  0
   10.1421    7.8792   14.9394 H   0  0  0  0  0  0  0  0  0  0  0  0
   12.8379   11.5195   14.1139 C   0  0  0  0  0  0  0  0  0  0  0  0
   14.0842   11.6082   14.7300 C   0  0  0  0  0  0  0  0  0  0  0  0
   14.5673   10.7149   15.1024 H   0  0  0  0  0  0  0  0  0  0  0  0
   14.6983   12.8396   14.8634 C   0  0  0  0  0  0  0  0  0  0  0  0
   15.6661   12.9062   15.3380 H   0  0  0  0  0  0  0  0  0  0  0  0
   14.0736   13.9837   14.3918 C   0  0  0  0  0  0  0  0  0  0  0  0
   14.5582   14.9427   14.4974 H   0  0  0  0  0  0  0  0  0  0  0  0
   12.8312   13.8977   13.7850 C   0  0  0  0  0  0  0  0  0  0  0  0
   12.3435   14.7877   13.4182 H   0  0  0  0  0  0  0  0  0  0  0  0
   12.2107   12.6689   13.6442 C   0  0  0  0  0  0  0  0  0  0  0  0
   11.2447   12.5999   13.1606 H   0  0  0  0  0  0  0  0  0  0  0  0
   13.3460    8.7138   13.8402 C   0  0  0  0  0  0  0  0  0  0  0  0
   14.3098    8.9415   12.8567 C   0  0  0  0  0  0  0  0  0  0  0  0
   14.2744    9.8595   12.2824 H   0  0  0  0  0  0  0  0  0  0  0  0
   15.2879    7.9973   12.6159 C   0  0  0  0  0  0  0  0  0  0  0  0
   16.0287    8.1742   11.8496 H   0  0  0  0  0  0  0  0  0  0  0  0
   15.3067    6.8196   13.3502 C   0  0  0  0  0  0  0  0  0  0  0  0
   16.0648    6.0761   13.1539 H   0  0  0  0  0  0  0  0  0  0  0  0
   14.3574    6.5957   14.3331 C   0  0  0  0  0  0  0  0  0  0  0  0
   14.3717    5.6791   14.9024 H   0  0  0  0  0  0  0  0  0  0  0  0
   13.3735    7.5381   14.5805 C   0  0  0  0  0  0  0  0  0  0  0  0
   12.6269    7.3578   15.3405 H   0  0  0  0  0  0  0  0  0  0  0  0
   12.9850    8.7652    9.8516 C   0  0  0  0  0  0  0  0  0  0  0  0
   13.3209    9.9069    9.1344 C   0  0  0  0  0  0  0  0  0  0  0  0
   12.8316   10.8442    9.3539 H   0  0  0  0  0  0  0  0  0  0  0  0
   14.2771    9.7659    8.1529 C   0  0  0  0  0  0  0  0  0  0  0  0
   14.5675   10.6237    7.5666 H   0  0  0  0  0  0  0  0  0  0  0  0
   14.8824    8.5319    7.8899 C   0  0  0  0  0  0  0  0  0  0  0  0
   15.6248    8.4726    7.1087 H   0  0  0  0  0  0  0  0  0  0  0  0
   14.5565    7.3906    8.5939 C   0  0  0  0  0  0  0  0  0  0  0  0
   15.0231    6.4414    8.3826 H   0  0  0  0  0  0  0  0  0  0  0  0
   13.5942    7.5179    9.5852 C   0  0  0  0  0  0  0  0  0  0  0  0
   12.1388    7.3158   11.2080 C   0  0  1  0  0  3  0  0  0  0  0  0
   11.2891    6.8595   12.3633 C   0  0  0  0  0  0  0  0  0  0  0  0
  1  3  1  0  0  0  0
  1  9  1  0  0  0  0
  1  8  1  0  0  0  0
  2  1  1  0  0  0  0
  5 54  1  0  0  0  0
  5  1  1  0  0  0  0
  6  7  1  0  0  0  0
  6 54  1  0  0  0  0
  8 22  1  0  0  0  0
  8 11  1  0  0  0  0
 10  1  1  0  0  0  0
 11 20  2  0  0  0  0
 11 12  1  0  0  0  0
 12 14  2  0  0  0  0
 13 12  1  0  0  0  0
 14 16  1  0  0  0  0
 14 15  1  0  0  0  0
 16 17  1  0  0  0  0
 18 19  1  0  0  0  0
 18 16  2  0  0  0  0
 20 18  1  0  0  0  0
 21 20  1  0  0  0  0
 22 23  1  0  0  0  0
 23 25  2  0  0  0  0
 23 24  1  0  0  0  0
 25 26  1  0  0  0  0
 27 28  1  0  0  0  0
 27 25  1  0  0  0  0
 29 27  2  0  0  0  0
 30 29  1  0  0  0  0
 31 29  1  0  0  0  0
 31 22  2  0  0  0  0
 32 31  1  0  0  0  0
 33  8  1  0  0  0  0
 33 42  1  0  0  0  0
 34 33  2  0  0  0  0
 35 34  1  0  0  0  0
 36 34  1  0  0  0  0
 36 38  2  0  0  0  0
 37 36  1  0  0  0  0
 38 40  1  0  0  0  0
 39 38  1  0  0  0  0
 40 42  2  0  0  0  0
 40 41  1  0  0  0  0
 42 43  1  0  0  0  0
 44  5  1  0  0  0  0
 45 46  1  0  0  0  0
 45 44  2  0  0  0  0
 47 45  1  0  0  0  0
 48 47  1  0  0  0  0
 49 47  2  0  0  0  0
 49 51  1  0  0  0  0
 50 49  1  0  0  0  0
 51 53  2  0  0  0  0
 52 51  1  0  0  0  0
 53 44  1  0  0  0  0
 53  6  1  0  0  0  0
 54 55  1  1  0  0  0
 55  3  1  0  0  0  0
 55  4  2  0  0  0  0
M  END
$$$$
