CSD_code = XOBNEJ | q = 1 | S = 0 | Stoichiometry = C26H23ClN4PPd(1+) | MND = 4
 OpenBabel04212202123D

 56 62  0  0  1  0  0  0  0  0999 V2000
    6.6932    7.3180    2.0600 Pd  0  0  2  0  0  0  0  0  0  0  0  0
    8.0502    7.3603    3.8212 P   0  0  0  0  0  4  0  0  0  0  0  0
    6.8733    5.0604    2.3784 Cl  0  0  0  0  0  0  0  0  0  0  0  0
    4.7739    6.5678   -0.3493 N   0  0  0  0  0  0  0  0  0  0  0  0
    5.6406    8.5371   -0.2335 N   0  0  0  0  0  0  0  0  0  0  0  0
    7.8097   10.1829    3.7451 N   0  0  0  0  0  0  0  0  0  0  0  0
    8.4887    9.4883    5.6939 N   0  0  0  0  0  0  0  0  0  0  0  0
    9.7340    6.7208    3.9867 C   0  0  0  0  0  0  0  0  0  0  0  0
   10.8407    7.5686    4.0030 C   0  0  0  0  0  0  0  0  0  0  0  0
   10.7054    8.6420    3.9571 H   0  0  0  0  0  0  0  0  0  0  0  0
   12.1140    7.0330    4.0634 C   0  0  0  0  0  0  0  0  0  0  0  0
   12.9706    7.6896    4.0804 H   0  0  0  0  0  0  0  0  0  0  0  0
   12.2904    5.6582    4.0921 C   0  0  0  0  0  0  0  0  0  0  0  0
   13.2865    5.2461    4.1369 H   0  0  0  0  0  0  0  0  0  0  0  0
   11.1921    4.8138    4.0457 C   0  0  0  0  0  0  0  0  0  0  0  0
   11.3311    3.7438    4.0476 H   0  0  0  0  0  0  0  0  0  0  0  0
    9.9137    5.3385    3.9860 C   0  0  0  0  0  0  0  0  0  0  0  0
    9.0522    4.6884    3.9175 H   0  0  0  0  0  0  0  0  0  0  0  0
    7.0475    6.6613    5.1730 C   0  0  0  0  0  0  0  0  0  0  0  0
    7.5249    5.8508    6.1961 C   0  0  0  0  0  0  0  0  0  0  0  0
    8.5794    5.6269    6.2717 H   0  0  0  0  0  0  0  0  0  0  0  0
    6.6364    5.3015    7.1059 C   0  0  0  0  0  0  0  0  0  0  0  0
    7.0071    4.6622    7.8924 H   0  0  0  0  0  0  0  0  0  0  0  0
    5.2797    5.5579    7.0011 C   0  0  0  0  0  0  0  0  0  0  0  0
    4.5928    5.1193    7.7081 H   0  0  0  0  0  0  0  0  0  0  0  0
    4.7983    6.3580    5.9746 C   0  0  0  0  0  0  0  0  0  0  0  0
    3.7385    6.5388    5.8818 H   0  0  0  0  0  0  0  0  0  0  0  0
    5.6760    6.9026    5.0576 C   0  0  0  0  0  0  0  0  0  0  0  0
    5.3023    7.5040    4.2164 H   0  0  0  0  0  0  0  0  0  0  0  0
    7.8248   11.2557    4.5895 C   0  0  0  0  0  0  0  0  0  0  0  0
    7.5107   12.2343    4.2925 H   0  0  0  0  0  0  0  0  0  0  0  0
    8.2515   10.8208    5.8033 C   0  0  0  0  0  0  0  0  0  0  0  0
    8.3969   11.3601    6.7168 H   0  0  0  0  0  0  0  0  0  0  0  0
    8.2120    9.0955    4.4356 C   0  0  1  0  0  3  0  0  0  0  0  0
    7.4438   10.3071    2.3707 C   0  0  0  0  0  0  0  0  0  0  0  0
    6.7931    9.2817    1.6853 C   0  0  0  0  0  0  0  0  0  0  0  0
    6.3495    9.5836    0.3828 C   0  0  0  0  0  0  0  0  0  0  0  0
    6.5664   10.8072   -0.2240 C   0  0  0  0  0  0  0  0  0  0  0  0
    6.2137   11.0063   -1.2232 H   0  0  0  0  0  0  0  0  0  0  0  0
    7.2821   11.7748    0.4658 C   0  0  0  0  0  0  0  0  0  0  0  0
    7.5021   12.7191   -0.0050 H   0  0  0  0  0  0  0  0  0  0  0  0
    7.7084   11.5359    1.7550 C   0  0  0  0  0  0  0  0  0  0  0  0
    8.2805   12.2932    2.2682 H   0  0  0  0  0  0  0  0  0  0  0  0
    5.5249    7.3557    0.4257 C   0  0  0  0  0  0  0  0  0  0  0  0
    4.4096    7.2444   -1.4845 C   0  0  0  0  0  0  0  0  0  0  0  0
    3.8007    6.7979   -2.2434 H   0  0  0  0  0  0  0  0  0  0  0  0
    4.9526    8.4847   -1.4148 C   0  0  0  0  0  0  0  0  0  0  0  0
    4.8957    9.2987   -2.1065 H   0  0  0  0  0  0  0  0  0  0  0  0
    4.3766    5.2181   -0.0454 C   0  0  0  0  0  0  0  0  0  0  0  0
    4.8620    4.9059    0.8814 H   0  0  0  0  0  0  0  0  0  0  0  0
    4.6793    4.5486   -0.8509 H   0  0  0  0  0  0  0  0  0  0  0  0
    3.2937    5.1621    0.0739 H   0  0  0  0  0  0  0  0  0  0  0  0
    8.9753    8.6625    6.7637 C   0  0  0  0  0  0  0  0  0  0  0  0
    9.6309    7.8884    6.3676 H   0  0  0  0  0  0  0  0  0  0  0  0
    8.1448    8.1899    7.2923 H   0  0  0  0  0  0  0  0  0  0  0  0
    9.5336    9.2810    7.4648 H   0  0  0  0  0  0  0  0  0  0  0  0
  1  3  1  6  0  0  0
  1  2  1  0  0  0  0
  2  8  1  0  0  0  0
  2 34  1  0  0  0  0
  2 19  1  0  0  0  0
  4 49  1  0  0  0  0
  4 44  1  0  0  0  0
  5 37  1  0  0  0  0
  5 44  1  0  0  0  0
  6 30  1  0  0  0  0
  7 32  1  0  0  0  0
  7 53  1  0  0  0  0
  8  9  1  0  0  0  0
  9 11  2  0  0  0  0
 10  9  1  0  0  0  0
 11 12  1  0  0  0  0
 11 13  1  0  0  0  0
 13 14  1  0  0  0  0
 15 16  1  0  0  0  0
 15 13  2  0  0  0  0
 17  8  2  0  0  0  0
 17 15  1  0  0  0  0
 18 17  1  0  0  0  0
 19 20  1  0  0  0  0
 20 21  1  0  0  0  0
 20 22  2  0  0  0  0
 22 23  1  0  0  0  0
 24 22  1  0  0  0  0
 24 25  1  0  0  0  0
 26 24  2  0  0  0  0
 27 26  1  0  0  0  0
 28 19  2  0  0  0  0
 28 26  1  0  0  0  0
 29 28  1  0  0  0  0
 30 32  2  0  0  0  0
 31 30  1  0  0  0  0
 32 33  1  0  0  0  0
 34  6  1  1  0  0  0
 34  7  1  0  0  0  0
 35  6  1  0  0  0  0
 36  1  1  0  0  0  0
 36 35  2  0  0  0  0
 37 36  1  0  0  0  0
 38 37  2  0  0  0  0
 38 40  1  0  0  0  0
 39 38  1  0  0  0  0
 40 42  2  0  0  0  0
 41 40  1  0  0  0  0
 42 43  1  0  0  0  0
 42 35  1  0  0  0  0
 44  1  2  0  0  0  0
 45 47  2  0  0  0  0
 45  4  1  0  0  0  0
 46 45  1  0  0  0  0
 47  5  1  0  0  0  0
 48 47  1  0  0  0  0
 49 52  1  0  0  0  0
 49 50  1  0  0  0  0
 51 49  1  0  0  0  0
 53 55  1  0  0  0  0
 53 56  1  0  0  0  0
 54 53  1  0  0  0  0
M  END
$$$$
