CSD_code = XOBXOD | q = 0 | S = 0 | Stoichiometry = C12H18Br2N4Ni | MND = 4
 OpenBabel04212202123D

 37 39  0  0  1  0  0  0  0  0999 V2000
   -2.6655    8.3215   13.8143 C   0  0  0  0  0  0  0  0  0  0  0  0
   -3.7480    8.4236   13.7395 H   0  0  0  0  0  0  0  0  0  0  0  0
   -2.2241    9.3166   13.8570 H   0  0  0  0  0  0  0  0  0  0  0  0
   -2.4338    7.8014   14.7391 H   0  0  0  0  0  0  0  0  0  0  0  0
   -2.1227    7.5446   12.6720 C   0  0  1  0  0  3  0  0  0  0  0  0
   -1.4879    6.3201   12.6711 C   0  0  0  0  0  0  0  0  0  0  0  0
   -1.2662    5.7061   13.5188 H   0  0  0  0  0  0  0  0  0  0  0  0
   -1.1888    6.0383   11.3350 C   0  0  0  0  0  0  0  0  0  0  0  0
   -0.5201    4.8530   10.7408 C   0  0  0  0  0  0  0  0  0  0  0  0
    0.5563    4.8999   10.9085 H   0  0  0  0  0  0  0  0  0  0  0  0
   -0.7036    4.8311    9.6576 H   0  0  0  0  0  0  0  0  0  0  0  0
   -0.9028    3.9372   11.1855 H   0  0  0  0  0  0  0  0  0  0  0  0
   -2.8865    9.1110   10.8732 C   0  0  0  0  0  0  0  0  0  0  0  0
   -3.2797    9.6628   11.7264 H   0  0  0  0  0  0  0  0  0  0  0  0
   -3.7274    8.7601   10.2606 H   0  0  0  0  0  0  0  0  0  0  0  0
   -2.0002   10.0303   10.0240 C   0  0  0  0  0  0  0  0  0  0  0  0
   -2.4548   11.0335   10.0013 H   0  0  0  0  0  0  0  0  0  0  0  0
   -1.0076   10.1143   10.4795 H   0  0  0  0  0  0  0  0  0  0  0  0
   -1.0205   10.3530    7.8093 C   0  0  0  0  0  0  0  0  0  0  0  0
   -1.4056   11.3834    7.8157 H   0  0  0  0  0  0  0  0  0  0  0  0
    0.0014   10.3559    8.2017 H   0  0  0  0  0  0  0  0  0  0  0  0
   -1.0520    9.8085    6.4234 C   0  0  0  0  0  0  0  0  0  0  0  0
   -1.9188   10.0633    5.3888 C   0  0  0  0  0  0  0  0  0  0  0  0
   -2.7131   10.7844    5.3903 H   0  0  0  0  0  0  0  0  0  0  0  0
   -1.5664    9.2104    4.3261 C   0  0  0  0  0  0  0  0  0  0  0  0
   -2.0445    9.1567    3.3684 H   0  0  0  0  0  0  0  0  0  0  0  0
   -0.5030    8.4587    4.7483 C   0  0  0  0  0  0  0  0  0  0  0  0
    0.0521    7.6960    4.2385 H   0  0  0  0  0  0  0  0  0  0  0  0
   -3.1272    6.3709    7.9450 Br  0  0  0  0  0  0  0  0  0  0  0  0
    0.9713    7.4666    8.9861 Br  0  0  0  0  0  0  0  0  0  0  0  0
   -1.6207    7.0446   10.5827 N   0  0  0  0  0  0  0  0  0  0  0  0
   -2.1850    7.9594   11.3862 N   0  0  2  0  0  0  0  0  0  0  0  0
   -1.8428    9.4886    8.6779 N   0  0  0  0  0  4  0  0  0  0  0  0
   -2.7696    9.4437    8.2420 H   0  0  0  0  0  0  0  0  0  0  0  0
   -0.2058    8.8173    6.0211 N   0  0  0  0  0  0  0  0  0  0  0  0
    0.5643    8.4632    6.5701 H   0  0  0  0  0  0  0  0  0  0  0  0
   -1.2443    7.1911    8.7759 Ni  0  0  0  0  0  0  0  0  0  0  0  0
  1  3  1  0  0  0  0
  1  4  1  0  0  0  0
  2  1  1  0  0  0  0
  5  1  1  6  0  0  0
  6  5  1  0  0  0  0
  6  7  1  0  0  0  0
  8  6  2  0  0  0  0
  9 10  1  0  0  0  0
  9 12  1  0  0  0  0
  9  8  1  0  0  0  0
 11  9  1  0  0  0  0
 13 32  1  0  0  0  0
 13 14  1  0  0  0  0
 15 13  1  0  0  0  0
 16 18  1  0  0  0  0
 16 13  1  0  0  0  0
 17 16  1  0  0  0  0
 19 20  1  0  0  0  0
 19 21  1  0  0  0  0
 19 33  1  0  0  0  0
 22 19  1  0  0  0  0
 23 24  1  0  0  0  0
 23 22  2  0  0  0  0
 25 27  2  0  0  0  0
 25 23  1  0  0  0  0
 26 25  1  0  0  0  0
 27 35  1  0  0  0  0
 28 27  1  0  0  0  0
 29 37  1  0  0  0  0
 31  8  1  0  0  0  0
 32 31  1  6  0  0  0
 32  5  1  0  0  0  0
 33 37  1  0  0  0  0
 33 16  1  0  0  0  0
 34 33  1  0  0  0  0
 35 22  1  0  0  0  0
 35 36  1  0  0  0  0
 37 30  1  0  0  0  0
 37 31  1  0  0  0  0
M  END
$$$$
