CSD_code = XOCGII | q = 0 | S = 0 | Stoichiometry = C20H34Cl2N10O2Pd | MND = 4
 OpenBabel04212202123D

 69 72  0  0  1  0  0  0  0  0999 V2000
    0.1691    9.7136   11.7023 Pd  0  0  0  0  0  0  0  0  0  0  0  0
    1.4466    8.2136   12.8693 Cl  0  0  0  0  0  0  0  0  0  0  0  0
    1.6436   10.8844   11.3331 N   0  0  0  0  0  0  0  0  0  0  0  0
    4.8110   11.0481    8.7741 O   0  0  0  0  0  0  0  0  0  0  0  0
    2.7561   12.2551   10.1408 N   0  0  0  0  0  0  0  0  0  0  0  0
    2.0522   11.8867   12.0884 N   0  0  0  0  0  0  0  0  0  0  0  0
    5.4991   13.0173    7.9002 N   0  0  0  0  0  0  0  0  0  0  0  0
    5.2922   13.9964    7.7785 H   0  0  0  0  0  0  0  0  0  0  0  0
    2.7214   12.7078   11.3985 N   0  0  0  0  0  0  0  0  0  0  0  0
    9.2052   12.8138    7.1356 C   0  0  0  0  0  0  0  0  0  0  0  0
    9.3681   11.7804    7.4466 H   0  0  0  0  0  0  0  0  0  0  0  0
   10.0540   13.4060    7.4811 H   0  0  0  0  0  0  0  0  0  0  0  0
    6.7214   12.5277    7.2857 C   0  0  0  0  0  0  0  0  0  0  0  0
    6.8205   11.4850    7.6019 H   0  0  0  0  0  0  0  0  0  0  0  0
    2.0766   11.0928   10.0997 C   0  0  2  0  0  3  0  0  0  0  0  0
    3.4099   12.9845    9.1005 C   0  0  0  0  0  0  0  0  0  0  0  0
    3.6868   13.9534    9.5205 H   0  0  0  0  0  0  0  0  0  0  0  0
    2.7160   13.1268    8.2650 H   0  0  0  0  0  0  0  0  0  0  0  0
    1.8139   10.2030    8.9521 C   0  0  0  0  0  0  0  0  0  0  0  0
    2.7520    9.9144    8.4799 H   0  0  0  0  0  0  0  0  0  0  0  0
    1.1769   10.7084    8.2253 H   0  0  0  0  0  0  0  0  0  0  0  0
    1.2849    9.3073    9.3235 H   0  0  0  0  0  0  0  0  0  0  0  0
    4.6544   12.2318    8.5844 C   0  0  0  0  0  0  0  0  0  0  0  0
    7.9070   12.0733    5.1259 C   0  0  0  0  0  0  0  0  0  0  0  0
    8.0397   11.0231    5.3928 H   0  0  0  0  0  0  0  0  0  0  0  0
    7.8314   12.1364    4.0391 H   0  0  0  0  0  0  0  0  0  0  0  0
    6.6210   12.5946    5.7608 C   0  0  0  0  0  0  0  0  0  0  0  0
    5.7684   12.0020    5.4246 H   0  0  0  0  0  0  0  0  0  0  0  0
    6.4567   13.6315    5.4557 H   0  0  0  0  0  0  0  0  0  0  0  0
    7.9219   13.3359    7.7759 C   0  0  0  0  0  0  0  0  0  0  0  0
    7.7821   14.3865    7.5070 H   0  0  0  0  0  0  0  0  0  0  0  0
    7.9894   13.2693    8.8631 H   0  0  0  0  0  0  0  0  0  0  0  0
    9.1081   12.8764    5.6147 C   0  0  0  0  0  0  0  0  0  0  0  0
    9.0031   13.9169    5.2991 H   0  0  0  0  0  0  0  0  0  0  0  0
   10.0229   12.4831    5.1687 H   0  0  0  0  0  0  0  0  0  0  0  0
   -1.1080   11.2126   10.5345 Cl  0  0  0  0  0  0  0  0  0  0  0  0
   -1.3047    8.5415   12.0713 N   0  0  0  0  0  0  0  0  0  0  0  0
   -4.4699    8.3657   14.6356 O   0  0  0  0  0  0  0  0  0  0  0  0
   -2.4121    7.1668   13.2638 N   0  0  0  0  0  0  0  0  0  0  0  0
   -1.7118    7.5388   11.3156 N   0  0  0  0  0  0  0  0  0  0  0  0
   -5.1608    6.3887   15.4894 N   0  0  0  0  0  0  0  0  0  0  0  0
   -4.9526    5.4093   15.6059 H   0  0  0  0  0  0  0  0  0  0  0  0
   -2.3781    6.7155   12.0057 N   0  0  0  0  0  0  0  0  0  0  0  0
   -8.8716    6.5722   16.2346 C   0  0  0  0  0  0  0  0  0  0  0  0
   -9.0384    7.6052   15.9242 H   0  0  0  0  0  0  0  0  0  0  0  0
   -9.7153    5.9759   15.8838 H   0  0  0  0  0  0  0  0  0  0  0  0
   -6.3885    6.8715   16.0983 C   0  0  0  0  0  0  0  0  0  0  0  0
   -6.4911    7.9143   15.7832 H   0  0  0  0  0  0  0  0  0  0  0  0
   -1.7354    8.3308   13.3051 C   0  0  1  0  0  3  0  0  0  0  0  0
   -3.0627    6.4348   14.3043 C   0  0  0  0  0  0  0  0  0  0  0  0
   -3.3328    5.4635   13.8855 H   0  0  0  0  0  0  0  0  0  0  0  0
   -2.3692    6.2985   15.1411 H   0  0  0  0  0  0  0  0  0  0  0  0
   -1.4725    9.2197   14.4534 C   0  0  0  0  0  0  0  0  0  0  0  0
   -2.4095    9.4987   14.9333 H   0  0  0  0  0  0  0  0  0  0  0  0
   -0.8254    8.7177   15.1738 H   0  0  0  0  0  0  0  0  0  0  0  0
   -0.9539   10.1207   14.0806 H   0  0  0  0  0  0  0  0  0  0  0  0
   -4.3125    7.1809   14.8175 C   0  0  0  0  0  0  0  0  0  0  0  0
   -7.5881    7.3167   18.2523 C   0  0  0  0  0  0  0  0  0  0  0  0
   -7.7249    8.3665   17.9861 H   0  0  0  0  0  0  0  0  0  0  0  0
   -7.5180    7.2525   19.3393 H   0  0  0  0  0  0  0  0  0  0  0  0
   -6.2959    6.8030   17.6236 C   0  0  0  0  0  0  0  0  0  0  0  0
   -5.4483    7.3996   17.9652 H   0  0  0  0  0  0  0  0  0  0  0  0
   -6.1277    5.7666   17.9282 H   0  0  0  0  0  0  0  0  0  0  0  0
   -7.5822    6.0579   15.6005 C   0  0  0  0  0  0  0  0  0  0  0  0
   -7.4383    5.0077   15.8686 H   0  0  0  0  0  0  0  0  0  0  0  0
   -7.6442    6.1257   14.5131 H   0  0  0  0  0  0  0  0  0  0  0  0
   -8.7823    6.5080   17.7559 C   0  0  0  0  0  0  0  0  0  0  0  0
   -8.6734    5.4676   18.0707 H   0  0  0  0  0  0  0  0  0  0  0  0
   -9.7015    6.8958   18.1976 H   0  0  0  0  0  0  0  0  0  0  0  0
  1 37  1  0  0  0  0
  1  2  1  0  0  0  0
  3  1  1  0  0  0  0
  3  6  1  0  0  0  0
  5  9  1  0  0  0  0
  7 23  1  0  0  0  0
  8  7  1  0  0  0  0
  9  6  2  0  0  0  0
 10 11  1  0  0  0  0
 10 12  1  0  0  0  0
 10 30  1  0  0  0  0
 13 14  1  0  0  0  0
 13 30  1  0  0  0  0
 13  7  1  0  0  0  0
 15 19  1  6  0  0  0
 15  5  1  0  0  0  0
 15  3  1  0  0  0  0
 16 17  1  0  0  0  0
 16  5  1  0  0  0  0
 18 16  1  0  0  0  0
 19 22  1  0  0  0  0
 20 19  1  0  0  0  0
 21 19  1  0  0  0  0
 23  4  2  0  0  0  0
 23 16  1  0  0  0  0
 24 25  1  0  0  0  0
 24 33  1  0  0  0  0
 24 27  1  0  0  0  0
 26 24  1  0  0  0  0
 27 13  1  0  0  0  0
 28 27  1  0  0  0  0
 29 27  1  0  0  0  0
 30 32  1  0  0  0  0
 31 30  1  0  0  0  0
 33 10  1  0  0  0  0
 34 33  1  0  0  0  0
 35 33  1  0  0  0  0
 36  1  1  0  0  0  0
 37 49  1  0  0  0  0
 38 57  2  0  0  0  0
 39 49  1  0  0  0  0
 39 50  1  0  0  0  0
 40 43  2  0  0  0  0
 40 37  1  0  0  0  0
 41 42  1  0  0  0  0
 41 47  1  0  0  0  0
 43 39  1  0  0  0  0
 44 67  1  0  0  0  0
 45 44  1  0  0  0  0
 46 44  1  0  0  0  0
 47 61  1  0  0  0  0
 48 47  1  0  0  0  0
 49 53  1  1  0  0  0
 50 57  1  0  0  0  0
 50 52  1  0  0  0  0
 51 50  1  0  0  0  0
 53 54  1  0  0  0  0
 53 55  1  0  0  0  0
 56 53  1  0  0  0  0
 57 41  1  0  0  0  0
 58 60  1  0  0  0  0
 59 58  1  0  0  0  0
 61 63  1  0  0  0  0
 61 62  1  0  0  0  0
 61 58  1  0  0  0  0
 64 65  1  0  0  0  0
 64 47  1  0  0  0  0
 64 44  1  0  0  0  0
 66 64  1  0  0  0  0
 67 68  1  0  0  0  0
 67 69  1  0  0  0  0
 67 58  1  0  0  0  0
M  END
$$$$
