CSD_code = XOCHED | q = 0 | S = 0 | Stoichiometry = C18H36Cl2N10P3Re | MND = 6
 OpenBabel04212202123D

 70 78  0  0  1  0  0  0  0  0999 V2000
    7.8912    5.1914    6.3449 Re  0  0  0  0  0  0  0  0  0  0  0  0
    5.8254    5.1812    4.9077 Cl  0  0  0  0  0  0  0  0  0  0  0  0
    7.3941    7.2780    7.3399 Cl  0  0  0  0  0  0  0  0  0  0  0  0
    7.8491    3.1899    5.0229 P   0  0  2  0  0  4  0  0  0  0  0  0
    6.3190    4.6475    8.0960 P   0  0  1  0  0  4  0  0  0  0  0  0
    8.6632    6.8111    4.7306 P   0  0  1  0  0  4  0  0  0  0  0  0
    9.3836    4.7331    7.0886 N   0  0  0  0  0  1  0  0  0  0  0  0
    6.7473    0.7601    4.3887 N   0  0  2  0  0  0  0  0  0  0  0  0
    9.1766    0.8468    4.4150 N   0  0  1  0  0  0  0  0  0  0  0  0
    7.9388    1.8976    2.6063 N   0  0  2  0  0  0  0  0  0  0  0  0
    3.9588    5.2713    9.3145 N   0  0  1  0  0  0  0  0  0  0  0  0
    4.7645    3.0126    9.6787 N   0  0  2  0  0  0  0  0  0  0  0  0
    5.8541    4.8799   10.7860 N   0  0  1  0  0  0  0  0  0  0  0  0
    8.1196    9.1018    3.3528 N   0  0  1  0  0  0  0  0  0  0  0  0
   10.3113    8.9732    4.3971 N   0  0  2  0  0  0  0  0  0  0  0  0
    9.8373    7.6821    2.3947 N   0  0  1  0  0  0  0  0  0  0  0  0
    6.5127    1.9172    5.2244 C   0  0  0  0  0  0  0  0  0  0  0  0
    6.4988    1.5959    6.2720 H   0  0  0  0  0  0  0  0  0  0  0  0
    5.5443    2.3596    4.9668 H   0  0  0  0  0  0  0  0  0  0  0  0
    9.2858    2.0310    5.2434 C   0  0  0  0  0  0  0  0  0  0  0  0
   10.2061    2.5737    5.0019 H   0  0  0  0  0  0  0  0  0  0  0  0
    9.3388    1.7467    6.2999 H   0  0  0  0  0  0  0  0  0  0  0  0
    7.8879    3.2300    3.1665 C   0  0  0  0  0  0  0  0  0  0  0  0
    6.9972    3.7463    2.7927 H   0  0  0  0  0  0  0  0  0  0  0  0
    8.7839    3.7762    2.8509 H   0  0  0  0  0  0  0  0  0  0  0  0
    7.9855    0.0807    4.7378 C   0  0  0  0  0  0  0  0  0  0  0  0
    7.9820   -0.1398    5.8083 H   0  0  0  0  0  0  0  0  0  0  0  0
    8.0223   -0.8593    4.1781 H   0  0  0  0  0  0  0  0  0  0  0  0
    6.7769    1.1086    2.9784 C   0  0  0  0  0  0  0  0  0  0  0  0
    6.7961    0.1804    2.3988 H   0  0  0  0  0  0  0  0  0  0  0  0
    5.8711    1.6675    2.7296 H   0  0  0  0  0  0  0  0  0  0  0  0
    9.1446    1.1871    3.0032 C   0  0  0  0  0  0  0  0  0  0  0  0
   10.0161    1.8018    2.7640 H   0  0  0  0  0  0  0  0  0  0  0  0
    9.1922    0.2578    2.4268 H   0  0  0  0  0  0  0  0  0  0  0  0
    4.6959    5.5473    8.1029 C   0  0  0  0  0  0  0  0  0  0  0  0
    4.8750    6.6254    8.0255 H   0  0  0  0  0  0  0  0  0  0  0  0
    4.1070    5.2272    7.2350 H   0  0  0  0  0  0  0  0  0  0  0  0
    5.6348    2.9672    8.5211 C   0  0  0  0  0  0  0  0  0  0  0  0
    5.0573    2.5832    7.6725 H   0  0  0  0  0  0  0  0  0  0  0  0
    6.4689    2.2844    8.7232 H   0  0  0  0  0  0  0  0  0  0  0  0
    6.8939    5.0926    9.8022 C   0  0  0  0  0  0  0  0  0  0  0  0
    7.7693    4.4767   10.0399 H   0  0  0  0  0  0  0  0  0  0  0  0
    7.2016    6.1436    9.8166 H   0  0  0  0  0  0  0  0  0  0  0  0
    3.6123    3.8678    9.4404 C   0  0  0  0  0  0  0  0  0  0  0  0
    3.1046    3.5391    8.5293 H   0  0  0  0  0  0  0  0  0  0  0  0
    2.9285    3.7595   10.2882 H   0  0  0  0  0  0  0  0  0  0  0  0
    4.6809    5.6917   10.5052 C   0  0  0  0  0  0  0  0  0  0  0  0
    3.9994    5.6122   11.3583 H   0  0  0  0  0  0  0  0  0  0  0  0
    4.9887    6.7335   10.3870 H   0  0  0  0  0  0  0  0  0  0  0  0
    5.4629    3.4843   10.8648 C   0  0  0  0  0  0  0  0  0  0  0  0
    6.3544    2.8714   11.0208 H   0  0  0  0  0  0  0  0  0  0  0  0
    4.7906    3.3648   11.7203 H   0  0  0  0  0  0  0  0  0  0  0  0
    7.4559    8.0945    4.1482 C   0  0  0  0  0  0  0  0  0  0  0  0
    6.6788    7.6066    3.5478 H   0  0  0  0  0  0  0  0  0  0  0  0
    6.9820    8.5706    5.0137 H   0  0  0  0  0  0  0  0  0  0  0  0
    9.9929    7.9403    5.3594 C   0  0  0  0  0  0  0  0  0  0  0  0
    9.6613    8.4020    6.2957 H   0  0  0  0  0  0  0  0  0  0  0  0
   10.8826    7.3360    5.5724 H   0  0  0  0  0  0  0  0  0  0  0  0
    9.4279    6.4657    3.0672 C   0  0  0  0  0  0  0  0  0  0  0  0
   10.3015    5.8169    3.2049 H   0  0  0  0  0  0  0  0  0  0  0  0
    8.6984    5.9514    2.4312 H   0  0  0  0  0  0  0  0  0  0  0  0
    9.1530    9.8007    4.1009 C   0  0  0  0  0  0  0  0  0  0  0  0
    9.4872   10.6520    3.4992 H   0  0  0  0  0  0  0  0  0  0  0  0
    8.7286   10.1680    5.0386 H   0  0  0  0  0  0  0  0  0  0  0  0
    8.7002    8.5531    2.1414 C   0  0  0  0  0  0  0  0  0  0  0  0
    7.9347    7.9935    1.5965 H   0  0  0  0  0  0  0  0  0  0  0  0
    9.0430    9.3860    1.5194 H   0  0  0  0  0  0  0  0  0  0  0  0
   10.8316    8.4177    3.1611 C   0  0  0  0  0  0  0  0  0  0  0  0
   11.1917    9.2434    2.5393 H   0  0  0  0  0  0  0  0  0  0  0  0
   11.6672    7.7519    3.3924 H   0  0  0  0  0  0  0  0  0  0  0  0
  1  7  1  0  0  0  0
  1  3  1  0  0  0  0
  2  1  1  0  0  0  0
  4 17  1  0  0  0  0
  4 20  1  0  0  0  0
  4  1  1  1  0  0  0
  5  1  1  6  0  0  0
  5 35  1  0  0  0  0
  5 38  1  0  0  0  0
  5 41  1  0  0  0  0
  6 56  1  0  0  0  0
  6  1  1  1  0  0  0
  8 29  1  6  0  0  0
  8 26  1  0  0  0  0
  8 17  1  0  0  0  0
  9 32  1  6  0  0  0
  9 26  1  0  0  0  0
  9 20  1  0  0  0  0
 10 29  1  1  0  0  0
 10 32  1  0  0  0  0
 10 23  1  0  0  0  0
 11 35  1  6  0  0  0
 11 44  1  0  0  0  0
 11 47  1  0  0  0  0
 12 38  1  6  0  0  0
 12 50  1  0  0  0  0
 13 41  1  6  0  0  0
 13 50  1  0  0  0  0
 14 65  1  6  0  0  0
 14 62  1  0  0  0  0
 14 53  1  0  0  0  0
 15 68  1  6  0  0  0
 15 56  1  0  0  0  0
 16 65  1  1  0  0  0
 16 59  1  0  0  0  0
 16 68  1  0  0  0  0
 17 18  1  0  0  0  0
 19 17  1  0  0  0  0
 20 22  1  0  0  0  0
 21 20  1  0  0  0  0
 23  4  1  0  0  0  0
 24 23  1  0  0  0  0
 25 23  1  0  0  0  0
 26 27  1  0  0  0  0
 28 26  1  0  0  0  0
 30 29  1  0  0  0  0
 31 29  1  0  0  0  0
 33 32  1  0  0  0  0
 34 32  1  0  0  0  0
 36 35  1  0  0  0  0
 37 35  1  0  0  0  0
 38 40  1  0  0  0  0
 39 38  1  0  0  0  0
 41 43  1  0  0  0  0
 41 42  1  0  0  0  0
 44 12  1  0  0  0  0
 44 46  1  0  0  0  0
 45 44  1  0  0  0  0
 47 13  1  0  0  0  0
 47 48  1  0  0  0  0
 49 47  1  0  0  0  0
 50 51  1  0  0  0  0
 50 52  1  0  0  0  0
 53  6  1  0  0  0  0
 53 55  1  0  0  0  0
 54 53  1  0  0  0  0
 56 58  1  0  0  0  0
 56 57  1  0  0  0  0
 59 60  1  0  0  0  0
 59  6  1  0  0  0  0
 61 59  1  0  0  0  0
 62 15  1  0  0  0  0
 62 64  1  0  0  0  0
 63 62  1  0  0  0  0
 66 65  1  0  0  0  0
 67 65  1  0  0  0  0
 68 70  1  0  0  0  0
 69 68  1  0  0  0  0
M  END
$$$$
