CSD_code = XOCKUX | q = 0 | S = 0 | Stoichiometry = C7H12I2N2O2SZn | MND = 4
 OpenBabel04212202123D

 27 26  0  0  1  0  0  0  0  0999 V2000
    2.1340    9.8443    2.9756 O   0  0  0  0  0  0  0  0  0  0  0  0
    2.3408   10.6418    3.4737 H   0  0  0  0  0  0  0  0  0  0  0  0
    2.9315    9.3053    2.9518 H   0  0  0  0  0  0  0  0  0  0  0  0
    1.1415    6.5937    4.1962 I   0  0  0  0  0  0  0  0  0  0  0  0
   -1.2584   10.6634    3.9382 I   0  0  0  0  0  0  0  0  0  0  0  0
    0.1220    8.6523    3.2135 Zn  0  0  0  0  0  0  0  0  0  0  0  0
    0.0267    8.4233    0.5822 S   0  0  0  0  0  0  0  0  0  0  0  0
   -0.6191   14.6434   -1.7635 O   0  0  0  0  0  0  0  0  0  0  0  0
   -0.0191    9.9013   -1.5444 N   0  0  0  0  0  0  0  0  0  0  0  0
    0.2564    9.0348   -1.9824 H   0  0  0  0  0  0  0  0  0  0  0  0
   -0.6023   11.0070    0.3803 N   0  0  0  0  0  0  0  0  0  0  0  0
   -0.7704   10.9942    1.3845 H   0  0  0  0  0  0  0  0  0  0  0  0
   -0.2268    9.8659   -0.2281 C   0  0  2  0  0  3  0  0  0  0  0  0
   -0.3637   11.0156   -2.4071 C   0  0  0  0  0  0  0  0  0  0  0  0
   -1.2971   10.7854   -2.9457 H   0  0  0  0  0  0  0  0  0  0  0  0
    0.4335   11.1205   -3.1504 H   0  0  0  0  0  0  0  0  0  0  0  0
   -0.5224   12.2930   -1.6123 C   0  0  0  0  0  0  0  0  0  0  0  0
   -0.6697   12.2298   -0.2655 C   0  0  0  0  0  0  0  0  0  0  0  0
   -0.5704   13.5712   -2.3318 C   0  0  0  0  0  0  0  0  0  0  0  0
   -0.5620   13.4938   -3.8411 C   0  0  0  0  0  0  0  0  0  0  0  0
   -0.7169   14.4922   -4.2410 H   0  0  0  0  0  0  0  0  0  0  0  0
   -1.3454   12.8326   -4.2026 H   0  0  0  0  0  0  0  0  0  0  0  0
    0.3975   13.1219   -4.1947 H   0  0  0  0  0  0  0  0  0  0  0  0
   -0.8954   13.3913    0.6316 C   0  0  0  0  0  0  0  0  0  0  0  0
    0.0176   13.9793    0.7163 H   0  0  0  0  0  0  0  0  0  0  0  0
   -1.2068   13.0696    1.6223 H   0  0  0  0  0  0  0  0  0  0  0  0
   -1.6435   14.0573    0.2080 H   0  0  0  0  0  0  0  0  0  0  0  0
  1  2  1  0  0  0  0
  3  1  1  0  0  0  0
  6  5  1  0  0  0  0
  6  4  1  0  0  0  0
  7  6  1  0  0  0  0
  9 13  1  0  0  0  0
 10  9  1  0  0  0  0
 11 12  1  0  0  0  0
 13 11  1  0  0  0  0
 13  7  1  1  0  0  0
 14 17  1  0  0  0  0
 14  9  1  0  0  0  0
 15 14  1  0  0  0  0
 16 14  1  0  0  0  0
 17 18  2  0  0  0  0
 18 11  1  0  0  0  0
 18 24  1  0  0  0  0
 19  8  2  0  0  0  0
 19 17  1  0  0  0  0
 20 19  1  0  0  0  0
 21 20  1  0  0  0  0
 22 20  1  0  0  0  0
 23 20  1  0  0  0  0
 24 25  1  0  0  0  0
 24 26  1  0  0  0  0
 27 24  1  0  0  0  0
M  END
$$$$
