CSD_code = XOCKOS | q = 0 | S = 0 | Stoichiometry = C8H14Cl2N10O2Pd | MND = 4
 OpenBabel04212202123D

 37 38  0  0  1  0  0  0  0  0999 V2000
    0.0029    5.9538   -0.0007 Pd  0  0  0  0  0  0  0  0  0  0  0  0
    2.2803    5.7288   -0.0440 Cl  0  0  0  0  0  0  0  0  0  0  0  0
    0.0120    6.9879    1.6116 N   0  0  0  0  0  0  0  0  0  0  0  0
   -0.7921    5.1151    3.0283 C   0  0  0  0  0  0  0  0  0  0  0  0
   -0.4094    4.5088    2.1879 H   0  0  0  0  0  0  0  0  0  0  0  0
   -1.8706    4.9698    3.0982 H   0  0  0  0  0  0  0  0  0  0  0  0
   -0.3182    4.8052    3.9583 H   0  0  0  0  0  0  0  0  0  0  0  0
    0.1284    8.2989    1.7067 N   0  0  0  0  0  0  0  0  0  0  0  0
   -0.2673    8.6905    2.8413 N   0  0  0  0  0  0  0  0  0  0  0  0
   -0.6737    7.6166    3.5277 N   0  0  0  0  0  0  0  0  0  0  0  0
   -0.4908    6.5324    2.7481 C   0  0  2  0  0  3  0  0  0  0  0  0
   -0.2107    7.1459    5.8865 C   0  0  0  0  0  0  0  0  0  0  0  0
   -1.1919    7.7348    4.8552 C   0  0  0  0  0  0  0  0  0  0  0  0
   -2.1386    7.1885    4.9290 H   0  0  0  0  0  0  0  0  0  0  0  0
   -1.3624    8.7976    5.0356 H   0  0  0  0  0  0  0  0  0  0  0  0
    0.5671    6.2684    5.6086 O   0  0  0  0  0  0  0  0  0  0  0  0
   -0.3347    7.6772    7.1166 N   0  0  0  0  0  0  0  0  0  0  0  0
    0.2707    7.3383    7.8469 H   0  0  0  0  0  0  0  0  0  0  0  0
   -0.9637    8.4312    7.3258 H   0  0  0  0  0  0  0  0  0  0  0  0
   -2.2747    6.1772    0.0427 Cl  0  0  0  0  0  0  0  0  0  0  0  0
   -0.0064    4.9179   -1.6109 N   0  0  0  0  0  0  0  0  0  0  0  0
    0.7976    6.7835   -3.0363 C   0  0  0  0  0  0  0  0  0  0  0  0
    0.4194    7.3930   -2.1962 H   0  0  0  0  0  0  0  0  0  0  0  0
    1.8762    6.9268   -3.1112 H   0  0  0  0  0  0  0  0  0  0  0  0
    0.3204    7.0911   -3.9655 H   0  0  0  0  0  0  0  0  0  0  0  0
   -0.1245    3.6066   -1.6999 N   0  0  0  0  0  0  0  0  0  0  0  0
    0.2688    3.2096   -2.8335 N   0  0  0  0  0  0  0  0  0  0  0  0
    0.6753    4.2800   -3.5252 N   0  0  0  0  0  0  0  0  0  0  0  0
    0.4950    5.3678   -2.7500 C   0  0  1  0  0  3  0  0  0  0  0  0
    0.2059    4.7397   -5.8846 C   0  0  0  0  0  0  0  0  0  0  0  0
    1.1901    4.1554   -4.8535 C   0  0  0  0  0  0  0  0  0  0  0  0
    2.1367    4.7010   -4.9323 H   0  0  0  0  0  0  0  0  0  0  0  0
    1.3596    3.0916   -5.0292 H   0  0  0  0  0  0  0  0  0  0  0  0
   -0.5693    5.6200   -5.6088 O   0  0  0  0  0  0  0  0  0  0  0  0
    0.3245    4.2011   -7.1121 N   0  0  0  0  0  0  0  0  0  0  0  0
   -0.2832    4.5367   -7.8420 H   0  0  0  0  0  0  0  0  0  0  0  0
    0.9514    3.4448   -7.3192 H   0  0  0  0  0  0  0  0  0  0  0  0
  1 20  1  0  0  0  0
  1  3  1  0  0  0  0
  2  1  1  0  0  0  0
  3  8  1  0  0  0  0
  3 11  1  0  0  0  0
  4  6  1  0  0  0  0
  4  7  1  0  0  0  0
  5  4  1  0  0  0  0
  8  9  2  0  0  0  0
  9 10  1  0  0  0  0
 10 13  1  0  0  0  0
 11  4  1  6  0  0  0
 11 10  1  0  0  0  0
 12 17  1  0  0  0  0
 13 14  1  0  0  0  0
 13 15  1  0  0  0  0
 13 12  1  0  0  0  0
 16 12  2  0  0  0  0
 17 19  1  0  0  0  0
 17 18  1  0  0  0  0
 21  1  1  0  0  0  0
 22 23  1  0  0  0  0
 24 22  1  0  0  0  0
 25 22  1  0  0  0  0
 26 21  1  0  0  0  0
 27 26  2  0  0  0  0
 28 27  1  0  0  0  0
 28 29  1  0  0  0  0
 29 22  1  1  0  0  0
 29 21  1  0  0  0  0
 30 34  2  0  0  0  0
 30 31  1  0  0  0  0
 31 28  1  0  0  0  0
 32 31  1  0  0  0  0
 33 31  1  0  0  0  0
 35 30  1  0  0  0  0
 36 35  1  0  0  0  0
 37 35  1  0  0  0  0
M  END
$$$$
