CSD_code = XOCMOT | q = 0 | S = 0 | Stoichiometry = C26H29ClN2Ni | MND = 7
 OpenBabel04212202123D

 59 63  0  0  1  0  0  0  0  0999 V2000
    6.9457   14.1231   13.3623 Ni  0  0  1  0  0  0  0  0  0  0  0  0
    8.9870   14.0423   12.9490 Cl  0  0  0  0  0  0  0  0  0  0  0  0
    6.3064   11.3538   14.0159 N   0  0  0  0  0  0  0  0  0  0  0  0
    7.0601   11.5189   12.0137 N   0  0  0  0  0  0  0  0  0  0  0  0
    6.7278   12.2533   13.0970 C   0  0  2  0  0  3  0  0  0  0  0  0
    6.3668   10.0839   13.5102 C   0  0  0  0  0  0  0  0  0  0  0  0
    6.8431   10.1892   12.2489 C   0  0  0  0  0  0  0  0  0  0  0  0
    5.8246   11.6569   15.3192 C   0  0  0  0  0  0  0  0  0  0  0  0
    4.4545   11.5861   15.5628 C   0  0  0  0  0  0  0  0  0  0  0  0
    3.9957   11.8692   16.8416 C   0  0  0  0  0  0  0  0  0  0  0  0
    4.8687   12.2152   17.8619 C   0  0  0  0  0  0  0  0  0  0  0  0
    6.2290   12.2806   17.5866 C   0  0  0  0  0  0  0  0  0  0  0  0
    6.7293   12.0081   16.3234 C   0  0  0  0  0  0  0  0  0  0  0  0
    3.4983   11.2257   14.4655 C   0  0  0  0  0  0  0  0  0  0  0  0
    4.3668   12.5253   19.2390 C   0  0  0  0  0  0  0  0  0  0  0  0
    8.1890   12.1154   16.0234 C   0  0  0  0  0  0  0  0  0  0  0  0
    7.5575   12.0164   10.7752 C   0  0  0  0  0  0  0  0  0  0  0  0
    8.8992   11.8203   10.4458 C   0  0  0  0  0  0  0  0  0  0  0  0
    9.3455   12.2969    9.2235 C   0  0  0  0  0  0  0  0  0  0  0  0
    8.4978   12.9487    8.3387 C   0  0  0  0  0  0  0  0  0  0  0  0
    7.1663   13.1133    8.6887 C   0  0  0  0  0  0  0  0  0  0  0  0
    6.6769   12.6504    9.9004 C   0  0  0  0  0  0  0  0  0  0  0  0
    9.8414   11.1634   11.4031 C   0  0  0  0  0  0  0  0  0  0  0  0
    9.0244   13.4774    7.0397 C   0  0  0  0  0  0  0  0  0  0  0  0
    5.2341   12.8214   10.2685 C   0  0  0  0  0  0  0  0  0  0  0  0
    5.0212   14.8271   13.6546 C   0  0  2  0  0  0  0  0  0  0  0  0
    5.6562   15.7231   12.7637 C   0  0  0  0  0  3  0  0  0  0  0  0
    6.7852   16.2175   13.4304 C   0  0  1  0  0  0  0  0  0  0  0  0
    6.7428   15.7776   14.8028 C   0  0  0  0  0  0  0  0  0  0  0  0
    5.6538   14.9394   14.9456 C   0  0  0  0  0  0  0  0  0  0  0  0
    6.0798    9.2288   14.0870 H   0  0  0  0  0  0  0  0  0  0  0  0
    7.0313    9.4431   11.5043 H   0  0  0  0  0  0  0  0  0  0  0  0
    2.9343   11.8256   17.0397 H   0  0  0  0  0  0  0  0  0  0  0  0
    6.9139   12.5596   18.3741 H   0  0  0  0  0  0  0  0  0  0  0  0
    2.4854   11.5133   14.7350 H   0  0  0  0  0  0  0  0  0  0  0  0
    3.5089   10.1508   14.2828 H   0  0  0  0  0  0  0  0  0  0  0  0
    3.7706   11.7254   13.5372 H   0  0  0  0  0  0  0  0  0  0  0  0
    4.6419   13.5406   19.5216 H   0  0  0  0  0  0  0  0  0  0  0  0
    4.8128   11.8470   19.9652 H   0  0  0  0  0  0  0  0  0  0  0  0
    3.2854   12.4307   19.2922 H   0  0  0  0  0  0  0  0  0  0  0  0
    8.7571   12.3180   16.9263 H   0  0  0  0  0  0  0  0  0  0  0  0
    8.3595   12.9339   15.3133 H   0  0  0  0  0  0  0  0  0  0  0  0
    8.5650   11.2027   15.5631 H   0  0  0  0  0  0  0  0  0  0  0  0
   10.3848   12.1669    8.9597 H   0  0  0  0  0  0  0  0  0  0  0  0
    6.4936   13.6143    8.0073 H   0  0  0  0  0  0  0  0  0  0  0  0
   10.8084   11.0031   10.9356 H   0  0  0  0  0  0  0  0  0  0  0  0
    9.4585   10.2081   11.7573 H   0  0  0  0  0  0  0  0  0  0  0  0
    9.9714   11.8231   12.2617 H   0  0  0  0  0  0  0  0  0  0  0  0
    9.6923   12.7567    6.5722 H   0  0  0  0  0  0  0  0  0  0  0  0
    9.5913   14.3912    7.2172 H   0  0  0  0  0  0  0  0  0  0  0  0
    8.2137   13.7064    6.3525 H   0  0  0  0  0  0  0  0  0  0  0  0
    4.7718   11.8572   10.4828 H   0  0  0  0  0  0  0  0  0  0  0  0
    4.6856   13.3012    9.4626 H   0  0  0  0  0  0  0  0  0  0  0  0
    5.1560   13.4410   11.1639 H   0  0  0  0  0  0  0  0  0  0  0  0
    4.0637   14.3520   13.4915 H   0  0  0  0  0  0  0  0  0  0  0  0
    5.3256   15.9919   11.7730 H   0  0  0  0  0  0  0  0  0  0  0  0
    7.4658   16.9664   13.0517 H   0  0  0  0  0  0  0  0  0  0  0  0
    7.4043   16.1212   15.5819 H   0  0  0  0  0  0  0  0  0  0  0  0
    5.2798   14.5064   15.8583 H   0  0  0  0  0  0  0  0  0  0  0  0
  1  2  1  1  0  0  0
  1 28  1  0  0  0  0
  1 26  1  0  0  0  0
  3  8  1  0  0  0  0
  4  7  1  0  0  0  0
  5  4  1  1  0  0  0
  5  1  1  0  0  0  0
  5  3  1  0  0  0  0
  6  3  1  0  0  0  0
  6 31  1  0  0  0  0
  7  6  2  0  0  0  0
  8  9  2  0  0  0  0
  8 13  1  0  0  0  0
  9 10  1  0  0  0  0
 10 33  1  0  0  0  0
 10 11  2  0  0  0  0
 11 15  1  0  0  0  0
 12 11  1  0  0  0  0
 12 34  1  0  0  0  0
 13 12  2  0  0  0  0
 14 35  1  0  0  0  0
 14  9  1  0  0  0  0
 15 40  1  0  0  0  0
 15 38  1  0  0  0  0
 15 39  1  0  0  0  0
 16 13  1  0  0  0  0
 16 41  1  0  0  0  0
 17  4  1  0  0  0  0
 18 17  1  0  0  0  0
 18 23  1  0  0  0  0
 19 18  2  0  0  0  0
 20 21  2  0  0  0  0
 20 19  1  0  0  0  0
 21 22  1  0  0  0  0
 22 25  1  0  0  0  0
 22 17  2  0  0  0  0
 23 47  1  0  0  0  0
 23 48  1  0  0  0  0
 24 50  1  0  0  0  0
 24 20  1  0  0  0  0
 25 52  1  0  0  0  0
 25 54  1  0  0  0  0
 26 55  1  6  0  0  0
 26 30  1  0  0  0  0
 27 28  1  0  0  0  0
 27 26  1  0  0  0  0
 28 57  1  6  0  0  0
 28 29  1  0  0  0  0
 29 30  2  0  0  0  0
 29 58  1  0  0  0  0
 30 59  1  0  0  0  0
 32  7  1  0  0  0  0
 36 14  1  0  0  0  0
 37 14  1  0  0  0  0
 42 16  1  0  0  0  0
 43 16  1  0  0  0  0
 44 19  1  0  0  0  0
 45 21  1  0  0  0  0
 46 23  1  0  0  0  0
 49 24  1  0  0  0  0
 51 24  1  0  0  0  0
 53 25  1  0  0  0  0
 56 27  1  0  0  0  0
M  END
$$$$
