CSD_code = XOCPUC | q = 0 | S = 0 | Stoichiometry = C24H36AuClN2 | MND = 2
 OpenBabel04212202123D

 64 66  0  0  1  0  0  0  0  0999 V2000
    6.5536    0.7441    0.9560 Au  0  0  0  0  0  0  0  0  0  0  0  0
    6.7120   -0.6636    2.6969 Cl  0  0  0  0  0  0  0  0  0  0  0  0
    7.3292    2.3474   -1.5000 N   0  0  0  0  0  0  0  0  0  0  0  0
    5.3314    2.7666   -0.8450 N   0  0  0  0  0  0  0  0  0  0  0  0
    6.4108    2.0151   -0.5751 C   0  0  2  0  0  3  0  0  0  0  0  0
    6.8268    3.3039   -2.3399 C   0  0  0  0  0  0  0  0  0  0  0  0
    7.3821    3.7193   -3.1532 H   0  0  0  0  0  0  0  0  0  0  0  0
    5.5631    3.5672   -1.9293 C   0  0  0  0  0  0  0  0  0  0  0  0
    4.8236    4.2407   -2.3110 H   0  0  0  0  0  0  0  0  0  0  0  0
    4.1298    2.7365   -0.0874 C   0  0  0  0  0  0  0  0  0  0  0  0
    3.9873    3.6155    0.9860 C   0  0  0  0  0  0  0  0  0  0  0  0
    2.8106    3.5749    1.7143 C   0  0  0  0  0  0  0  0  0  0  0  0
    2.6852    4.2451    2.5521 H   0  0  0  0  0  0  0  0  0  0  0  0
    1.7925    2.6836    1.3982 C   0  0  0  0  0  0  0  0  0  0  0  0
    1.9672    1.8196    0.3278 C   0  0  0  0  0  0  0  0  0  0  0  0
    1.1865    1.1160    0.0783 H   0  0  0  0  0  0  0  0  0  0  0  0
    3.1302    1.8289   -0.4278 C   0  0  0  0  0  0  0  0  0  0  0  0
    5.0980    4.5549    1.3433 C   0  0  0  0  0  0  0  0  0  0  0  0
    4.8096    5.1894    2.1761 H   0  0  0  0  0  0  0  0  0  0  0  0
    5.3630    5.1885    0.4969 H   0  0  0  0  0  0  0  0  0  0  0  0
    5.9843    3.9882    1.6298 H   0  0  0  0  0  0  0  0  0  0  0  0
    0.5411    2.6544    2.2194 C   0  0  0  0  0  0  0  0  0  0  0  0
   -0.2071    2.0071    1.7701 H   0  0  0  0  0  0  0  0  0  0  0  0
    0.1262    3.6557    2.3213 H   0  0  0  0  0  0  0  0  0  0  0  0
    0.7628    2.2829    3.2192 H   0  0  0  0  0  0  0  0  0  0  0  0
    3.3299    0.8740   -1.5641 C   0  0  0  0  0  0  0  0  0  0  0  0
    2.4174    0.3205   -1.7643 H   0  0  0  0  0  0  0  0  0  0  0  0
    4.1182    0.1636   -1.3143 H   0  0  0  0  0  0  0  0  0  0  0  0
    3.6273    1.3991   -2.4711 H   0  0  0  0  0  0  0  0  0  0  0  0
    8.6754    1.8082   -1.5109 C   0  0  0  0  0  0  0  0  0  0  0  0
    8.5934    0.7883   -1.1135 H   0  0  0  0  0  0  0  0  0  0  0  0
    9.2365    1.7381   -2.9351 C   0  0  0  0  0  0  0  0  0  0  0  0
    8.4527    1.3813   -3.6079 H   0  0  0  0  0  0  0  0  0  0  0  0
    9.5238    2.7358   -3.2628 H   0  0  0  0  0  0  0  0  0  0  0  0
   10.4467    0.8064   -3.0380 C   0  0  0  0  0  0  0  0  0  0  0  0
   10.0978   -0.2275   -3.0761 H   0  0  0  0  0  0  0  0  0  0  0  0
   11.0598    0.8992   -2.1428 H   0  0  0  0  0  0  0  0  0  0  0  0
   11.3163    1.0786   -4.2699 C   0  0  0  0  0  0  0  0  0  0  0  0
   12.0629    0.2853   -4.3453 H   0  0  0  0  0  0  0  0  0  0  0  0
   10.6882    1.0254   -5.1626 H   0  0  0  0  0  0  0  0  0  0  0  0
   12.0380    2.4302   -4.2576 C   0  0  0  0  0  0  0  0  0  0  0  0
   12.5044    2.5817   -5.2338 H   0  0  0  0  0  0  0  0  0  0  0  0
   11.3062    3.2281   -4.1345 H   0  0  0  0  0  0  0  0  0  0  0  0
   13.1118    2.5443   -3.1738 C   0  0  0  0  0  0  0  0  0  0  0  0
   13.9978    1.9922   -3.4949 H   0  0  0  0  0  0  0  0  0  0  0  0
   12.7620    2.0737   -2.2560 H   0  0  0  0  0  0  0  0  0  0  0  0
   13.5161    3.9906   -2.8697 C   0  0  0  0  0  0  0  0  0  0  0  0
   13.7739    4.4872   -3.8083 H   0  0  0  0  0  0  0  0  0  0  0  0
   14.4123    3.9808   -2.2453 H   0  0  0  0  0  0  0  0  0  0  0  0
   12.4335    4.8094   -2.1590 C   0  0  0  0  0  0  0  0  0  0  0  0
   11.5083    4.7432   -2.7303 H   0  0  0  0  0  0  0  0  0  0  0  0
   12.7303    5.8607   -2.1617 H   0  0  0  0  0  0  0  0  0  0  0  0
   12.1883    4.3655   -0.7147 C   0  0  0  0  0  0  0  0  0  0  0  0
   12.2807    3.2827   -0.6410 H   0  0  0  0  0  0  0  0  0  0  0  0
   12.9677    4.7896   -0.0781 H   0  0  0  0  0  0  0  0  0  0  0  0
   10.8255    4.7923   -0.1605 C   0  0  0  0  0  0  0  0  0  0  0  0
   10.7205    5.8732   -0.2811 H   0  0  0  0  0  0  0  0  0  0  0  0
   10.7998    4.5749    0.9095 H   0  0  0  0  0  0  0  0  0  0  0  0
    9.6255    4.1107   -0.8264 C   0  0  0  0  0  0  0  0  0  0  0  0
    8.7114    4.5903   -0.4674 H   0  0  0  0  0  0  0  0  0  0  0  0
    9.6764    4.2844   -1.9012 H   0  0  0  0  0  0  0  0  0  0  0  0
    9.5566    2.6109   -0.5370 C   0  0  0  0  0  0  0  0  0  0  0  0
    9.1716    2.4545    0.4734 H   0  0  0  0  0  0  0  0  0  0  0  0
   10.5564    2.1834   -0.5697 H   0  0  0  0  0  0  0  0  0  0  0  0
  1  2  1  0  0  0  0
  3  5  1  0  0  0  0
  4  5  1  0  0  0  0
  4 10  1  0  0  0  0
  5  1  1  1  0  0  0
  6  8  2  0  0  0  0
  6  3  1  0  0  0  0
  7  6  1  0  0  0  0
  8  4  1  0  0  0  0
  9  8  1  0  0  0  0
 10 11  1  0  0  0  0
 11 18  1  0  0  0  0
 11 12  2  0  0  0  0
 12 13  1  0  0  0  0
 14 12  1  0  0  0  0
 14 22  1  0  0  0  0
 15 14  2  0  0  0  0
 16 15  1  0  0  0  0
 17 10  2  0  0  0  0
 17 15  1  0  0  0  0
 18 21  1  0  0  0  0
 18 19  1  0  0  0  0
 20 18  1  0  0  0  0
 22 24  1  0  0  0  0
 22 25  1  0  0  0  0
 23 22  1  0  0  0  0
 26 28  1  0  0  0  0
 26 17  1  0  0  0  0
 27 26  1  0  0  0  0
 29 26  1  0  0  0  0
 30  3  1  0  0  0  0
 30 31  1  0  0  0  0
 30 62  1  0  0  0  0
 32 30  1  0  0  0  0
 33 32  1  0  0  0  0
 34 32  1  0  0  0  0
 35 32  1  0  0  0  0
 35 37  1  0  0  0  0
 36 35  1  0  0  0  0
 38 41  1  0  0  0  0
 38 35  1  0  0  0  0
 39 38  1  0  0  0  0
 40 38  1  0  0  0  0
 41 43  1  0  0  0  0
 41 44  1  0  0  0  0
 42 41  1  0  0  0  0
 44 47  1  0  0  0  0
 44 46  1  0  0  0  0
 45 44  1  0  0  0  0
 47 49  1  0  0  0  0
 47 50  1  0  0  0  0
 48 47  1  0  0  0  0
 50 53  1  0  0  0  0
 51 50  1  0  0  0  0
 52 50  1  0  0  0  0
 53 54  1  0  0  0  0
 53 56  1  0  0  0  0
 53 55  1  0  0  0  0
 56 58  1  0  0  0  0
 57 56  1  0  0  0  0
 59 62  1  0  0  0  0
 59 60  1  0  0  0  0
 59 56  1  0  0  0  0
 61 59  1  0  0  0  0
 62 63  1  0  0  0  0
 64 62  1  0  0  0  0
M  END
$$$$
