CSD_code = XODFOL | q = 0 | S = 0 | Stoichiometry = C20H30Cl2Ti | MND = 12
 OpenBabel04212202123D

 53 55  0  0  1  0  0  0  0  0999 V2000
   12.0167    3.0260    2.8755 Ti  0  0  0  0  0  0  0  0  0  0  0  0
   10.5902    1.4282    3.5432 Cl  0  0  0  0  0  0  0  0  0  0  0  0
   14.1702    3.7348    3.5079 C   0  0  0  0  0  0  0  0  0  0  0  0
   14.8513    4.3742    2.9641 H   0  0  0  0  0  0  0  0  0  0  0  0
   13.2858    4.1660    4.5111 C   0  0  0  0  0  0  0  0  0  0  0  0
   13.1162    5.1934    4.8067 H   0  0  0  0  0  0  0  0  0  0  0  0
   12.7202    3.0262    5.1323 C   0  0  0  0  0  0  0  0  0  0  0  0
   11.7720    3.0262    6.2907 C   0  0  0  0  0  0  0  0  0  0  0  0
   11.1320    2.1406    6.2275 H   0  0  0  0  0  0  0  0  0  0  0  0
   12.4751    3.0261    7.6684 C   0  0  0  0  0  0  0  0  0  0  0  0
   13.3447    4.2750    7.8172 C   0  0  0  0  0  0  0  0  0  0  0  0
   12.7476    5.1747    7.6856 H   0  0  0  0  0  0  0  0  0  0  0  0
   14.1426    4.2766    7.0781 H   0  0  0  0  0  0  0  0  0  0  0  0
   13.7951    4.3051    8.8073 H   0  0  0  0  0  0  0  0  0  0  0  0
   11.3946    3.0261    8.7520 C   0  0  0  0  0  0  0  0  0  0  0  0
   10.7636    2.1445    8.6640 H   0  0  0  0  0  0  0  0  0  0  0  0
   11.8470    3.0261    9.7414 H   0  0  0  0  0  0  0  0  0  0  0  0
   13.2093    3.0261    0.8322 C   0  0  2  0  0  3  0  0  0  0  0  0
   12.3697    4.1741    0.8885 C   0  0  1  0  0  0  0  0  0  0  0  0
   11.0147    3.7326    0.8402 C   0  0  0  0  0  0  0  0  0  0  0  0
   14.6514    3.0262    0.4166 C   0  0  0  0  0  0  0  0  0  0  0  0
   15.1841    2.1437    0.7633 H   0  0  0  0  0  0  0  0  0  0  0  0
   14.6935    3.0262   -0.6760 H   0  0  0  0  0  0  0  0  0  0  0  0
   12.7898    5.6118    0.8041 C   0  0  0  0  0  0  0  0  0  0  0  0
   13.8635    5.7227    0.9423 H   0  0  0  0  0  0  0  0  0  0  0  0
   12.2772    6.2014    1.5677 H   0  0  0  0  0  0  0  0  0  0  0  0
   12.5290    6.0243   -0.1728 H   0  0  0  0  0  0  0  0  0  0  0  0
    9.8152    4.5962    0.6049 C   0  0  0  0  0  0  0  0  0  0  0  0
    9.9908    5.6154    0.9411 H   0  0  0  0  0  0  0  0  0  0  0  0
    8.9440    4.2064    1.1302 H   0  0  0  0  0  0  0  0  0  0  0  0
    9.5890    4.6158   -0.4643 H   0  0  0  0  0  0  0  0  0  0  0  0
   10.5909    4.6243    3.5433 Cl  0  0  0  0  0  0  0  0  0  0  0  0
   14.1702    2.3174    3.5079 C   0  0  1  0  0  0  0  0  0  0  0  0
   13.2859    1.8862    4.5112 C   0  0  0  0  0  0  0  0  0  0  0  0
   14.8513    1.6780    2.9641 H   0  0  0  0  0  0  0  0  0  0  0  0
   13.1163    0.8589    4.8068 H   0  0  0  0  0  0  0  0  0  0  0  0
   11.1320    3.9118    6.2275 H   0  0  0  0  0  0  0  0  0  0  0  0
   13.3447    1.7772    7.8172 C   0  0  0  0  0  0  0  0  0  0  0  0
   12.7475    0.8775    7.6855 H   0  0  0  0  0  0  0  0  0  0  0  0
   14.1426    1.7756    7.0780 H   0  0  0  0  0  0  0  0  0  0  0  0
   13.7951    1.7471    8.8072 H   0  0  0  0  0  0  0  0  0  0  0  0
   10.7636    3.9077    8.6640 H   0  0  0  0  0  0  0  0  0  0  0  0
   12.3698    1.8782    0.8885 C   0  0  2  0  0  0  0  0  0  0  0  0
   15.1841    3.9087    0.7632 H   0  0  0  0  0  0  0  0  0  0  0  0
   11.0147    2.3196    0.8401 C   0  0  0  0  0  0  0  0  0  0  0  0
    9.8152    1.4560    0.6049 C   0  0  0  0  0  0  0  0  0  0  0  0
    9.9909    0.4368    0.9411 H   0  0  0  0  0  0  0  0  0  0  0  0
    8.9441    1.8458    1.1303 H   0  0  0  0  0  0  0  0  0  0  0  0
    9.5890    1.4364   -0.4642 H   0  0  0  0  0  0  0  0  0  0  0  0
   12.7898    0.4404    0.8041 C   0  0  0  0  0  0  0  0  0  0  0  0
   13.8636    0.3296    0.9423 H   0  0  0  0  0  0  0  0  0  0  0  0
   12.2774   -0.1491    1.5678 H   0  0  0  0  0  0  0  0  0  0  0  0
   12.5290    0.0279   -0.1727 H   0  0  0  0  0  0  0  0  0  0  0  0
  1 33  1  0  0  0  0
  1  2  1  0  0  0  0
  1 32  1  0  0  0  0
  3  5  2  0  0  0  0
  4  3  1  0  0  0  0
  5  6  1  0  0  0  0
  5  7  1  0  0  0  0
  7  8  1  0  0  0  0
  8 10  1  0  0  0  0
  9  8  1  0  0  0  0
 10 38  1  0  0  0  0
 10 11  1  0  0  0  0
 10 15  1  0  0  0  0
 11 14  1  0  0  0  0
 12 11  1  0  0  0  0
 13 11  1  0  0  0  0
 15 17  1  0  0  0  0
 16 15  1  0  0  0  0
 18 21  1  6  0  0  0
 18 43  1  0  0  0  0
 18 19  1  0  0  0  0
 19 24  1  6  0  0  0
 19  1  1  0  0  0  0
 20 19  1  0  0  0  0
 21 44  1  0  0  0  0
 21 22  1  0  0  0  0
 23 21  1  0  0  0  0
 24 25  1  0  0  0  0
 24 26  1  0  0  0  0
 27 24  1  0  0  0  0
 28 20  1  0  0  0  0
 28 29  1  0  0  0  0
 28 30  1  0  0  0  0
 31 28  1  0  0  0  0
 33 35  1  6  0  0  0
 33  3  1  0  0  0  0
 33 34  1  0  0  0  0
 34 36  1  0  0  0  0
 34  7  2  0  0  0  0
 37  8  1  0  0  0  0
 38 41  1  0  0  0  0
 39 38  1  0  0  0  0
 40 38  1  0  0  0  0
 42 15  1  0  0  0  0
 43 50  1  6  0  0  0
 43  1  1  0  0  0  0
 45 20  2  0  0  0  0
 45 43  1  0  0  0  0
 46 45  1  0  0  0  0
 46 47  1  0  0  0  0
 46 48  1  0  0  0  0
 49 46  1  0  0  0  0
 50 51  1  0  0  0  0
 50 52  1  0  0  0  0
 53 50  1  0  0  0  0
M  END
$$$$
