CSD_code = XODFIF | q = 0 | S = 0 | Stoichiometry = C20H31ClOTi | MND = 12
 OpenBabel04212202123D

 54 55  0  0  1  0  0  0  0  0999 V2000
    4.0152    1.1116    0.6464 Ti  0  0  2  0  0  0  0  0  0  0  0  0
    5.4841    1.9075   -0.8747 Cl  0  0  0  0  0  0  0  0  0  0  0  0
    5.3398    0.5690    1.6542 O   0  0  0  0  0  0  0  0  0  0  0  0
    6.0531    0.0066    1.3322 H   0  0  0  0  0  0  0  0  0  0  0  0
    3.5988   -0.2756   -1.3776 C   0  0  0  0  0  0  0  0  0  0  0  0
    2.4032    0.1420   -0.7605 C   0  0  0  0  0  0  0  0  0  0  0  0
    1.6020    0.6682   -1.2622 H   0  0  0  0  0  0  0  0  0  0  0  0
    2.3335   -0.4560    0.5237 C   0  0  1  0  0  0  0  0  0  0  0  0
    1.4623   -0.4954    1.1617 H   0  0  0  0  0  0  0  0  0  0  0  0
    3.5031   -1.2235    0.7056 C   0  0  0  0  0  0  0  0  0  0  0  0
    3.7170   -1.8632    1.5538 H   0  0  0  0  0  0  0  0  0  0  0  0
    4.2896   -1.0942   -0.4547 C   0  0  0  0  0  0  0  0  0  0  0  0
    5.2305   -1.5959   -0.6460 H   0  0  0  0  0  0  0  0  0  0  0  0
    3.9902   -0.0194   -2.8014 C   0  0  0  0  0  0  0  0  0  0  0  0
    5.0792    0.0182   -2.8788 H   0  0  0  0  0  0  0  0  0  0  0  0
    3.6029    0.9548   -3.1134 H   0  0  0  0  0  0  0  0  0  0  0  0
    3.4680   -1.0943   -3.7853 C   0  0  0  0  0  0  0  0  0  0  0  0
    3.9260   -0.7098   -5.1943 C   0  0  0  0  0  0  0  0  0  0  0  0
    5.0112   -0.6603   -5.2444 H   0  0  0  0  0  0  0  0  0  0  0  0
    3.5272    0.2620   -5.4770 H   0  0  0  0  0  0  0  0  0  0  0  0
    3.5827   -1.4445   -5.9198 H   0  0  0  0  0  0  0  0  0  0  0  0
    4.0388   -2.4662   -3.4252 C   0  0  0  0  0  0  0  0  0  0  0  0
    5.1262   -2.4405   -3.4282 H   0  0  0  0  0  0  0  0  0  0  0  0
    3.7124   -3.2120   -4.1472 H   0  0  0  0  0  0  0  0  0  0  0  0
    3.7012   -2.7736   -2.4383 H   0  0  0  0  0  0  0  0  0  0  0  0
    1.9405   -1.1557   -3.7493 C   0  0  0  0  0  0  0  0  0  0  0  0
    1.5116   -0.1847   -3.9886 H   0  0  0  0  0  0  0  0  0  0  0  0
    1.5934   -1.4573   -2.7641 H   0  0  0  0  0  0  0  0  0  0  0  0
    1.5753   -1.8779   -4.4766 H   0  0  0  0  0  0  0  0  0  0  0  0
    4.1792    3.2365    1.4848 C   0  0  2  0  0  0  0  0  0  0  0  0
    3.7774    2.4518    2.5979 C   0  0  0  0  0  0  0  0  0  0  0  0
    2.4799    1.9515    2.3379 C   0  0  0  0  0  0  0  0  0  0  0  0
    2.0437    2.4791    1.0888 C   0  0  0  0  0  0  0  0  0  0  0  0
    3.1007    3.2476    0.5434 C   0  0  0  0  0  0  0  0  0  0  0  0
    5.4271    4.0654    1.4449 C   0  0  0  0  0  0  0  0  0  0  0  0
    5.6502    4.3940    0.4325 H   0  0  0  0  0  0  0  0  0  0  0  0
    6.2749    3.4887    1.8171 H   0  0  0  0  0  0  0  0  0  0  0  0
    5.3054    4.9480    2.0780 H   0  0  0  0  0  0  0  0  0  0  0  0
    4.5627    2.2971    3.8637 C   0  0  0  0  0  0  0  0  0  0  0  0
    3.9875    1.7590    4.6133 H   0  0  0  0  0  0  0  0  0  0  0  0
    4.8271    3.2787    4.2593 H   0  0  0  0  0  0  0  0  0  0  0  0
    5.4862    1.7467    3.6716 H   0  0  0  0  0  0  0  0  0  0  0  0
    1.6386    1.2119    3.3383 C   0  0  0  0  0  0  0  0  0  0  0  0
    0.6662    0.9551    2.9242 H   0  0  0  0  0  0  0  0  0  0  0  0
    1.4696    1.8412    4.2147 H   0  0  0  0  0  0  0  0  0  0  0  0
    2.1319    0.2978    3.6725 H   0  0  0  0  0  0  0  0  0  0  0  0
    0.6237    2.4707    0.5976 C   0  0  0  0  0  0  0  0  0  0  0  0
    0.1510    1.4949    0.7014 H   0  0  0  0  0  0  0  0  0  0  0  0
    0.5629    2.7749   -0.4455 H   0  0  0  0  0  0  0  0  0  0  0  0
    0.0401    3.1850    1.1841 H   0  0  0  0  0  0  0  0  0  0  0  0
    3.0318    4.1001   -0.6912 C   0  0  0  0  0  0  0  0  0  0  0  0
    4.0116    4.1780   -1.1608 H   0  0  0  0  0  0  0  0  0  0  0  0
    2.6931    5.1066   -0.4333 H   0  0  0  0  0  0  0  0  0  0  0  0
    2.3379    3.6836   -1.4218 H   0  0  0  0  0  0  0  0  0  0  0  0
  1  2  1  6  0  0  0
  1 30  1  0  0  0  0
  1  3  1  0  0  0  0
  4  3  1  0  0  0  0
  5  6  2  0  0  0  0
  5 12  1  0  0  0  0
  6  8  1  0  0  0  0
  7  6  1  0  0  0  0
  8  1  1  0  0  0  0
  8 10  1  0  0  0  0
  8  9  1  1  0  0  0
 10 11  1  0  0  0  0
 12 10  2  0  0  0  0
 13 12  1  0  0  0  0
 14  5  1  0  0  0  0
 15 14  1  0  0  0  0
 16 14  1  0  0  0  0
 17 26  1  0  0  0  0
 17 22  1  0  0  0  0
 17 14  1  0  0  0  0
 18 17  1  0  0  0  0
 19 18  1  0  0  0  0
 20 18  1  0  0  0  0
 21 18  1  0  0  0  0
 22 25  1  0  0  0  0
 23 22  1  0  0  0  0
 24 22  1  0  0  0  0
 26 28  1  0  0  0  0
 27 26  1  0  0  0  0
 29 26  1  0  0  0  0
 30 35  1  6  0  0  0
 30 31  1  0  0  0  0
 31 39  1  0  0  0  0
 32 31  2  0  0  0  0
 32 43  1  0  0  0  0
 33 32  1  0  0  0  0
 34 33  2  0  0  0  0
 34 30  1  0  0  0  0
 35 37  1  0  0  0  0
 35 38  1  0  0  0  0
 36 35  1  0  0  0  0
 39 41  1  0  0  0  0
 39 40  1  0  0  0  0
 42 39  1  0  0  0  0
 43 46  1  0  0  0  0
 43 45  1  0  0  0  0
 44 43  1  0  0  0  0
 47 48  1  0  0  0  0
 47 33  1  0  0  0  0
 47 50  1  0  0  0  0
 49 47  1  0  0  0  0
 51 53  1  0  0  0  0
 51 34  1  0  0  0  0
 52 51  1  0  0  0  0
 54 51  1  0  0  0  0
M  END
$$$$
