CSD_code = XODLEH | q = 0 | S = 0 | Stoichiometry = C22H20Cl2N8Os | MND = 6
 OpenBabel04212202123D

 53 58  0  0  0  0  0  0  0  0999 V2000
    1.2930    2.9884    3.1293 Os  0  0  0  0  0  0  0  0  0  0  0  0
    0.5966    5.0871    2.3888 Cl  0  0  0  0  0  0  0  0  0  0  0  0
   -0.9206    2.2548    3.0081 Cl  0  0  0  0  0  0  0  0  0  0  0  0
    3.1588    4.6343    4.3879 N   0  0  0  0  0  0  0  0  0  0  0  0
    2.1137    4.6460    5.2284 C   0  0  0  0  0  0  0  0  0  0  0  0
    1.0987    3.7586    4.9618 N   0  0  0  0  0  0  0  0  0  0  0  0
    0.0894    3.7060    5.8264 C   0  0  0  0  0  0  0  0  0  0  0  0
   -0.7129    3.0193    5.5855 H   0  0  0  0  0  0  0  0  0  0  0  0
    0.0661    4.5075    6.9506 C   0  0  0  0  0  0  0  0  0  0  0  0
   -0.7585    4.4714    7.6416 H   0  0  0  0  0  0  0  0  0  0  0  0
    1.1426    5.3793    7.1315 C   0  0  0  0  0  0  0  0  0  0  0  0
    1.1942    6.0503    7.9781 H   0  0  0  0  0  0  0  0  0  0  0  0
    2.1466    5.4447    6.2901 N   0  0  0  0  0  0  0  0  0  0  0  0
    3.0370    3.7971    3.4032 N   0  0  0  0  0  0  0  0  0  0  0  0
    4.1305    3.7542    2.5435 C   0  0  0  0  0  0  0  0  0  0  0  0
    4.8854    4.9099    2.3136 C   0  0  0  0  0  0  0  0  0  0  0  0
    4.6117    5.8118    2.8376 H   0  0  0  0  0  0  0  0  0  0  0  0
    5.9264    4.8852    1.4129 C   0  0  0  0  0  0  0  0  0  0  0  0
    6.4928    5.7864    1.2289 H   0  0  0  0  0  0  0  0  0  0  0  0
    6.2626    3.7170    0.7312 C   0  0  0  0  0  0  0  0  0  0  0  0
    5.5262    2.5650    0.9871 C   0  0  0  0  0  0  0  0  0  0  0  0
    5.7846    1.6434    0.4862 H   0  0  0  0  0  0  0  0  0  0  0  0
    4.4723    2.5747    1.8784 C   0  0  0  0  0  0  0  0  0  0  0  0
    3.9430    1.6568    2.0918 H   0  0  0  0  0  0  0  0  0  0  0  0
    7.3982    3.7126   -0.2418 C   0  0  0  0  0  0  0  0  0  0  0  0
    7.5258    2.7317   -0.6914 H   0  0  0  0  0  0  0  0  0  0  0  0
    8.3246    3.9903    0.2595 H   0  0  0  0  0  0  0  0  0  0  0  0
    7.2214    4.4401   -1.0326 H   0  0  0  0  0  0  0  0  0  0  0  0
    1.6373    0.2836    2.5587 N   0  0  0  0  0  0  0  0  0  0  0  0
    1.4536    0.8375    1.3501 C   0  0  0  0  0  0  0  0  0  0  0  0
    1.4574    2.2113    1.2931 N   0  0  0  0  0  0  0  0  0  0  0  0
    1.3394    2.7733    0.0936 C   0  0  0  0  0  0  0  0  0  0  0  0
    1.3174    3.8560    0.0721 H   0  0  0  0  0  0  0  0  0  0  0  0
    1.2222    2.0068   -1.0491 C   0  0  0  0  0  0  0  0  0  0  0  0
    1.1118    2.4651   -2.0169 H   0  0  0  0  0  0  0  0  0  0  0  0
    1.2267    0.6196   -0.8866 C   0  0  0  0  0  0  0  0  0  0  0  0
    1.1244   -0.0517   -1.7285 H   0  0  0  0  0  0  0  0  0  0  0  0
    1.3454    0.0473    0.2877 N   0  0  0  0  0  0  0  0  0  0  0  0
    1.7436    1.1452    3.5228 N   0  0  0  0  0  0  0  0  0  0  0  0
    1.9390    0.5910    4.7844 C   0  0  0  0  0  0  0  0  0  0  0  0
    1.3301   -0.6225    5.1150 C   0  0  0  0  0  0  0  0  0  0  0  0
    0.7509   -1.1273    4.3583 H   0  0  0  0  0  0  0  0  0  0  0  0
    1.4435   -1.1257    6.3940 C   0  0  0  0  0  0  0  0  0  0  0  0
    0.9493   -2.0531    6.6432 H   0  0  0  0  0  0  0  0  0  0  0  0
    2.1781   -0.4564    7.3670 C   0  0  0  0  0  0  0  0  0  0  0  0
    2.8153    0.7331    7.0180 C   0  0  0  0  0  0  0  0  0  0  0  0
    3.4116    1.2514    7.7547 H   0  0  0  0  0  0  0  0  0  0  0  0
    2.7009    1.2577    5.7487 C   0  0  0  0  0  0  0  0  0  0  0  0
    3.2348    2.1613    5.4897 H   0  0  0  0  0  0  0  0  0  0  0  0
    2.3016   -0.9941    8.7573 C   0  0  0  0  0  0  0  0  0  0  0  0
    1.6967   -1.8873    8.8865 H   0  0  0  0  0  0  0  0  0  0  0  0
    1.9840   -0.2467    9.4829 H   0  0  0  0  0  0  0  0  0  0  0  0
    3.3400   -1.2428    8.9734 H   0  0  0  0  0  0  0  0  0  0  0  0
  1 14  1  0  0  0  0
  1 39  1  0  0  0  0
  1  6  1  0  0  0  0
  2  1  1  0  0  0  0
  3  1  1  0  0  0  0
  4  5  2  0  0  0  0
  5 13  1  0  0  0  0
  6  5  1  0  0  0  0
  6  7  1  0  0  0  0
  7  9  2  0  0  0  0
  8  7  1  0  0  0  0
  9 11  1  0  0  0  0
  9 10  1  0  0  0  0
 11 12  1  0  0  0  0
 13 11  2  0  0  0  0
 14  4  1  0  0  0  0
 15 14  1  0  0  0  0
 16 15  1  0  0  0  0
 16 17  1  0  0  0  0
 18 16  2  0  0  0  0
 19 18  1  0  0  0  0
 20 21  2  0  0  0  0
 20 18  1  0  0  0  0
 21 23  1  0  0  0  0
 22 21  1  0  0  0  0
 23 24  1  0  0  0  0
 23 15  2  0  0  0  0
 25 27  1  0  0  0  0
 25 20  1  0  0  0  0
 26 25  1  0  0  0  0
 28 25  1  0  0  0  0
 29 39  1  0  0  0  0
 30 29  2  0  0  0  0
 31 30  1  0  0  0  0
 31  1  1  0  0  0  0
 32 31  1  0  0  0  0
 33 32  1  0  0  0  0
 34 36  1  0  0  0  0
 34 32  2  0  0  0  0
 35 34  1  0  0  0  0
 36 38  2  0  0  0  0
 37 36  1  0  0  0  0
 38 30  1  0  0  0  0
 39 40  1  0  0  0  0
 40 41  2  0  0  0  0
 40 48  1  0  0  0  0
 41 43  1  0  0  0  0
 42 41  1  0  0  0  0
 43 44  1  0  0  0  0
 43 45  2  0  0  0  0
 45 50  1  0  0  0  0
 46 45  1  0  0  0  0
 46 47  1  0  0  0  0
 48 46  2  0  0  0  0
 49 48  1  0  0  0  0
 50 51  1  0  0  0  0
 50 53  1  0  0  0  0
 50 52  1  0  0  0  0
M  END
$$$$
