CSD_code = XODPUC | q = 0 | S = 0 | Stoichiometry = C13H20BrN3OPd | MND = 4
 OpenBabel04212202123D

 39 41  0  0  0  0  0  0  0  0999 V2000
    1.7660    8.8174    7.4800 Pd  0  0  2  0  0  0  0  0  0  0  0  0
    0.0372    8.2417    9.0929 Br  0  0  0  0  0  0  0  0  0  0  0  0
    5.1143    9.9122    4.3783 C   0  0  0  0  0  0  0  0  0  0  0  0
    4.1884    8.9052    4.0778 C   0  0  0  0  0  0  0  0  0  0  0  0
    4.2703    8.3965    3.1297 H   0  0  0  0  0  0  0  0  0  0  0  0
    3.1962    8.5922    4.9868 C   0  0  0  0  0  0  0  0  0  0  0  0
    3.1421    9.2740    6.1987 C   0  0  0  0  0  0  0  0  0  0  0  0
    4.0584   10.2706    6.5129 C   0  0  0  0  0  0  0  0  0  0  0  0
    5.0425   10.5968    5.5963 C   0  0  0  0  0  0  0  0  0  0  0  0
    5.7635   11.3723    5.8167 H   0  0  0  0  0  0  0  0  0  0  0  0
    2.0853    7.5915    4.7814 C   0  0  0  0  0  0  0  0  0  0  0  0
    2.4306    6.6803    4.2726 H   0  0  0  0  0  0  0  0  0  0  0  0
    1.3172    8.0557    4.1513 H   0  0  0  0  0  0  0  0  0  0  0  0
    1.4647    7.2416    6.0860 N   0  0  0  0  0  4  0  0  0  0  0  0
    2.2231    6.1584    6.7226 C   0  0  0  0  0  0  0  0  0  0  0  0
    2.1520    5.2342    6.1327 H   0  0  0  0  0  0  0  0  0  0  0  0
    1.8206    5.9662    7.7236 H   0  0  0  0  0  0  0  0  0  0  0  0
    3.2773    6.4435    6.8061 H   0  0  0  0  0  0  0  0  0  0  0  0
    0.0787    6.8195    5.8915 C   0  0  0  0  0  0  0  0  0  0  0  0
   -0.3497    6.5094    6.8457 H   0  0  0  0  0  0  0  0  0  0  0  0
    0.0183    5.9800    5.1870 H   0  0  0  0  0  0  0  0  0  0  0  0
   -0.5111    7.6544    5.5068 H   0  0  0  0  0  0  0  0  0  0  0  0
    3.9011   10.8583    7.8939 C   0  0  0  0  0  0  0  0  0  0  0  0
    4.0743   11.9441    7.9106 H   0  0  0  0  0  0  0  0  0  0  0  0
    4.6435   10.3919    8.5528 H   0  0  0  0  0  0  0  0  0  0  0  0
    2.5490   10.5516    8.4296 N   0  0  0  0  0  4  0  0  0  0  0  0
    2.5774   10.5190    9.8908 C   0  0  0  0  0  0  0  0  0  0  0  0
    1.5711   10.3475   10.2753 H   0  0  0  0  0  0  0  0  0  0  0  0
    2.9554   11.4655   10.2984 H   0  0  0  0  0  0  0  0  0  0  0  0
    3.2171    9.7010   10.2297 H   0  0  0  0  0  0  0  0  0  0  0  0
    1.5924   11.5699    7.9802 C   0  0  0  0  0  0  0  0  0  0  0  0
    1.8364   12.5508    8.4112 H   0  0  0  0  0  0  0  0  0  0  0  0
    0.5815   11.2903    8.2975 H   0  0  0  0  0  0  0  0  0  0  0  0
    1.6192   11.6472    6.8880 H   0  0  0  0  0  0  0  0  0  0  0  0
    6.1593   10.2589    3.4386 C   0  0  0  0  0  0  0  0  0  0  0  0
    6.8451   11.0587    3.7234 H   0  0  0  0  0  0  0  0  0  0  0  0
    6.2750    9.6542    2.3281 N   0  0  0  0  0  0  0  0  0  0  0  0
    7.3264   10.0915    1.5262 O   0  0  0  0  0  0  0  0  0  0  0  0
    7.2744    9.5369    0.7357 H   0  0  0  0  0  0  0  0  0  0  0  0
  1 26  1  0  0  0  0
  1  2  1  6  0  0  0
  3  9  1  0  0  0  0
  4  3  2  0  0  0  0
  4  6  1  0  0  0  0
  5  4  1  0  0  0  0
  6  7  2  0  0  0  0
  7  8  1  0  0  0  0
  7  1  1  0  0  0  0
  8 23  1  0  0  0  0
  9 10  1  0  0  0  0
  9  8  2  0  0  0  0
 11  6  1  0  0  0  0
 11 14  1  0  0  0  0
 12 11  1  0  0  0  0
 13 11  1  0  0  0  0
 14 15  1  0  0  0  0
 14  1  1  0  0  0  0
 15 18  1  0  0  0  0
 15 17  1  0  0  0  0
 16 15  1  0  0  0  0
 19 14  1  0  0  0  0
 19 20  1  0  0  0  0
 21 19  1  0  0  0  0
 22 19  1  0  0  0  0
 23 24  1  0  0  0  0
 23 26  1  0  0  0  0
 23 25  1  0  0  0  0
 26 27  1  0  0  0  0
 27 30  1  0  0  0  0
 27 28  1  0  0  0  0
 27 29  1  0  0  0  0
 31 33  1  0  0  0  0
 31 32  1  0  0  0  0
 31 26  1  0  0  0  0
 34 31  1  0  0  0  0
 35 36  1  0  0  0  0
 35  3  1  0  0  0  0
 37 35  2  0  0  0  0
 38 37  1  0  0  0  0
 39 38  1  0  0  0  0
M  END
$$$$
