CSD_code = XOFCED | q = 0 | S = 0 | Stoichiometry = C24H26Cl2N4Pd | MND = 4
 OpenBabel04212202123D

 57 61  0  0  1  0  0  0  0  0999 V2000
    0.5856    4.3989    3.0236 Pd  0  0  0  0  0  0  0  0  0  0  0  0
   -1.0652    5.8088    3.5469 Cl  0  0  0  0  0  0  0  0  0  0  0  0
   -0.6055    2.6493    3.7255 Cl  0  0  0  0  0  0  0  0  0  0  0  0
    2.0722    3.0947    0.9271 N   0  0  0  0  0  0  0  0  0  0  0  0
    1.9958    3.1472    2.2650 N   0  0  2  0  0  0  0  0  0  0  0  0
    2.8120    2.2425    2.7693 C   0  0  2  0  0  3  0  0  0  0  0  0
    2.9316    2.0771    4.2398 C   0  0  0  0  0  0  0  0  0  0  0  0
    2.2752    2.8086    4.7267 H   0  0  0  0  0  0  0  0  0  0  0  0
    3.9592    2.2268    4.5688 H   0  0  0  0  0  0  0  0  0  0  0  0
    2.6151    1.0778    4.5341 H   0  0  0  0  0  0  0  0  0  0  0  0
    3.4493    1.5789    1.7103 C   0  0  0  0  0  0  0  0  0  0  0  0
    4.1671    0.7881    1.7834 H   0  0  0  0  0  0  0  0  0  0  0  0
    2.9577    2.1396    0.5490 C   0  0  0  0  0  0  0  0  0  0  0  0
    3.2797    1.7778   -0.8538 C   0  0  0  0  0  0  0  0  0  0  0  0
    2.4419    1.2588   -1.3189 H   0  0  0  0  0  0  0  0  0  0  0  0
    4.1414    1.1158   -0.8579 H   0  0  0  0  0  0  0  0  0  0  0  0
    3.5106    2.6573   -1.4500 H   0  0  0  0  0  0  0  0  0  0  0  0
    1.2510    4.0084    0.1503 C   0  0  2  0  0  0  0  0  0  0  0  0
    0.4083    4.2861    0.8388 H   0  0  0  0  0  0  0  0  0  0  0  0
    0.6003    3.2632   -0.9921 C   0  0  0  0  0  0  0  0  0  0  0  0
    0.8673    3.4653   -2.3372 C   0  0  0  0  0  0  0  0  0  0  0  0
    1.5908    4.1994   -2.6522 H   0  0  0  0  0  0  0  0  0  0  0  0
    0.2103    2.7140   -3.2985 C   0  0  0  0  0  0  0  0  0  0  0  0
    0.4254    2.8822   -4.3432 H   0  0  0  0  0  0  0  0  0  0  0  0
   -0.7122    1.7533   -2.9259 C   0  0  0  0  0  0  0  0  0  0  0  0
   -1.2202    1.1702   -3.6790 H   0  0  0  0  0  0  0  0  0  0  0  0
   -0.9857    1.5474   -1.5828 C   0  0  0  0  0  0  0  0  0  0  0  0
   -1.7103    0.8061   -1.2832 H   0  0  0  0  0  0  0  0  0  0  0  0
   -0.3385    2.3009   -0.6229 C   0  0  0  0  0  0  0  0  0  0  0  0
   -0.5643    2.1534    0.4266 H   0  0  0  0  0  0  0  0  0  0  0  0
    1.9808    5.3394   -0.1783 C   0  0  2  0  0  0  0  0  0  0  0  0
    1.4844    5.7749   -1.0533 H   0  0  0  0  0  0  0  0  0  0  0  0
    3.4596    5.1588   -0.4592 C   0  0  0  0  0  0  0  0  0  0  0  0
    3.9700    5.2872   -1.7450 C   0  0  0  0  0  0  0  0  0  0  0  0
    3.3141    5.5358   -2.5677 H   0  0  0  0  0  0  0  0  0  0  0  0
    5.3217    5.1115   -1.9851 C   0  0  0  0  0  0  0  0  0  0  0  0
    5.7037    5.2113   -2.9900 H   0  0  0  0  0  0  0  0  0  0  0  0
    6.1794    4.8147   -0.9400 C   0  0  0  0  0  0  0  0  0  0  0  0
    7.2328    4.6745   -1.1282 H   0  0  0  0  0  0  0  0  0  0  0  0
    5.6831    4.7154    0.3485 C   0  0  0  0  0  0  0  0  0  0  0  0
    6.3484    4.5031    1.1713 H   0  0  0  0  0  0  0  0  0  0  0  0
    4.3330    4.8927    0.5899 C   0  0  0  0  0  0  0  0  0  0  0  0
    3.9615    4.8385    1.6036 H   0  0  0  0  0  0  0  0  0  0  0  0
    1.8413    6.3122    0.9001 N   0  0  0  0  0  0  0  0  0  0  0  0
    1.7191    5.9889    2.2008 N   0  0  1  0  0  0  0  0  0  0  0  0
    1.8960    7.0923    2.9111 C   0  0  1  0  0  3  0  0  0  0  0  0
    1.8295    7.0650    4.3947 C   0  0  0  0  0  0  0  0  0  0  0  0
    0.9371    7.5897    4.7333 H   0  0  0  0  0  0  0  0  0  0  0  0
    2.7061    7.5443    4.8280 H   0  0  0  0  0  0  0  0  0  0  0  0
    1.7609    6.0197    4.7370 H   0  0  0  0  0  0  0  0  0  0  0  0
    2.1614    8.1618    2.0436 C   0  0  0  0  0  0  0  0  0  0  0  0
    2.3389    9.1821    2.3133 H   0  0  0  0  0  0  0  0  0  0  0  0
    2.1279    7.6333    0.7721 C   0  0  0  0  0  0  0  0  0  0  0  0
    2.3457    8.2964   -0.5375 C   0  0  0  0  0  0  0  0  0  0  0  0
    3.2306    7.8971   -1.0340 H   0  0  0  0  0  0  0  0  0  0  0  0
    2.4856    9.3619   -0.3807 H   0  0  0  0  0  0  0  0  0  0  0  0
    1.4873    8.1533   -1.1935 H   0  0  0  0  0  0  0  0  0  0  0  0
  1  2  1  0  0  0  0
  1  3  1  0  0  0  0
  5  4  1  6  0  0  0
  5  6  1  0  0  0  0
  5  1  1  0  0  0  0
  6  7  1  1  0  0  0
  7 10  1  0  0  0  0
  7  9  1  0  0  0  0
  7  8  1  0  0  0  0
 11 12  1  0  0  0  0
 11  6  1  0  0  0  0
 13  4  1  0  0  0  0
 13 11  2  0  0  0  0
 14 13  1  0  0  0  0
 15 14  1  0  0  0  0
 16 14  1  0  0  0  0
 17 14  1  0  0  0  0
 18 19  1  1  0  0  0
 18  4  1  0  0  0  0
 20 29  1  0  0  0  0
 20 18  1  0  0  0  0
 21 20  2  0  0  0  0
 22 21  1  0  0  0  0
 23 25  2  0  0  0  0
 23 21  1  0  0  0  0
 24 23  1  0  0  0  0
 25 27  1  0  0  0  0
 26 25  1  0  0  0  0
 27 28  1  0  0  0  0
 27 29  2  0  0  0  0
 29 30  1  0  0  0  0
 31 32  1  6  0  0  0
 31 18  1  0  0  0  0
 31 44  1  0  0  0  0
 33 31  1  0  0  0  0
 33 42  1  0  0  0  0
 34 33  2  0  0  0  0
 35 34  1  0  0  0  0
 36 34  1  0  0  0  0
 36 38  2  0  0  0  0
 37 36  1  0  0  0  0
 38 40  1  0  0  0  0
 39 38  1  0  0  0  0
 40 42  2  0  0  0  0
 40 41  1  0  0  0  0
 42 43  1  0  0  0  0
 45 44  1  6  0  0  0
 45 46  1  0  0  0  0
 45  1  1  0  0  0  0
 46 47  1  1  0  0  0
 47 48  1  0  0  0  0
 47 50  1  0  0  0  0
 47 49  1  0  0  0  0
 51 52  1  0  0  0  0
 51 46  1  0  0  0  0
 53 44  1  0  0  0  0
 53 51  2  0  0  0  0
 54 56  1  0  0  0  0
 54 53  1  0  0  0  0
 55 54  1  0  0  0  0
 57 54  1  0  0  0  0
M  END
$$$$
