CSD_code = XOFTIX | q = 0 | S = 0 | Stoichiometry = C18H16Cl2F8N2O2Pd | MND = 4
 OpenBabel04212202123D

 49 51  0  0  0  0  0  0  0  0999 V2000
   -6.2540    1.7571   11.5092 Pd  0  0  0  0  0  0  0  0  0  0  0  0
   -7.8159    3.0459   12.3950 Cl  0  0  0  0  0  0  0  0  0  0  0  0
   -7.8399    0.5667   10.5331 Cl  0  0  0  0  0  0  0  0  0  0  0  0
   -1.7587   -4.1688    6.2986 F   0  0  0  0  0  0  0  0  0  0  0  0
    0.2715   -3.7783    5.6696 F   0  0  0  0  0  0  0  0  0  0  0  0
   -1.3150   -2.3253    4.1065 F   0  0  0  0  0  0  0  0  0  0  0  0
   -0.5523   -0.9471    5.5906 F   0  0  0  0  0  0  0  0  0  0  0  0
   -1.7000    7.5871   16.7993 F   0  0  0  0  0  0  0  0  0  0  0  0
    0.2298    7.0674   17.6216 F   0  0  0  0  0  0  0  0  0  0  0  0
   -0.8447    4.3293   17.7961 F   0  0  0  0  0  0  0  0  0  0  0  0
   -1.6068    5.8608   19.1220 F   0  0  0  0  0  0  0  0  0  0  0  0
   -1.5025   -2.0002    8.1678 O   0  0  0  0  0  0  0  0  0  0  0  0
   -1.4886    5.2886   15.0850 O   0  0  0  0  0  0  0  0  0  0  0  0
   -4.7334    0.6629   10.7732 N   0  0  0  0  0  0  0  0  0  0  0  0
   -4.7130    2.7554   12.3343 N   0  0  0  0  0  0  0  0  0  0  0  0
   -3.5060    1.0812   11.1561 C   0  0  0  0  0  0  0  0  0  0  0  0
   -2.3583    0.4159   10.7258 C   0  0  0  0  0  0  0  0  0  0  0  0
   -1.3835    0.7587   11.0325 H   0  0  0  0  0  0  0  0  0  0  0  0
   -2.4688   -0.6916    9.9003 C   0  0  0  0  0  0  0  0  0  0  0  0
   -3.7455   -1.1036    9.5212 C   0  0  0  0  0  0  0  0  0  0  0  0
   -3.8684   -1.9574    8.8766 H   0  0  0  0  0  0  0  0  0  0  0  0
   -4.8423   -0.3995    9.9758 C   0  0  0  0  0  0  0  0  0  0  0  0
   -5.8554   -0.6806    9.7063 H   0  0  0  0  0  0  0  0  0  0  0  0
   -3.4943    2.2569   12.0266 C   0  0  0  0  0  0  0  0  0  0  0  0
   -2.3342    2.8480   12.5259 C   0  0  0  0  0  0  0  0  0  0  0  0
   -1.3668    2.4415   12.2794 H   0  0  0  0  0  0  0  0  0  0  0  0
   -2.4222    3.9642   13.3428 C   0  0  0  0  0  0  0  0  0  0  0  0
   -3.6898    4.4605   13.6422 C   0  0  0  0  0  0  0  0  0  0  0  0
   -3.7956    5.3249   14.2754 H   0  0  0  0  0  0  0  0  0  0  0  0
   -4.8005    3.8264   13.1224 C   0  0  0  0  0  0  0  0  0  0  0  0
   -5.8076    4.1741   13.3297 H   0  0  0  0  0  0  0  0  0  0  0  0
   -1.2503   -1.4400    9.4408 C   0  0  0  0  0  0  0  0  0  0  0  0
   -0.3812   -0.7676    9.3920 H   0  0  0  0  0  0  0  0  0  0  0  0
   -1.0213   -2.2401   10.1648 H   0  0  0  0  0  0  0  0  0  0  0  0
   -0.4349   -2.7609    7.6758 C   0  0  0  0  0  0  0  0  0  0  0  0
   -0.2549   -3.6553    8.2904 H   0  0  0  0  0  0  0  0  0  0  0  0
    0.4917   -2.1710    7.6174 H   0  0  0  0  0  0  0  0  0  0  0  0
   -0.8025   -3.2086    6.2607 C   0  0  0  0  0  0  0  0  0  0  0  0
   -1.3365   -2.0304    5.4144 C   0  0  0  0  0  0  0  0  0  0  0  0
   -2.3637   -1.7798    5.7165 H   0  0  0  0  0  0  0  0  0  0  0  0
   -1.1848    4.6316   13.8715 C   0  0  0  0  0  0  0  0  0  0  0  0
   -0.3887    3.8895   14.0332 H   0  0  0  0  0  0  0  0  0  0  0  0
   -0.8220    5.3620   13.1289 H   0  0  0  0  0  0  0  0  0  0  0  0
   -0.4008    5.9870   15.6234 C   0  0  0  0  0  0  0  0  0  0  0  0
   -0.0932    6.8221   14.9768 H   0  0  0  0  0  0  0  0  0  0  0  0
    0.4621    5.3265   15.7944 H   0  0  0  0  0  0  0  0  0  0  0  0
   -0.8398    6.5539   16.9740 C   0  0  0  0  0  0  0  0  0  0  0  0
   -1.5437    5.4821   17.8372 C   0  0  0  0  0  0  0  0  0  0  0  0
   -2.5598    5.2966   17.4599 H   0  0  0  0  0  0  0  0  0  0  0  0
  1 15  1  0  0  0  0
  1  2  1  0  0  0  0
  3  1  1  0  0  0  0
  5 38  1  0  0  0  0
  6 39  1  0  0  0  0
  8 47  1  0  0  0  0
 10 48  1  0  0  0  0
 12 32  1  0  0  0  0
 13 44  1  0  0  0  0
 14 16  1  0  0  0  0
 14  1  1  0  0  0  0
 15 30  1  0  0  0  0
 16 24  2  0  0  0  0
 17 18  1  0  0  0  0
 17 16  1  0  0  0  0
 19 17  2  0  0  0  0
 20 19  1  0  0  0  0
 20 22  2  0  0  0  0
 21 20  1  0  0  0  0
 22 14  1  0  0  0  0
 23 22  1  0  0  0  0
 24 15  1  0  0  0  0
 24 25  1  0  0  0  0
 25 27  2  0  0  0  0
 26 25  1  0  0  0  0
 27 28  1  0  0  0  0
 27 41  1  0  0  0  0
 28 29  1  0  0  0  0
 30 31  1  0  0  0  0
 30 28  2  0  0  0  0
 32 19  1  0  0  0  0
 32 34  1  0  0  0  0
 33 32  1  0  0  0  0
 35 12  1  0  0  0  0
 35 36  1  0  0  0  0
 37 35  1  0  0  0  0
 38  4  1  0  0  0  0
 38 35  1  0  0  0  0
 39  7  1  0  0  0  0
 39 40  1  0  0  0  0
 39 38  1  0  0  0  0
 41 42  1  0  0  0  0
 41 13  1  0  0  0  0
 43 41  1  0  0  0  0
 44 46  1  0  0  0  0
 44 47  1  0  0  0  0
 45 44  1  0  0  0  0
 47  9  1  0  0  0  0
 47 48  1  0  0  0  0
 48 11  1  0  0  0  0
 49 48  1  0  0  0  0
M  END
$$$$
