CSD_code = XOGQIU | q = 0 | S = 0 | Stoichiometry = C20H36Cl2N4Ti | MND = 6
 OpenBabel04212202123D

 63 66  0  0  1  0  0  0  0  0999 V2000
    7.4030   10.1114    7.2793 Ti  0  0  0  0  0  0  0  0  0  0  0  0
    5.1917   10.1163    8.3654 N   0  0  0  0  0  4  0  0  0  0  0  0
    7.6128   11.4650    9.0466 N   0  0  1  0  0  4  0  0  0  0  0  0
    7.8836    8.8562    9.1119 N   0  0  1  0  0  4  0  0  0  0  0  0
    8.9912   10.3559    6.7015 N   0  0  0  0  0  2  0  0  0  0  0  0
    5.7139    9.9964    9.7407 C   0  0  2  0  0  0  0  0  0  0  0  0
    6.5638   11.2497   10.0510 C   0  0  0  0  0  0  0  0  0  0  0  0
    8.9075   11.0616    9.5901 C   0  0  0  0  0  0  0  0  0  0  0  0
    8.8914    9.5609    9.9133 C   0  0  0  0  0  0  0  0  0  0  0  0
    6.6228    8.7533    9.8511 C   0  0  0  0  0  0  0  0  0  0  0  0
    4.6224    9.8727   10.8232 C   0  0  0  0  0  0  0  0  0  0  0  0
    4.4062    8.9675    7.9074 C   0  0  0  0  0  0  0  0  0  0  0  0
    4.3096   11.2730    8.1807 C   0  0  0  0  0  0  0  0  0  0  0  0
    7.6779   12.8622    8.6200 C   0  0  0  0  0  0  0  0  0  0  0  0
    8.3645    7.5087    8.7874 C   0  0  0  0  0  0  0  0  0  0  0  0
    9.8565   10.9343    5.8620 C   0  0  0  0  0  0  0  0  0  0  0  0
   11.0641   10.3379    5.3801 C   0  0  0  0  0  0  0  0  0  0  0  0
   11.8690   11.0718    4.5269 C   0  0  0  0  0  0  0  0  0  0  0  0
   11.5613   12.3615    4.1239 C   0  0  0  0  0  0  0  0  0  0  0  0
   10.3955   12.9499    4.5815 C   0  0  0  0  0  0  0  0  0  0  0  0
    9.5696   12.2551    5.4323 C   0  0  0  0  0  0  0  0  0  0  0  0
   11.4520    8.9265    5.8014 C   0  0  0  0  0  0  0  0  0  0  0  0
   12.7673    8.4362    5.1866 C   0  0  0  0  0  0  0  0  0  0  0  0
   11.6127    8.9163    7.3274 C   0  0  0  0  0  0  0  0  0  0  0  0
   10.3435    7.9556    5.3784 C   0  0  0  0  0  0  0  0  0  0  0  0
    6.8275    8.2622    6.1279 Cl  0  0  0  0  0  0  0  0  0  0  0  0
    6.3375   11.5076    5.8945 Cl  0  0  0  0  0  0  0  0  0  0  0  0
    7.0061   11.1334   11.0505 H   0  0  0  0  0  0  0  0  0  0  0  0
    5.9138   12.1258   10.1057 H   0  0  0  0  0  0  0  0  0  0  0  0
    9.1548   11.6456   10.4944 H   0  0  0  0  0  0  0  0  0  0  0  0
    9.6615   11.2612    8.8226 H   0  0  0  0  0  0  0  0  0  0  0  0
    8.7044    9.3973   10.9873 H   0  0  0  0  0  0  0  0  0  0  0  0
    9.8782    9.1477    9.6964 H   0  0  0  0  0  0  0  0  0  0  0  0
    6.8278    8.5718   10.9207 H   0  0  0  0  0  0  0  0  0  0  0  0
    6.0779    7.8808    9.4887 H   0  0  0  0  0  0  0  0  0  0  0  0
    5.0770    9.8407   11.8109 H   0  0  0  0  0  0  0  0  0  0  0  0
    3.9459   10.7223   10.7961 H   0  0  0  0  0  0  0  0  0  0  0  0
    4.0457    8.9613   10.6887 H   0  0  0  0  0  0  0  0  0  0  0  0
    4.1316    9.1494    6.8681 H   0  0  0  0  0  0  0  0  0  0  0  0
    3.4819    8.8432    8.4892 H   0  0  0  0  0  0  0  0  0  0  0  0
    4.9706    8.0393    7.9165 H   0  0  0  0  0  0  0  0  0  0  0  0
    4.0979   11.3693    7.1171 H   0  0  0  0  0  0  0  0  0  0  0  0
    4.7711   12.2047    8.4919 H   0  0  0  0  0  0  0  0  0  0  0  0
    3.3574   11.1483    8.7139 H   0  0  0  0  0  0  0  0  0  0  0  0
    8.5258   12.9850    7.9446 H   0  0  0  0  0  0  0  0  0  0  0  0
    7.8047   13.5372    9.4793 H   0  0  0  0  0  0  0  0  0  0  0  0
    6.7756   13.1268    8.0673 H   0  0  0  0  0  0  0  0  0  0  0  0
    7.6344    7.0002    8.1572 H   0  0  0  0  0  0  0  0  0  0  0  0
    8.5425    6.9229    9.7004 H   0  0  0  0  0  0  0  0  0  0  0  0
    9.2863    7.5837    8.2133 H   0  0  0  0  0  0  0  0  0  0  0  0
   12.7801   10.6369    4.1474 H   0  0  0  0  0  0  0  0  0  0  0  0
   12.2239   12.8926    3.4564 H   0  0  0  0  0  0  0  0  0  0  0  0
   10.1292   13.9519    4.2735 H   0  0  0  0  0  0  0  0  0  0  0  0
    8.6429   12.7037    5.7688 H   0  0  0  0  0  0  0  0  0  0  0  0
   12.9685    7.4257    5.5393 H   0  0  0  0  0  0  0  0  0  0  0  0
   13.6038    9.0669    5.4803 H   0  0  0  0  0  0  0  0  0  0  0  0
   12.7065    8.4059    4.1017 H   0  0  0  0  0  0  0  0  0  0  0  0
   11.8097    7.9080    7.6905 H   0  0  0  0  0  0  0  0  0  0  0  0
   12.4393    9.5603    7.6236 H   0  0  0  0  0  0  0  0  0  0  0  0
   10.6947    9.2970    7.7695 H   0  0  0  0  0  0  0  0  0  0  0  0
   10.5596    6.9467    5.7281 H   0  0  0  0  0  0  0  0  0  0  0  0
    9.3832    8.2769    5.7824 H   0  0  0  0  0  0  0  0  0  0  0  0
   10.2652    7.9348    4.2936 H   0  0  0  0  0  0  0  0  0  0  0  0
  1  2  1  0  0  0  0
  1  3  1  0  0  0  0
  1  4  1  0  0  0  0
  2  6  1  0  0  0  0
  3 14  1  6  0  0  0
  3  8  1  0  0  0  0
  3  7  1  0  0  0  0
  4 15  1  6  0  0  0
  4 10  1  0  0  0  0
  4  9  1  0  0  0  0
  5  1  1  0  0  0  0
  6 10  1  0  0  0  0
  6  7  1  0  0  0  0
  6 11  1  1  0  0  0
  7 29  1  0  0  0  0
  7 28  1  0  0  0  0
  8  9  1  0  0  0  0
  8 30  1  0  0  0  0
  9 32  1  0  0  0  0
 10 34  1  0  0  0  0
 11 36  1  0  0  0  0
 12 41  1  0  0  0  0
 12  2  1  0  0  0  0
 12 40  1  0  0  0  0
 13  2  1  0  0  0  0
 13 43  1  0  0  0  0
 13 44  1  0  0  0  0
 14 46  1  0  0  0  0
 15 49  1  0  0  0  0
 16  5  1  0  0  0  0
 17 22  1  0  0  0  0
 17 16  2  0  0  0  0
 18 17  1  0  0  0  0
 19 18  2  0  0  0  0
 19 20  1  0  0  0  0
 20 21  2  0  0  0  0
 21 54  1  0  0  0  0
 21 16  1  0  0  0  0
 22 24  1  0  0  0  0
 23 56  1  0  0  0  0
 23 55  1  0  0  0  0
 23 22  1  0  0  0  0
 24 59  1  0  0  0  0
 24 58  1  0  0  0  0
 24 60  1  0  0  0  0
 25 61  1  0  0  0  0
 25 62  1  0  0  0  0
 25 22  1  0  0  0  0
 26  1  1  0  0  0  0
 27  1  1  0  0  0  0
 31  8  1  0  0  0  0
 33  9  1  0  0  0  0
 35 10  1  0  0  0  0
 37 11  1  0  0  0  0
 38 11  1  0  0  0  0
 39 12  1  0  0  0  0
 42 13  1  0  0  0  0
 45 14  1  0  0  0  0
 47 14  1  0  0  0  0
 48 15  1  0  0  0  0
 50 15  1  0  0  0  0
 51 18  1  0  0  0  0
 52 19  1  0  0  0  0
 53 20  1  0  0  0  0
 57 23  1  0  0  0  0
 63 25  1  0  0  0  0
M  END
$$$$
