CSD_code = XOGWOF | q = 0 | S = 0 | Stoichiometry = C30H26I2O3P2W | MND = 7
 OpenBabel04212202123D

 64 68  0  0  0  0  0  0  0  0999 V2000
    3.4565    4.2178    2.7088 W   0  0  0  0  0  0  0  0  0  0  0  0
    2.1274    3.5281    4.0257 C   0  0  0  0  0  0  0  0  0  0  0  0
    1.3860    3.2241    4.8912 O   0  0  0  0  0  0  0  0  0  0  0  0
    2.3341    2.5869    2.6803 C   0  0  0  0  0  0  0  0  0  0  0  0
    1.7880    1.5445    2.5224 O   0  0  0  0  0  0  0  0  0  0  0  0
    4.5023    2.5138    2.5659 C   0  0  0  0  0  2  0  0  0  0  0  0
    4.9805    1.4705    2.4816 O   0  0  0  0  0  1  0  0  0  0  0  0
    5.5315    5.5950    1.4325 I   0  0  0  0  0  0  0  0  0  0  0  0
    4.9284    4.5701    5.1121 I   0  0  0  0  0 15  0  0  0  0  0  0
    2.6281    4.2233    0.3510 P   0  0  0  0  0  4  0  0  0  0  0  0
    2.4659    5.7914   -0.6168 C   0  0  0  0  0  0  0  0  0  0  0  0
    3.4522    6.2204   -0.8098 H   0  0  0  0  0  0  0  0  0  0  0  0
    2.0086    5.5238   -1.5762 H   0  0  0  0  0  0  0  0  0  0  0  0
    1.5976    6.8082    0.1263 C   0  0  0  0  0  0  0  0  0  0  0  0
    1.2663    7.5669   -0.5878 H   0  0  0  0  0  0  0  0  0  0  0  0
    0.6961    6.3191    0.5185 H   0  0  0  0  0  0  0  0  0  0  0  0
    2.3553    7.5059    1.2586 C   0  0  0  0  0  0  0  0  0  0  0  0
    1.8751    8.4607    1.4922 H   0  0  0  0  0  0  0  0  0  0  0  0
    3.3781    7.7173    0.9363 H   0  0  0  0  0  0  0  0  0  0  0  0
    2.4014    6.5243    2.8340 P   0  0  0  0  0  4  0  0  0  0  0  0
    0.9974    3.5052   -0.0459 C   0  0  0  0  0  0  0  0  0  0  0  0
   -0.0322    3.5608    0.8830 C   0  0  0  0  0  0  0  0  0  0  0  0
    0.1524    3.9976    1.8558 H   0  0  0  0  0  0  0  0  0  0  0  0
   -1.2832    3.0573    0.5763 C   0  0  0  0  0  0  0  0  0  0  0  0
   -2.0749    3.1008    1.3092 H   0  0  0  0  0  0  0  0  0  0  0  0
   -1.5109    2.4917   -0.6663 C   0  0  0  0  0  0  0  0  0  0  0  0
   -2.4828    2.0873   -0.9053 H   0  0  0  0  0  0  0  0  0  0  0  0
   -0.4905    2.4419   -1.6032 C   0  0  0  0  0  0  0  0  0  0  0  0
   -0.6676    2.0019   -2.5733 H   0  0  0  0  0  0  0  0  0  0  0  0
    0.7581    2.9506   -1.3005 C   0  0  0  0  0  0  0  0  0  0  0  0
    1.5545    2.9071   -2.0314 H   0  0  0  0  0  0  0  0  0  0  0  0
    3.7234    3.1679   -0.6480 C   0  0  0  0  0  0  0  0  0  0  0  0
    4.6633    3.6555   -1.5491 C   0  0  0  0  0  0  0  0  0  0  0  0
    4.7532    4.7144   -1.7378 H   0  0  0  0  0  0  0  0  0  0  0  0
    5.5142    2.7770   -2.1981 C   0  0  0  0  0  0  0  0  0  0  0  0
    6.2472    3.1636   -2.8895 H   0  0  0  0  0  0  0  0  0  0  0  0
    5.4369    1.4172   -1.9531 C   0  0  0  0  0  0  0  0  0  0  0  0
    6.1104    0.7385   -2.4540 H   0  0  0  0  0  0  0  0  0  0  0  0
    4.4979    0.9257   -1.0590 C   0  0  0  0  0  0  0  0  0  0  0  0
    4.4345   -0.1339   -0.8630 H   0  0  0  0  0  0  0  0  0  0  0  0
    3.6463    1.7949   -0.4062 C   0  0  0  0  0  0  0  0  0  0  0  0
    2.9084    1.4089    0.2866 H   0  0  0  0  0  0  0  0  0  0  0  0
    3.3141    7.6331    3.9592 C   0  0  0  0  0  0  0  0  0  0  0  0
    3.0021    7.5301    5.3156 C   0  0  0  0  0  0  0  0  0  0  0  0
    2.2274    6.8443    5.6377 H   0  0  0  0  0  0  0  0  0  0  0  0
    3.6872    8.2848    6.2456 C   0  0  0  0  0  0  0  0  0  0  0  0
    3.4447    8.1929    7.2930 H   0  0  0  0  0  0  0  0  0  0  0  0
    4.6982    9.1383    5.8334 C   0  0  0  0  0  0  0  0  0  0  0  0
    5.2431    9.7192    6.5616 H   0  0  0  0  0  0  0  0  0  0  0  0
    5.0210    9.2318    4.4913 C   0  0  0  0  0  0  0  0  0  0  0  0
    5.8196    9.8818    4.1678 H   0  0  0  0  0  0  0  0  0  0  0  0
    4.3371    8.4806    3.5509 C   0  0  0  0  0  0  0  0  0  0  0  0
    4.6247    8.5521    2.5128 H   0  0  0  0  0  0  0  0  0  0  0  0
    0.7070    6.8878    3.4388 C   0  0  0  0  0  0  0  0  0  0  0  0
    0.3353    8.2208    3.6159 C   0  0  0  0  0  0  0  0  0  0  0  0
    1.0479    9.0112    3.4231 H   0  0  0  0  0  0  0  0  0  0  0  0
   -0.9285    8.5411    4.0692 C   0  0  0  0  0  0  0  0  0  0  0  0
   -1.2016    9.5771    4.2039 H   0  0  0  0  0  0  0  0  0  0  0  0
   -1.8403    7.5380    4.3613 C   0  0  0  0  0  0  0  0  0  0  0  0
   -2.8274    7.7905    4.7176 H   0  0  0  0  0  0  0  0  0  0  0  0
   -1.4731    6.2135    4.2127 C   0  0  0  0  0  0  0  0  0  0  0  0
   -2.1670    5.4241    4.4598 H   0  0  0  0  0  0  0  0  0  0  0  0
   -0.2051    5.8918    3.7574 C   0  0  0  0  0  0  0  0  0  0  0  0
    0.0712    4.8513    3.6803 H   0  0  0  0  0  0  0  0  0  0  0  0
  1 20  1  0  0  0  0
  1  2  1  0  0  0  0
  2  3  2  0  0  0  0
  4  1  1  0  0  0  0
  4  2  1  0  0  0  0
  5  4  2  0  0  0  0
  6  1  1  0  0  0  0
  7  6  1  0  0  0  0
  8  1  1  0  0  0  0
 10  1  1  0  0  0  0
 11 14  1  0  0  0  0
 11 10  1  0  0  0  0
 12 11  1  0  0  0  0
 13 11  1  0  0  0  0
 14 16  1  0  0  0  0
 14 17  1  0  0  0  0
 15 14  1  0  0  0  0
 17 18  1  0  0  0  0
 17 20  1  0  0  0  0
 19 17  1  0  0  0  0
 20 54  1  0  0  0  0
 20 43  1  0  0  0  0
 21 10  1  0  0  0  0
 21 22  1  0  0  0  0
 22 23  1  0  0  0  0
 24 22  2  0  0  0  0
 24 25  1  0  0  0  0
 26 24  1  0  0  0  0
 27 26  1  0  0  0  0
 28 30  1  0  0  0  0
 28 26  2  0  0  0  0
 29 28  1  0  0  0  0
 30 21  2  0  0  0  0
 31 30  1  0  0  0  0
 32 41  1  0  0  0  0
 32 10  1  0  0  0  0
 33 32  2  0  0  0  0
 34 33  1  0  0  0  0
 35 37  2  0  0  0  0
 35 33  1  0  0  0  0
 36 35  1  0  0  0  0
 37 39  1  0  0  0  0
 38 37  1  0  0  0  0
 39 40  1  0  0  0  0
 39 41  2  0  0  0  0
 41 42  1  0  0  0  0
 43 44  1  0  0  0  0
 44 45  1  0  0  0  0
 44 46  2  0  0  0  0
 46 47  1  0  0  0  0
 48 46  1  0  0  0  0
 48 49  1  0  0  0  0
 50 48  2  0  0  0  0
 51 50  1  0  0  0  0
 52 43  2  0  0  0  0
 52 50  1  0  0  0  0
 53 52  1  0  0  0  0
 54 55  2  0  0  0  0
 54 63  1  0  0  0  0
 55 57  1  0  0  0  0
 56 55  1  0  0  0  0
 57 58  1  0  0  0  0
 57 59  2  0  0  0  0
 59 60  1  0  0  0  0
 61 59  1  0  0  0  0
 61 62  1  0  0  0  0
 63 61  2  0  0  0  0
 64 63  1  0  0  0  0
M  END
$$$$
