CSD_code = XOGWIZ | q = 0 | S = 0 | Stoichiometry = C29H24I2O3P2W | MND = 7
 OpenBabel04212202123D

 61 65  0  0  0  0  0  0  0  0999 V2000
    7.5156   11.5522    7.8769 W   0  0  0  0  0  0  0  0  0  0  0  0
    6.7813    8.9828    7.0124 I   0  0  0  0  0  0  0  0  0  0  0  0
    8.4104   12.0711    5.2638 I   0  0  0  0  0 15  0  0  0  0  0  0
    7.1545   10.4107   10.0287 P   0  0  0  0  0  4  0  0  0  0  0  0
    8.3627    9.0349   10.2882 C   0  0  0  0  0  0  0  0  0  0  0  0
    8.3000    8.6895   11.3271 H   0  0  0  0  0  0  0  0  0  0  0  0
    8.0996    8.2058    9.6244 H   0  0  0  0  0  0  0  0  0  0  0  0
    9.7573    9.5687    9.9719 C   0  0  0  0  0  0  0  0  0  0  0  0
   10.4848    8.7526    9.9191 H   0  0  0  0  0  0  0  0  0  0  0  0
   10.0655   10.2579   10.7670 H   0  0  0  0  0  0  0  0  0  0  0  0
    9.7828   10.5454    8.3796 P   0  0  0  0  0  4  0  0  0  0  0  0
    7.4973   11.4003   11.5211 C   0  0  0  0  0  0  0  0  0  0  0  0
    6.7768   11.2207   12.6974 C   0  0  0  0  0  0  0  0  0  0  0  0
    5.9790   10.4915   12.7340 H   0  0  0  0  0  0  0  0  0  0  0  0
    7.0737   11.9850   13.8113 C   0  0  0  0  0  0  0  0  0  0  0  0
    6.5032   11.8510   14.7182 H   0  0  0  0  0  0  0  0  0  0  0  0
    8.0925   12.9223   13.7632 C   0  0  0  0  0  0  0  0  0  0  0  0
    8.3146   13.5232   14.6318 H   0  0  0  0  0  0  0  0  0  0  0  0
    8.8237   13.0942   12.5989 C   0  0  0  0  0  0  0  0  0  0  0  0
    9.6182   13.8239   12.5552 H   0  0  0  0  0  0  0  0  0  0  0  0
    8.5260   12.3383   11.4807 C   0  0  0  0  0  0  0  0  0  0  0  0
    9.0955   12.4896   10.5672 H   0  0  0  0  0  0  0  0  0  0  0  0
    5.5114    9.7131   10.3343 C   0  0  0  0  0  0  0  0  0  0  0  0
    5.2605    8.3519   10.4669 C   0  0  0  0  0  0  0  0  0  0  0  0
    6.0681    7.6361   10.4435 H   0  0  0  0  0  0  0  0  0  0  0  0
    3.9581    7.9073   10.6131 C   0  0  0  0  0  0  0  0  0  0  0  0
    3.7657    6.8496   10.7086 H   0  0  0  0  0  0  0  0  0  0  0  0
    2.9075    8.8088   10.6226 C   0  0  0  0  0  0  0  0  0  0  0  0
    1.8935    8.4540   10.7269 H   0  0  0  0  0  0  0  0  0  0  0  0
    3.1542   10.1666   10.4891 C   0  0  0  0  0  0  0  0  0  0  0  0
    2.3367   10.8714   10.4909 H   0  0  0  0  0  0  0  0  0  0  0  0
    4.4503   10.6199   10.3400 C   0  0  0  0  0  0  0  0  0  0  0  0
    4.6448   11.6804   10.2366 H   0  0  0  0  0  0  0  0  0  0  0  0
   11.2201   11.6399    8.6414 C   0  0  0  0  0  0  0  0  0  0  0  0
   11.2912   12.8384    7.9364 C   0  0  0  0  0  0  0  0  0  0  0  0
   10.4978   13.1258    7.2606 H   0  0  0  0  0  0  0  0  0  0  0  0
   12.3842   13.6732    8.0851 C   0  0  0  0  0  0  0  0  0  0  0  0
   12.4235   14.6009    7.5354 H   0  0  0  0  0  0  0  0  0  0  0  0
   13.4176   13.3174    8.9343 C   0  0  0  0  0  0  0  0  0  0  0  0
   14.2687   13.9703    9.0559 H   0  0  0  0  0  0  0  0  0  0  0  0
   13.3639   12.1146    9.6201 C   0  0  0  0  0  0  0  0  0  0  0  0
   14.1760   11.8252   10.2706 H   0  0  0  0  0  0  0  0  0  0  0  0
   12.2761   11.2743    9.4727 C   0  0  0  0  0  0  0  0  0  0  0  0
   12.2606   10.3319   10.0000 H   0  0  0  0  0  0  0  0  0  0  0  0
   10.5107    9.3708    7.1869 C   0  0  0  0  0  0  0  0  0  0  0  0
   11.2611    9.8789    6.1288 C   0  0  0  0  0  0  0  0  0  0  0  0
   11.4488   10.9406    6.0538 H   0  0  0  0  0  0  0  0  0  0  0  0
   11.7603    9.0258    5.1633 C   0  0  0  0  0  0  0  0  0  0  0  0
   12.3314    9.4302    4.3421 H   0  0  0  0  0  0  0  0  0  0  0  0
   11.5141    7.6652    5.2419 C   0  0  0  0  0  0  0  0  0  0  0  0
   11.8955    7.0018    4.4810 H   0  0  0  0  0  0  0  0  0  0  0  0
   10.7675    7.1572    6.2912 C   0  0  0  0  0  0  0  0  0  0  0  0
   10.5616    6.0994    6.3513 H   0  0  0  0  0  0  0  0  0  0  0  0
   10.2615    8.0035    7.2601 C   0  0  0  0  0  0  0  0  0  0  0  0
    9.6604    7.5882    8.0558 H   0  0  0  0  0  0  0  0  0  0  0  0
    8.1791   13.3632    8.3718 C   0  0  0  0  0  0  0  0  0  0  0  0
    8.6633   14.3992    8.6606 O   0  0  0  0  0  0  0  0  0  0  0  0
    5.6914   12.1852    7.3291 C   0  0  0  0  0  2  0  0  0  0  0  0
    4.6230   12.5736    7.1345 O   0  0  0  0  0  1  0  0  0  0  0  0
    6.6692   12.9420    9.0063 C   0  0  0  0  0  0  0  0  0  0  0  0
    6.0302   13.6620    9.6982 O   0  0  0  0  0  0  0  0  0  0  0  0
  1 56  1  0  0  0  0
  1 11  1  0  0  0  0
  1 60  1  0  0  0  0
  1  4  1  0  0  0  0
  2  1  1  0  0  0  0
  4  5  1  0  0  0  0
  4 23  1  0  0  0  0
  4 12  1  0  0  0  0
  5  6  1  0  0  0  0
  7  5  1  0  0  0  0
  8  5  1  0  0  0  0
  8 10  1  0  0  0  0
  9  8  1  0  0  0  0
 11 34  1  0  0  0  0
 11  8  1  0  0  0  0
 12 13  1  0  0  0  0
 13 14  1  0  0  0  0
 13 15  2  0  0  0  0
 15 16  1  0  0  0  0
 17 15  1  0  0  0  0
 17 18  1  0  0  0  0
 19 17  2  0  0  0  0
 20 19  1  0  0  0  0
 21 12  2  0  0  0  0
 21 19  1  0  0  0  0
 22 21  1  0  0  0  0
 23 32  2  0  0  0  0
 23 24  1  0  0  0  0
 24 26  2  0  0  0  0
 25 24  1  0  0  0  0
 26 28  1  0  0  0  0
 26 27  1  0  0  0  0
 28 29  1  0  0  0  0
 30 31  1  0  0  0  0
 30 28  2  0  0  0  0
 32 30  1  0  0  0  0
 33 32  1  0  0  0  0
 34 43  1  0  0  0  0
 35 37  1  0  0  0  0
 35 34  2  0  0  0  0
 36 35  1  0  0  0  0
 37 39  2  0  0  0  0
 38 37  1  0  0  0  0
 39 40  1  0  0  0  0
 39 41  1  0  0  0  0
 41 42  1  0  0  0  0
 43 41  2  0  0  0  0
 43 44  1  0  0  0  0
 45 54  1  0  0  0  0
 45 11  1  0  0  0  0
 46 45  2  0  0  0  0
 47 46  1  0  0  0  0
 48 50  2  0  0  0  0
 48 46  1  0  0  0  0
 49 48  1  0  0  0  0
 50 52  1  0  0  0  0
 51 50  1  0  0  0  0
 52 53  1  0  0  0  0
 52 54  2  0  0  0  0
 54 55  1  0  0  0  0
 56 57  2  0  0  0  0
 56 60  1  0  0  0  0
 58  1  1  0  0  0  0
 59 58  1  0  0  0  0
 60 61  2  0  0  0  0
M  END
$$$$
