CSD_code = XOHMUD | q = 1 | S = 0 | Stoichiometry = C10H24Cl2CoN4(1+) | MND = 6
 OpenBabel04212202123D

 41 43  0  0  1  0  0  0  0  0999 V2000
   -2.7583   -1.0125   12.0026 Co  0  0  0  0  0  0  0  0  0  0  0  0
   -2.4895    1.1872   12.2668 Cl  0  0  0  0  0  0  0  0  0  0  0  0
   -2.9862   -3.2129   11.8986 Cl  0  0  0  0  0  0  0  0  0  0  0  0
   -4.1834   -0.9025   13.3998 N   0  0  0  0  0  4  0  0  0  0  0  0
   -4.1695   -1.6381   14.1061 H   0  0  0  0  0  0  0  0  0  0  0  0
   -4.0311   -0.0098   13.8762 H   0  0  0  0  0  0  0  0  0  0  0  0
   -4.2544   -0.8674   10.7308 N   0  0  1  0  0  4  0  0  0  0  0  0
   -4.5205   -1.8605   10.7230 H   0  0  0  0  0  0  0  0  0  0  0  0
   -1.3977   -1.0041   10.7045 N   0  0  1  0  0  0  0  0  0  0  0  0
   -1.3180   -1.2388   13.3392 N   0  0  0  0  0  4  0  0  0  0  0  0
   -1.1611   -0.3285   13.7812 H   0  0  0  0  0  0  0  0  0  0  0  0
   -1.5041   -1.9185   14.0771 H   0  0  0  0  0  0  0  0  0  0  0  0
   -5.5106   -0.8690   12.7628 C   0  0  0  0  0  0  0  0  0  0  0  0
   -6.2472   -0.3565   13.3878 H   0  0  0  0  0  0  0  0  0  0  0  0
   -5.8436   -1.8977   12.5992 H   0  0  0  0  0  0  0  0  0  0  0  0
   -5.3463   -0.1645   11.4223 C   0  0  0  0  0  0  0  0  0  0  0  0
   -6.2784   -0.2067   10.8538 H   0  0  0  0  0  0  0  0  0  0  0  0
   -5.0617    0.8778   11.5761 H   0  0  0  0  0  0  0  0  0  0  0  0
   -4.0478   -0.5215    9.3046 C   0  0  0  0  0  0  0  0  0  0  0  0
   -2.8525   -1.3635    8.8163 C   0  0  0  0  0  0  0  0  0  0  0  0
   -3.0517   -2.4155    9.0485 H   0  0  0  0  0  0  0  0  0  0  0  0
   -2.7838   -1.2713    7.7342 H   0  0  0  0  0  0  0  0  0  0  0  0
   -1.5286   -1.0330    9.4349 C   0  0  2  0  0  3  0  0  0  0  0  0
   -0.0892   -0.8327   11.3161 C   0  0  0  0  0  0  0  0  0  0  0  0
    0.0600    0.2313   11.5295 H   0  0  0  0  0  0  0  0  0  0  0  0
    0.7142   -1.1872   10.6690 H   0  0  0  0  0  0  0  0  0  0  0  0
   -0.1036   -1.6307   12.6146 C   0  0  0  0  0  0  0  0  0  0  0  0
   -0.1683   -2.6961   12.3811 H   0  0  0  0  0  0  0  0  0  0  0  0
    0.8030   -1.4453   13.1983 H   0  0  0  0  0  0  0  0  0  0  0  0
   -5.2740   -0.9429    8.4848 C   0  0  0  0  0  0  0  0  0  0  0  0
   -6.1408   -0.3335    8.7227 H   0  0  0  0  0  0  0  0  0  0  0  0
   -5.5207   -1.9891    8.6537 H   0  0  0  0  0  0  0  0  0  0  0  0
   -5.0716   -0.8113    7.4258 H   0  0  0  0  0  0  0  0  0  0  0  0
   -3.7733    0.9660    9.1109 C   0  0  0  0  0  0  0  0  0  0  0  0
   -4.6664    1.5544    9.2998 H   0  0  0  0  0  0  0  0  0  0  0  0
   -3.4627    1.1520    8.0868 H   0  0  0  0  0  0  0  0  0  0  0  0
   -2.9873    1.3080    9.7768 H   0  0  0  0  0  0  0  0  0  0  0  0
   -0.3829   -0.8129    8.5014 C   0  0  0  0  0  0  0  0  0  0  0  0
    0.1729    0.0810    8.7791 H   0  0  0  0  0  0  0  0  0  0  0  0
   -0.7265   -0.7043    7.4782 H   0  0  0  0  0  0  0  0  0  0  0  0
    0.3038   -1.6595    8.5353 H   0  0  0  0  0  0  0  0  0  0  0  0
  1  2  1  0  0  0  0
  1 10  1  0  0  0  0
  1  4  1  0  0  0  0
  3  1  1  0  0  0  0
  4  6  1  0  0  0  0
  4  5  1  0  0  0  0
  7  8  1  6  0  0  0
  7 16  1  0  0  0  0
  7  1  1  0  0  0  0
  9 24  1  6  0  0  0
  9  1  1  0  0  0  0
 10 11  1  0  0  0  0
 10 12  1  0  0  0  0
 13 14  1  0  0  0  0
 13  4  1  0  0  0  0
 15 13  1  0  0  0  0
 16 18  1  0  0  0  0
 16 13  1  0  0  0  0
 17 16  1  0  0  0  0
 19  7  1  0  0  0  0
 20 21  1  0  0  0  0
 20 19  1  0  0  0  0
 20 23  1  0  0  0  0
 22 20  1  0  0  0  0
 23 38  1  6  0  0  0
 23  9  1  0  0  0  0
 24 25  1  0  0  0  0
 24 27  1  0  0  0  0
 26 24  1  0  0  0  0
 27 29  1  0  0  0  0
 27 10  1  0  0  0  0
 28 27  1  0  0  0  0
 30 32  1  0  0  0  0
 30 31  1  0  0  0  0
 30 19  1  0  0  0  0
 33 30  1  0  0  0  0
 34 35  1  0  0  0  0
 34 19  1  0  0  0  0
 34 37  1  0  0  0  0
 36 34  1  0  0  0  0
 38 41  1  0  0  0  0
 38 39  1  0  0  0  0
 40 38  1  0  0  0  0
M  END
$$$$
