CSD_code = XOKFIN | q = 0 | S = 0 | Stoichiometry = C18H12ClN3O3PTc | MND = 6
 OpenBabel04212202123D

 39 42  0  0  1  0  0  0  0  0999 V2000
  -16.1480   -2.6899   -3.7484 Tc  0  0  0  0  0  0  0  0  0  0  0  0
  -14.2434   -2.8786   -5.1294 Cl  0  0  0  0  0  0  0  0  0  0  0  0
  -17.7604   -2.5419   -2.7029 C   0  0  0  0  0  2  0  0  0  0  0  0
  -18.6408   -2.4587   -1.9620 O   0  0  0  0  0  1  0  0  0  0  0  0
  -15.5284   -4.0547   -2.5370 C   0  0  0  0  0  2  0  0  0  0  0  0
  -15.1590   -4.8807   -1.8295 O   0  0  0  0  0  1  0  0  0  0  0  0
  -15.3392   -1.3487   -2.6255 C   0  0  0  0  0  2  0  0  0  0  0  0
  -14.8555   -0.5398   -1.9690 O   0  0  0  0  0  1  0  0  0  0  0  0
  -19.1620   -2.5200   -5.1722 P   0  0  2  0  0  0  0  0  0  0  0  0
  -17.9894   -1.2402   -5.7764 C   0  0  2  0  0  3  0  0  0  0  0  0
  -16.7734   -1.2379   -5.2203 N   0  0  0  0  0  0  0  0  0  0  0  0
  -15.9078   -0.3023   -5.6047 C   0  0  0  0  0  0  0  0  0  0  0  0
  -14.9227   -0.3481   -5.1623 H   0  0  0  0  0  0  0  0  0  0  0  0
  -16.2133    0.6837   -6.5243 C   0  0  0  0  0  0  0  0  0  0  0  0
  -15.4680    1.4126   -6.7988 H   0  0  0  0  0  0  0  0  0  0  0  0
  -17.4914    0.7213   -7.0579 C   0  0  0  0  0  0  0  0  0  0  0  0
  -17.7829    1.4924   -7.7551 H   0  0  0  0  0  0  0  0  0  0  0  0
  -18.3923   -0.2542   -6.6722 C   0  0  0  0  0  0  0  0  0  0  0  0
  -19.3978   -0.2502   -7.0608 H   0  0  0  0  0  0  0  0  0  0  0  0
  -18.2004   -4.0078   -5.6612 C   0  0  1  0  0  3  0  0  0  0  0  0
  -16.9861   -4.1381   -5.1172 N   0  0  0  0  0  0  0  0  0  0  0  0
  -16.2708   -5.2172   -5.4270 C   0  0  0  0  0  0  0  0  0  0  0  0
  -15.2781   -5.2733   -5.0027 H   0  0  0  0  0  0  0  0  0  0  0  0
  -16.7356   -6.2262   -6.2499 C   0  0  0  0  0  0  0  0  0  0  0  0
  -16.1083   -7.0758   -6.4660 H   0  0  0  0  0  0  0  0  0  0  0  0
  -18.0194   -6.1275   -6.7617 C   0  0  0  0  0  0  0  0  0  0  0  0
  -18.4355   -6.9085   -7.3802 H   0  0  0  0  0  0  0  0  0  0  0  0
  -18.7614   -5.0008   -6.4589 C   0  0  0  0  0  0  0  0  0  0  0  0
  -19.7662   -4.8934   -6.8346 H   0  0  0  0  0  0  0  0  0  0  0  0
  -20.3692   -2.4886   -6.5660 C   0  0  0  0  0  0  0  0  0  0  0  0
  -19.8717   -2.5853   -7.7939 N   0  0  0  0  0  0  0  0  0  0  0  0
  -20.7048   -2.5671   -8.8146 C   0  0  0  0  0  0  0  0  0  0  0  0
  -20.2481   -2.6485   -9.7926 H   0  0  0  0  0  0  0  0  0  0  0  0
  -22.0823   -2.4515   -8.6687 C   0  0  0  0  0  0  0  0  0  0  0  0
  -22.7248   -2.4412   -9.5350 H   0  0  0  0  0  0  0  0  0  0  0  0
  -22.6024   -2.3507   -7.3888 C   0  0  0  0  0  0  0  0  0  0  0  0
  -23.6673   -2.2596   -7.2312 H   0  0  0  0  0  0  0  0  0  0  0  0
  -21.7292   -2.3694   -6.3111 C   0  0  0  0  0  0  0  0  0  0  0  0
  -22.0797   -2.2942   -5.2923 H   0  0  0  0  0  0  0  0  0  0  0  0
  1  3  1  0  0  0  0
  1  7  1  0  0  0  0
  1  5  1  0  0  0  0
  2  1  1  0  0  0  0
  3  4  1  0  0  0  0
  5  6  1  0  0  0  0
  7  8  1  0  0  0  0
  9 30  1  6  0  0  0
 10 18  1  1  0  0  0
 10 11  1  0  0  0  0
 10  9  1  0  0  0  0
 11  1  1  0  0  0  0
 12 11  1  0  0  0  0
 12 13  1  0  0  0  0
 14 12  2  0  0  0  0
 15 14  1  0  0  0  0
 16 18  2  0  0  0  0
 16 14  1  0  0  0  0
 17 16  1  0  0  0  0
 19 18  1  0  0  0  0
 20 28  1  1  0  0  0
 20  9  1  0  0  0  0
 20 21  1  0  0  0  0
 21  1  1  0  0  0  0
 22 21  1  0  0  0  0
 22 23  1  0  0  0  0
 24 22  2  0  0  0  0
 25 24  1  0  0  0  0
 26 28  2  0  0  0  0
 26 24  1  0  0  0  0
 27 26  1  0  0  0  0
 29 28  1  0  0  0  0
 30 38  1  0  0  0  0
 31 30  2  0  0  0  0
 32 34  2  0  0  0  0
 32 31  1  0  0  0  0
 33 32  1  0  0  0  0
 34 36  1  0  0  0  0
 35 34  1  0  0  0  0
 36 37  1  0  0  0  0
 36 38  2  0  0  0  0
 38 39  1  0  0  0  0
M  END
$$$$
