CSD_code = XOKMUG | q = 0 | S = 0 | Stoichiometry = C10H10ClN2O4V | MND = 5
 OpenBabel04212202123D

 28 29  0  0  0  0  0  0  0  0999 V2000
    0.7051    5.2172    3.4781 V   0  0  0  0  0  0  0  0  0  0  0  0
    2.6221    5.6509    2.6527 Cl  0  0  0  0  0  0  0  0  0  0  0  0
    0.1314    4.7525    1.6417 O   0  0  0  0  0  0  0  0  0  0  0  0
    1.5378    6.0148    5.2442 O   0  0  0  0  0  0  0  0  0  0  0  0
   -0.4976    6.1453    3.7011 O   0  0  0  0  0  1  0  0  0  0  0  0
    0.5143    3.8430    4.1432 O   0  0  0  0  0  1  0  0  0  0  0  0
    0.8986    4.0112    0.9274 N   0  0  0  0  0  0  0  0  0  0  0  0
    0.5649    6.0947    6.0784 N   0  0  0  0  0  0  0  0  0  0  0  0
    1.0625    4.3245   -0.3701 C   0  0  0  0  0  3  0  0  0  0  0  0
    0.5312    5.2044   -0.7039 H   0  0  0  0  0  0  0  0  0  0  0  0
    1.8761    3.5761   -1.1894 C   0  0  0  0  0  0  0  0  0  0  0  0
    1.9949    3.8655   -2.2213 H   0  0  0  0  0  0  0  0  0  0  0  0
    2.5383    2.4716   -0.6741 C   0  0  0  0  0  0  0  0  0  0  0  0
    3.1900    1.8784   -1.2947 H   0  0  0  0  0  0  0  0  0  0  0  0
    2.3442    2.1565    0.6624 C   0  0  0  0  0  0  0  0  0  0  0  0
    2.8365    1.3074    1.1090 H   0  0  0  0  0  0  0  0  0  0  0  0
    1.5230    2.9404    1.4430 C   0  0  0  0  0  0  0  0  0  0  0  0
    1.3410    2.7552    2.4976 H   0  0  0  0  0  0  0  0  0  0  0  0
   -0.0999    7.2535    6.2125 C   0  0  0  0  0  3  0  0  0  0  0  0
    0.2291    8.0559    5.5663 H   0  0  0  0  0  0  0  0  0  0  0  0
   -1.1535    7.3700    7.0914 C   0  0  0  0  0  0  0  0  0  0  0  0
   -1.6765    8.3100    7.1665 H   0  0  0  0  0  0  0  0  0  0  0  0
   -1.5331    6.2782    7.8577 C   0  0  0  0  0  0  0  0  0  0  0  0
   -2.3623    6.3457    8.5433 H   0  0  0  0  0  0  0  0  0  0  0  0
   -0.8281    5.0930    7.7081 C   0  0  0  0  0  0  0  0  0  0  0  0
   -1.0923    4.2147    8.2757 H   0  0  0  0  0  0  0  0  0  0  0  0
    0.2169    5.0273    6.8136 C   0  0  0  0  0  0  0  0  0  0  0  0
    0.7801    4.1248    6.6147 H   0  0  0  0  0  0  0  0  0  0  0  0
  1  5  1  0  0  0  0
  1  6  1  0  0  0  0
  1  4  1  0  0  0  0
  2  1  1  0  0  0  0
  3  1  1  0  0  0  0
  4  8  1  0  0  0  0
  7 17  1  0  0  0  0
  7  3  1  0  0  0  0
  8 19  1  0  0  0  0
  8 27  1  0  0  0  0
  9  7  1  0  0  0  0
 10  9  1  0  0  0  0
 11 13  2  0  0  0  0
 11  9  1  0  0  0  0
 12 11  1  0  0  0  0
 13 15  1  0  0  0  0
 14 13  1  0  0  0  0
 15 16  1  0  0  0  0
 15 17  2  0  0  0  0
 17 18  1  0  0  0  0
 19 21  1  0  0  0  0
 20 19  1  0  0  0  0
 21 22  1  0  0  0  0
 21 23  2  0  0  0  0
 23 24  1  0  0  0  0
 25 23  1  0  0  0  0
 25 26  1  0  0  0  0
 27 25  2  0  0  0  0
 28 27  1  0  0  0  0
M  END
$$$$
