CSD_code = XOKNUG | q = 0 | S = 0 | Stoichiometry = C22H32Cl2N4Pd | MND = 4
 OpenBabel04212202123D

 61 64  0  0  1  0  0  0  0  0999 V2000
   19.5060   -1.5043    5.4575 Pd  0  0  0  0  0  0  0  0  0  0  0  0
   18.7278   -3.0425    6.8882 Cl  0  0  0  0  0  0  0  0  0  0  0  0
   20.2799   -3.0508    4.0329 Cl  0  0  0  0  0  0  0  0  0  0  0  0
   20.1173    0.0672    4.3198 N   0  0  0  0  0  0  0  0  0  0  0  0
   19.1757    0.7069    3.6209 C   0  0  2  0  0  3  0  0  0  0  0  0
   19.3146    2.0462    3.2846 C   0  0  0  0  0  0  0  0  0  0  0  0
   20.4441    2.7343    3.6954 C   0  0  0  0  0  0  0  0  0  0  0  0
   21.4052    2.0580    4.4282 C   0  0  0  0  0  0  0  0  0  0  0  0
   21.2084    0.7185    4.7325 C   0  0  0  0  0  0  0  0  0  0  0  0
   17.9355   -0.0604    3.2288 C   0  0  0  0  0  0  0  0  0  0  0  0
   16.7728    0.4394    3.9569 N   0  0  0  0  0  0  0  0  0  0  0  0
   15.4786    0.2915    3.2626 C   0  0  0  0  0  0  0  0  0  0  0  0
   14.4067    1.0635    4.0491 C   0  0  0  0  0  0  0  0  0  0  0  0
   15.5705    0.9494    1.8767 C   0  0  0  0  0  0  0  0  0  0  0  0
   15.0572   -1.1755    3.1075 C   0  0  0  0  0  0  0  0  0  0  0  0
   16.7902   -0.0442    5.3347 C   0  0  0  0  0  0  0  0  0  0  0  0
   17.7970    0.7237    6.1571 C   0  0  2  0  0  3  0  0  0  0  0  0
   17.6034    2.0686    6.4398 C   0  0  0  0  0  0  0  0  0  0  0  0
   18.5677    2.7551    7.1587 C   0  0  0  0  0  0  0  0  0  0  0  0
   19.6960    2.0712    7.5797 C   0  0  0  0  0  0  0  0  0  0  0  0
   19.8300    0.7257    7.2674 C   0  0  0  0  0  0  0  0  0  0  0  0
   18.8868    0.0768    6.5795 N   0  0  0  0  0  0  0  0  0  0  0  0
   21.0686   -0.0383    7.6701 C   0  0  0  0  0  0  0  0  0  0  0  0
   22.2309    0.4565    6.9388 N   0  0  0  0  0  0  0  0  0  0  0  0
   23.5283    0.3178    7.6289 C   0  0  0  0  0  0  0  0  0  0  0  0
   24.5789    1.1336    6.8579 C   0  0  0  0  0  0  0  0  0  0  0  0
   23.4308    0.9369    9.0319 C   0  0  0  0  0  0  0  0  0  0  0  0
   23.9787   -1.1440    7.7471 C   0  0  0  0  0  0  0  0  0  0  0  0
   22.2145   -0.0394    5.5652 C   0  0  0  0  0  0  0  0  0  0  0  0
   18.5349    2.5344    2.7230 H   0  0  0  0  0  0  0  0  0  0  0  0
   20.5722    3.7776    3.4506 H   0  0  0  0  0  0  0  0  0  0  0  0
   22.2947    2.5551    4.7794 H   0  0  0  0  0  0  0  0  0  0  0  0
   18.1135   -1.1484    3.4111 H   0  0  0  0  0  0  0  0  0  0  0  0
   17.7849    0.0872    2.1612 H   0  0  0  0  0  0  0  0  0  0  0  0
   13.5262    1.2022    3.4279 H   0  0  0  0  0  0  0  0  0  0  0  0
   14.0847    0.5352    4.9422 H   0  0  0  0  0  0  0  0  0  0  0  0
   14.7866    2.0422    4.3310 H   0  0  0  0  0  0  0  0  0  0  0  0
   14.5702    1.1183    1.4872 H   0  0  0  0  0  0  0  0  0  0  0  0
   16.0754    1.9093    1.9496 H   0  0  0  0  0  0  0  0  0  0  0  0
   16.0898    0.3237    1.1559 H   0  0  0  0  0  0  0  0  0  0  0  0
   14.1136   -1.2346    2.5712 H   0  0  0  0  0  0  0  0  0  0  0  0
   15.8039   -1.7347    2.5486 H   0  0  0  0  0  0  0  0  0  0  0  0
   14.9289   -1.6494    4.0776 H   0  0  0  0  0  0  0  0  0  0  0  0
   17.0332   -1.1331    5.3965 H   0  0  0  0  0  0  0  0  0  0  0  0
   15.8122    0.1137    5.7852 H   0  0  0  0  0  0  0  0  0  0  0  0
   16.7146    2.5619    6.0816 H   0  0  0  0  0  0  0  0  0  0  0  0
   18.4435    3.8031    7.3847 H   0  0  0  0  0  0  0  0  0  0  0  0
   20.4790    2.5675    8.1295 H   0  0  0  0  0  0  0  0  0  0  0  0
   20.8908   -1.1279    7.4972 H   0  0  0  0  0  0  0  0  0  0  0  0
   21.2162    0.1193    8.7365 H   0  0  0  0  0  0  0  0  0  0  0  0
   25.4648    1.2652    7.4730 H   0  0  0  0  0  0  0  0  0  0  0  0
   24.8976    0.6443    5.9419 H   0  0  0  0  0  0  0  0  0  0  0  0
   24.1786    2.1149    6.6156 H   0  0  0  0  0  0  0  0  0  0  0  0
   24.9142   -1.2002    8.2976 H   0  0  0  0  0  0  0  0  0  0  0  0
   23.2339   -1.7338    8.2767 H   0  0  0  0  0  0  0  0  0  0  0  0
   24.1330   -1.5872    6.7665 H   0  0  0  0  0  0  0  0  0  0  0  0
   24.4301    1.1151    9.4197 H   0  0  0  0  0  0  0  0  0  0  0  0
   22.9071    1.8885    8.9887 H   0  0  0  0  0  0  0  0  0  0  0  0
   22.9290    0.2807    9.7379 H   0  0  0  0  0  0  0  0  0  0  0  0
   23.1935    0.1146    5.1148 H   0  0  0  0  0  0  0  0  0  0  0  0
   21.9721   -1.1290    5.5139 H   0  0  0  0  0  0  0  0  0  0  0  0
  1 22  1  0  0  0  0
  1  2  1  0  0  0  0
  3  1  1  0  0  0  0
  4  9  1  0  0  0  0
  4  1  1  0  0  0  0
  5  6  1  1  0  0  0
  5  4  1  0  0  0  0
  6  7  2  0  0  0  0
  7  8  1  0  0  0  0
  8  9  2  0  0  0  0
  8 32  1  0  0  0  0
  9 29  1  0  0  0  0
 10 33  1  0  0  0  0
 10  5  1  0  0  0  0
 10 11  1  0  0  0  0
 11 16  1  0  0  0  0
 12 11  1  0  0  0  0
 12 13  1  0  0  0  0
 13 37  1  0  0  0  0
 13 36  1  0  0  0  0
 14 39  1  0  0  0  0
 14 12  1  0  0  0  0
 15 12  1  0  0  0  0
 15 43  1  0  0  0  0
 16 44  1  0  0  0  0
 16 45  1  0  0  0  0
 16 17  1  0  0  0  0
 17 18  1  6  0  0  0
 17 22  1  0  0  0  0
 18 19  2  0  0  0  0
 19 47  1  0  0  0  0
 19 20  1  0  0  0  0
 20 48  1  0  0  0  0
 21 20  2  0  0  0  0
 21 23  1  0  0  0  0
 22 21  1  0  0  0  0
 23 50  1  0  0  0  0
 24 25  1  0  0  0  0
 24 23  1  0  0  0  0
 25 28  1  0  0  0  0
 25 27  1  0  0  0  0
 26 51  1  0  0  0  0
 26 25  1  0  0  0  0
 27 57  1  0  0  0  0
 27 59  1  0  0  0  0
 28 55  1  0  0  0  0
 28 54  1  0  0  0  0
 29 24  1  0  0  0  0
 30  6  1  0  0  0  0
 31  7  1  0  0  0  0
 34 10  1  0  0  0  0
 35 13  1  0  0  0  0
 38 14  1  0  0  0  0
 40 14  1  0  0  0  0
 41 15  1  0  0  0  0
 42 15  1  0  0  0  0
 46 18  1  0  0  0  0
 49 23  1  0  0  0  0
 52 26  1  0  0  0  0
 53 26  1  0  0  0  0
 56 28  1  0  0  0  0
 58 27  1  0  0  0  0
 60 29  1  0  0  0  0
 61 29  1  0  0  0  0
M  END
$$$$
