CSD_code = XOLCIK | q = 0 | S = 0 | Stoichiometry = C18H40Cl2N6Ti | MND = 6
 OpenBabel04212202123D

 67 68  0  0  0  0  0  0  0  0999 V2000
    8.2610    5.3946    3.1871 Ti  0  0  0  0  0  0  0  0  0  0  0  0
    6.1664    4.8426    3.7002 Cl  0  0  0  0  0  0  0  0  0  0  0  0
    9.1478    4.3777    4.9584 Cl  0  0  0  0  0  0  0  0  0  0  0  0
    7.5681    6.8227    1.9713 N   0  0  0  0  0  0  0  0  0  0  0  0
    8.2180    7.2424    4.0199 N   0  0  0  0  0  0  0  0  0  0  0  0
    6.9653    8.9587    2.8047 N   0  0  0  0  0  0  0  0  0  0  0  0
    8.5545    3.8698    1.8831 N   0  0  0  0  0  0  0  0  0  0  0  0
   10.0593    5.4018    2.3127 N   0  0  0  0  0  0  0  0  0  0  0  0
   10.8587    3.5031    1.1405 N   0  0  0  0  0  0  0  0  0  0  0  0
    7.5659    7.6961    2.9592 C   0  0  0  0  0  3  0  0  0  0  0  0
    6.9969    7.0831    0.6700 C   0  0  0  0  0  0  0  0  0  0  0  0
    8.0425    6.7728   -0.4051 C   0  0  0  0  0  0  0  0  0  0  0  0
    5.7648    6.1969    0.4661 C   0  0  0  0  0  0  0  0  0  0  0  0
    8.0507    7.8057    5.3500 C   0  0  0  0  0  0  0  0  0  0  0  0
    9.3908    7.8082    6.0870 C   0  0  0  0  0  0  0  0  0  0  0  0
    7.0201    6.9820    6.1344 C   0  0  0  0  0  0  0  0  0  0  0  0
    7.6754   10.1530    3.2009 C   0  0  0  0  0  0  0  0  0  0  0  0
    5.5269    9.0389    2.9305 C   0  0  0  0  0  0  0  0  0  0  0  0
    9.8282    4.2197    1.7761 C   0  0  0  0  0  3  0  0  0  0  0  0
    8.0964    2.4982    1.7311 C   0  0  0  0  0  0  0  0  0  0  0  0
    6.7401    2.4785    1.0246 C   0  0  0  0  0  0  0  0  0  0  0  0
    7.9816    1.8347    3.1103 C   0  0  0  0  0  0  0  0  0  0  0  0
   11.3436    6.0623    2.2698 C   0  0  0  0  0  0  0  0  0  0  0  0
   11.1593    7.4761    1.7106 C   0  0  0  0  0  0  0  0  0  0  0  0
   11.9288    6.1353    3.6829 C   0  0  0  0  0  0  0  0  0  0  0  0
   10.6441    2.9299   -0.1683 C   0  0  0  0  0  0  0  0  0  0  0  0
   11.7814    2.7709    1.9795 C   0  0  0  0  0  0  0  0  0  0  0  0
    6.7100    8.1439    0.6029 H   0  0  0  0  0  0  0  0  0  0  0  0
    8.4455    5.7747   -0.2307 H   0  0  0  0  0  0  0  0  0  0  0  0
    8.8564    7.4920   -0.3602 H   0  0  0  0  0  0  0  0  0  0  0  0
    7.5927    6.8136   -1.3945 H   0  0  0  0  0  0  0  0  0  0  0  0
    6.0707    5.1539    0.5116 H   0  0  0  0  0  0  0  0  0  0  0  0
    5.3045    6.3995   -0.4984 H   0  0  0  0  0  0  0  0  0  0  0  0
    5.0296    6.3656    1.2500 H   0  0  0  0  0  0  0  0  0  0  0  0
    7.6800    8.8375    5.2827 H   0  0  0  0  0  0  0  0  0  0  0  0
    9.2631    8.2105    7.0892 H   0  0  0  0  0  0  0  0  0  0  0  0
    9.7617    6.7869    6.1617 H   0  0  0  0  0  0  0  0  0  0  0  0
   10.1187    8.4208    5.5571 H   0  0  0  0  0  0  0  0  0  0  0  0
    7.3726    5.9550    6.2454 H   0  0  0  0  0  0  0  0  0  0  0  0
    6.8744    7.4129    7.1231 H   0  0  0  0  0  0  0  0  0  0  0  0
    6.0635    6.9672    5.6111 H   0  0  0  0  0  0  0  0  0  0  0  0
    5.2272    9.3311    3.9470 H   0  0  0  0  0  0  0  0  0  0  0  0
    5.0894    8.0682    2.7100 H   0  0  0  0  0  0  0  0  0  0  0  0
    5.1370    9.7802    2.2279 H   0  0  0  0  0  0  0  0  0  0  0  0
    7.5408   10.9084    2.4193 H   0  0  0  0  0  0  0  0  0  0  0  0
    7.3113   10.5808    4.1445 H   0  0  0  0  0  0  0  0  0  0  0  0
    8.7374    9.9344    3.2921 H   0  0  0  0  0  0  0  0  0  0  0  0
    8.8156    1.9204    1.1350 H   0  0  0  0  0  0  0  0  0  0  0  0
    6.8189    2.9186    0.0316 H   0  0  0  0  0  0  0  0  0  0  0  0
    6.0191    3.0422    1.6150 H   0  0  0  0  0  0  0  0  0  0  0  0
    6.3884    1.4545    0.9235 H   0  0  0  0  0  0  0  0  0  0  0  0
    7.6605    0.8008    3.0000 H   0  0  0  0  0  0  0  0  0  0  0  0
    8.9427    1.8531    3.6253 H   0  0  0  0  0  0  0  0  0  0  0  0
    7.2497    2.3685    3.7192 H   0  0  0  0  0  0  0  0  0  0  0  0
   12.0225    5.4972    1.6128 H   0  0  0  0  0  0  0  0  0  0  0  0
   12.0805    8.0458    1.8087 H   0  0  0  0  0  0  0  0  0  0  0  0
   10.3631    7.9758    2.2632 H   0  0  0  0  0  0  0  0  0  0  0  0
   10.8834    7.4344    0.6598 H   0  0  0  0  0  0  0  0  0  0  0  0
   12.0155    5.1428    4.1199 H   0  0  0  0  0  0  0  0  0  0  0  0
   12.9120    6.6002    3.6652 H   0  0  0  0  0  0  0  0  0  0  0  0
   11.2604    6.7213    4.3102 H   0  0  0  0  0  0  0  0  0  0  0  0
    9.7835    3.4017   -0.6381 H   0  0  0  0  0  0  0  0  0  0  0  0
   10.4940    1.8423   -0.1460 H   0  0  0  0  0  0  0  0  0  0  0  0
   11.5295    3.1310   -0.7810 H   0  0  0  0  0  0  0  0  0  0  0  0
   11.8002    3.2162    2.9714 H   0  0  0  0  0  0  0  0  0  0  0  0
   12.7839    2.8107    1.5453 H   0  0  0  0  0  0  0  0  0  0  0  0
   11.4863    1.7165    2.0786 H   0  0  0  0  0  0  0  0  0  0  0  0
  1  2  1  0  0  0  0
  1  5  1  0  0  0  0
  1  3  1  0  0  0  0
  4 10  1  0  0  0  0
  4  1  1  0  0  0  0
  5 14  1  0  0  0  0
  6 18  1  0  0  0  0
  6 10  1  0  0  0  0
  6 17  1  0  0  0  0
  7  1  1  0  0  0  0
  8  1  1  0  0  0  0
  9 19  1  0  0  0  0
  9 27  1  0  0  0  0
 10  5  1  0  0  0  0
 11  4  1  0  0  0  0
 12 30  1  0  0  0  0
 12 29  1  0  0  0  0
 12 11  1  0  0  0  0
 13 32  1  0  0  0  0
 13 11  1  0  0  0  0
 13 34  1  0  0  0  0
 14 15  1  0  0  0  0
 14 16  1  0  0  0  0
 15 37  1  0  0  0  0
 15 36  1  0  0  0  0
 16 39  1  0  0  0  0
 16 40  1  0  0  0  0
 17 47  1  0  0  0  0
 17 46  1  0  0  0  0
 18 42  1  0  0  0  0
 19  7  1  0  0  0  0
 19  8  1  0  0  0  0
 20  7  1  0  0  0  0
 20 22  1  0  0  0  0
 21 50  1  0  0  0  0
 21 20  1  0  0  0  0
 22 53  1  0  0  0  0
 22 54  1  0  0  0  0
 23  8  1  0  0  0  0
 23 25  1  0  0  0  0
 24 56  1  0  0  0  0
 24 57  1  0  0  0  0
 24 23  1  0  0  0  0
 25 59  1  0  0  0  0
 25 61  1  0  0  0  0
 26 63  1  0  0  0  0
 26  9  1  0  0  0  0
 27 67  1  0  0  0  0
 27 65  1  0  0  0  0
 28 11  1  0  0  0  0
 31 12  1  0  0  0  0
 33 13  1  0  0  0  0
 35 14  1  0  0  0  0
 38 15  1  0  0  0  0
 41 16  1  0  0  0  0
 43 18  1  0  0  0  0
 44 18  1  0  0  0  0
 45 17  1  0  0  0  0
 48 20  1  0  0  0  0
 49 21  1  0  0  0  0
 51 21  1  0  0  0  0
 52 22  1  0  0  0  0
 55 23  1  0  0  0  0
 58 24  1  0  0  0  0
 60 25  1  0  0  0  0
 62 26  1  0  0  0  0
 64 26  1  0  0  0  0
 66 27  1  0  0  0  0
M  END
$$$$
