CSD_code = XOMMAN | q = 0 | S = 0 | Stoichiometry = C8H9Cl2O3V | MND = 4
 OpenBabel04212202123D

 23 23  0  0  0  0  0  0  0  0999 V2000
    0.7331    4.4224    2.7660 V   0  0  0  0  0  0  0  0  0  0  0  0
   -0.8419    4.6132    1.4862 Cl  0  0  0  0  0  0  0  0  0  0  0  0
    1.1620    2.4331    2.7388 Cl  0  0  0  0  0  0  0  0  0  0  0  0
    1.8866    5.1551    2.1097 O   0  0  0  0  0  1  0  0  0  0  0  0
    0.2700    4.9135    4.2275 O   0  0  0  0  0  0  0  0  0  0  0  0
    0.6854    5.4429    5.4126 C   0  0  0  0  0  0  0  0  0  0  0  0
   -0.1322    5.4656    6.1488 H   0  0  0  0  0  0  0  0  0  0  0  0
    1.0664    6.4624    5.2371 H   0  0  0  0  0  0  0  0  0  0  0  0
    1.8425    4.5534    5.9117 C   0  0  0  0  0  0  0  0  0  0  0  0
    2.3203    5.0097    6.7899 H   0  0  0  0  0  0  0  0  0  0  0  0
    1.4489    3.5578    6.1677 H   0  0  0  0  0  0  0  0  0  0  0  0
    2.7267    4.4745    4.8237 O   0  0  0  0  0  0  0  0  0  0  0  0
    3.6359    3.4472    4.7626 C   0  0  0  0  0  0  0  0  0  0  0  0
    3.9900    2.6462    5.8395 C   0  0  0  0  0  0  0  0  0  0  0  0
    3.5469    2.7907    6.8133 H   0  0  0  0  0  0  0  0  0  0  0  0
    4.9360    1.6473    5.6628 C   0  0  0  0  0  0  0  0  0  0  0  0
    5.2066    1.0243    6.5024 H   0  0  0  0  0  0  0  0  0  0  0  0
    5.5302    1.4484    4.4314 C   0  0  0  0  0  0  0  0  0  0  0  0
    6.2633    0.6667    4.3042 H   0  0  0  0  0  0  0  0  0  0  0  0
    5.1801    2.2583    3.3605 C   0  0  0  0  0  0  0  0  0  0  0  0
    5.6401    2.1081    2.3958 H   0  0  0  0  0  0  0  0  0  0  0  0
    4.2384    3.2539    3.5202 C   0  0  0  0  0  0  0  0  0  0  0  0
    3.9356    3.8978    2.7036 H   0  0  0  0  0  0  0  0  0  0  0  0
  1  5  1  0  0  0  0
  2  1  1  0  0  0  0
  3  1  1  0  0  0  0
  4  1  1  0  0  0  0
  5  6  1  0  0  0  0
  6  9  1  0  0  0  0
  6  7  1  0  0  0  0
  8  6  1  0  0  0  0
  9 11  1  0  0  0  0
  9 10  1  0  0  0  0
 12  9  1  0  0  0  0
 13 12  1  0  0  0  0
 13 14  1  0  0  0  0
 14 15  1  0  0  0  0
 16 14  2  0  0  0  0
 16 17  1  0  0  0  0
 18 16  1  0  0  0  0
 19 18  1  0  0  0  0
 20 22  1  0  0  0  0
 20 18  2  0  0  0  0
 21 20  1  0  0  0  0
 22 13  2  0  0  0  0
 23 22  1  0  0  0  0
M  END
$$$$
