CSD_code = XOMXIG | q = 0 | S = 0 | Stoichiometry = C15H9ClN2O6Ru | MND = 6
 OpenBabel04212202123D

 34 37  0  0  1  0  0  0  0  0999 V2000
    3.0687    1.5700    4.6849 Ru  0  0  0  0  0  0  0  0  0  0  0  0
    3.8546    3.5321    3.6769 Cl  0  0  0  0  0  0  0  0  0  0  0  0
    4.6985    0.8839    4.0650 C   0  0  0  0  0  2  0  0  0  0  0  0
    5.6888    0.6108    3.5809 O   0  0  0  0  0  1  0  0  0  0  0  0
    2.4574    0.0003    5.4695 C   0  0  0  0  0  2  0  0  0  0  0  0
    2.1117   -0.9779    5.9421 O   0  0  0  0  0  1  0  0  0  0  0  0
    3.6097    2.5545    6.4746 N   0  0  0  0  0  0  0  0  0  0  0  0
    1.4859    2.6381    4.9964 N   0  0  0  0  0  0  0  0  0  0  0  0
    4.7434    2.4930    7.1787 C   0  0  1  0  0  3  0  0  0  0  0  0
    5.0914    3.4421    8.1345 C   0  0  0  0  0  0  0  0  0  0  0  0
    6.0430    3.3467    8.6329 H   0  0  0  0  0  0  0  0  0  0  0  0
    4.2119    4.4745    8.4114 C   0  0  0  0  0  0  0  0  0  0  0  0
    4.4547    5.2292    9.1426 H   0  0  0  0  0  0  0  0  0  0  0  0
    3.0107    4.5101    7.7290 C   0  0  0  0  0  0  0  0  0  0  0  0
    2.2959    5.2914    7.9275 H   0  0  0  0  0  0  0  0  0  0  0  0
    2.7349    3.5506    6.7547 C   0  0  0  0  0  0  0  0  0  0  0  0
    1.5148    3.5864    5.9401 C   0  0  1  0  0  3  0  0  0  0  0  0
    0.4798    4.5164    6.0246 C   0  0  0  0  0  0  0  0  0  0  0  0
    0.4777    5.2769    6.7882 H   0  0  0  0  0  0  0  0  0  0  0  0
   -0.5447    4.4675    5.0900 C   0  0  0  0  0  0  0  0  0  0  0  0
   -1.3546    5.1788    5.1429 H   0  0  0  0  0  0  0  0  0  0  0  0
   -0.4946    3.5348    4.0645 C   0  0  0  0  0  0  0  0  0  0  0  0
   -1.2273    3.4949    3.2743 H   0  0  0  0  0  0  0  0  0  0  0  0
    0.5576    2.6290    4.0483 C   0  0  0  0  0  0  0  0  0  0  0  0
    0.8384    1.6467    2.8927 C   0  0  0  0  0  0  0  0  0  0  0  0
    0.0048    1.4960    2.0256 O   0  0  0  0  0  0  0  0  0  0  0  0
    1.9841    1.0878    2.9434 O   0  0  0  0  0  0  0  0  0  0  0  0
    5.7016    1.3452    7.0127 C   0  0  0  0  0  0  0  0  0  0  0  0
    6.8723    1.4290    7.2684 O   0  0  0  0  0  0  0  0  0  0  0  0
    5.0823    0.2246    6.6502 O   0  0  0  0  0  0  0  0  0  0  0  0
    5.9073   -0.9351    6.5301 C   0  0  0  0  0  0  0  0  0  0  0  0
    6.6437   -0.7951    5.7373 H   0  0  0  0  0  0  0  0  0  0  0  0
    5.2370   -1.7558    6.2907 H   0  0  0  0  0  0  0  0  0  0  0  0
    6.4303   -1.1198    7.4704 H   0  0  0  0  0  0  0  0  0  0  0  0
  1  8  1  0  0  0  0
  1  5  1  0  0  0  0
  1  7  1  0  0  0  0
  2  1  1  0  0  0  0
  3  1  1  0  0  0  0
  4  3  1  0  0  0  0
  5  6  1  0  0  0  0
  7 16  1  0  0  0  0
  7  9  1  0  0  0  0
  8 17  1  0  0  0  0
  9 28  1  1  0  0  0
  9 10  1  0  0  0  0
 10 12  2  0  0  0  0
 10 11  1  0  0  0  0
 12 13  1  0  0  0  0
 14 15  1  0  0  0  0
 14 12  1  0  0  0  0
 16 14  2  0  0  0  0
 17 18  1  6  0  0  0
 17 16  1  0  0  0  0
 18 19  1  0  0  0  0
 20 21  1  0  0  0  0
 20 18  2  0  0  0  0
 22 20  1  0  0  0  0
 23 22  1  0  0  0  0
 24 22  2  0  0  0  0
 24  8  1  0  0  0  0
 25 27  1  0  0  0  0
 25 24  1  0  0  0  0
 26 25  2  0  0  0  0
 27  1  1  0  0  0  0
 28 29  2  0  0  0  0
 30 28  1  0  0  0  0
 31 30  1  0  0  0  0
 31 34  1  0  0  0  0
 32 31  1  0  0  0  0
 33 31  1  0  0  0  0
M  END
$$$$
