CSD_code = XONBUX | q = 0 | S = 0 | Stoichiometry = C23H27Cl2N2PPd | MND = 4
 OpenBabel04212202123D

 56 60  0  0  1  0  0  0  0  0999 V2000
    5.1946    9.2229    3.5143 Pd  0  0  0  0  0  0  0  0  0  0  0  0
    7.1788    9.0023    2.4678 Cl  0  0  0  0  0  0  0  0  0  0  0  0
    6.1249    8.5954    5.4337 Cl  0  0  0  0  0  0  0  0  0  0  0  0
    3.0488    9.2976    4.2468 P   0  0  0  0  0  4  0  0  0  0  0  0
    4.3275    9.8507    1.7389 N   0  0  1  0  0  0  0  0  0  0  0  0
    3.2356    9.2333    1.2662 N   0  0  0  0  0  0  0  0  0  0  0  0
    4.4340   11.0292    1.1490 C   0  0  1  0  0  3  0  0  0  0  0  0
    3.3669   11.1731    0.2536 C   0  0  0  0  0  0  0  0  0  0  0  0
    3.1663   12.0115   -0.3811 H   0  0  0  0  0  0  0  0  0  0  0  0
    2.6146   10.0187    0.3568 C   0  0  0  0  0  0  0  0  0  0  0  0
    5.5450   11.9575    1.4801 C   0  0  0  0  0  0  0  0  0  0  0  0
    6.0445   11.6091    2.3938 H   0  0  0  0  0  0  0  0  0  0  0  0
    5.1707   12.9689    1.6227 H   0  0  0  0  0  0  0  0  0  0  0  0
    6.2792   11.9667    0.6754 H   0  0  0  0  0  0  0  0  0  0  0  0
    1.3594    9.6844   -0.3643 C   0  0  0  0  0  0  0  0  0  0  0  0
    0.5715    9.3904    0.3266 H   0  0  0  0  0  0  0  0  0  0  0  0
    1.5153    8.8763   -1.0775 H   0  0  0  0  0  0  0  0  0  0  0  0
    1.0274   10.5627   -0.9114 H   0  0  0  0  0  0  0  0  0  0  0  0
    2.9507    7.9361    1.8452 C   0  0  2  0  0  0  0  0  0  0  0  0
    3.9546    7.5389    2.1198 H   0  0  0  0  0  0  0  0  0  0  0  0
    2.3006    6.9214    0.9131 C   0  0  0  0  0  0  0  0  0  0  0  0
    2.8511    6.8760   -0.0281 H   0  0  0  0  0  0  0  0  0  0  0  0
    1.2664    7.1941    0.7010 H   0  0  0  0  0  0  0  0  0  0  0  0
    2.3244    5.5588    1.6052 C   0  0  0  0  0  0  0  0  0  0  0  0
    1.8642    4.8099    0.9590 H   0  0  0  0  0  0  0  0  0  0  0  0
    3.3591    5.2593    1.7821 H   0  0  0  0  0  0  0  0  0  0  0  0
    1.5782    5.6263    2.9352 C   0  0  0  0  0  0  0  0  0  0  0  0
    1.6302    4.6589    3.4361 H   0  0  0  0  0  0  0  0  0  0  0  0
    0.5241    5.8472    2.7479 H   0  0  0  0  0  0  0  0  0  0  0  0
    2.1620    6.7031    3.8474 C   0  0  0  0  0  0  0  0  0  0  0  0
    3.1987    6.4540    4.1101 H   0  0  0  0  0  0  0  0  0  0  0  0
    1.5861    6.7509    4.7741 H   0  0  0  0  0  0  0  0  0  0  0  0
    2.1544    8.0686    3.1558 C   0  0  1  0  0  0  0  0  0  0  0  0
    1.1243    8.3826    2.9526 H   0  0  0  0  0  0  0  0  0  0  0  0
    2.2655    9.0387    5.8687 C   0  0  0  0  0  0  0  0  0  0  0  0
    2.9903    8.3624    6.8455 C   0  0  0  0  0  0  0  0  0  0  0  0
    4.0039    8.0500    6.6287 H   0  0  0  0  0  0  0  0  0  0  0  0
    2.4183    8.1275    8.0836 C   0  0  0  0  0  0  0  0  0  0  0  0
    2.9804    7.6054    8.8430 H   0  0  0  0  0  0  0  0  0  0  0  0
    1.1316    8.5660    8.3494 C   0  0  0  0  0  0  0  0  0  0  0  0
    0.6863    8.3835    9.3163 H   0  0  0  0  0  0  0  0  0  0  0  0
    0.4145    9.2499    7.3795 C   0  0  0  0  0  0  0  0  0  0  0  0
   -0.5853    9.5999    7.5922 H   0  0  0  0  0  0  0  0  0  0  0  0
    0.9773    9.4904    6.1400 C   0  0  0  0  0  0  0  0  0  0  0  0
    0.4223   10.0347    5.3891 H   0  0  0  0  0  0  0  0  0  0  0  0
    2.4322   10.9468    3.7691 C   0  0  0  0  0  0  0  0  0  0  0  0
    1.2345   11.2429    3.1318 C   0  0  0  0  0  0  0  0  0  0  0  0
    0.5289   10.4609    2.8884 H   0  0  0  0  0  0  0  0  0  0  0  0
    0.9354   12.5523    2.7949 C   0  0  0  0  0  0  0  0  0  0  0  0
    0.0057   12.7757    2.2922 H   0  0  0  0  0  0  0  0  0  0  0  0
    1.8208   13.5719    3.0980 C   0  0  0  0  0  0  0  0  0  0  0  0
    1.5809   14.5902    2.8311 H   0  0  0  0  0  0  0  0  0  0  0  0
    3.0164   13.2853    3.7391 C   0  0  0  0  0  0  0  0  0  0  0  0
    3.7084   14.0799    3.9755 H   0  0  0  0  0  0  0  0  0  0  0  0
    3.3235   11.9786    4.0644 C   0  0  0  0  0  0  0  0  0  0  0  0
    4.2703   11.7295    4.5485 H   0  0  0  0  0  0  0  0  0  0  0  0
  1  4  1  0  0  0  0
  1  3  1  0  0  0  0
  2  1  1  0  0  0  0
  4 35  1  0  0  0  0
  5  6  1  1  0  0  0
  5  1  1  0  0  0  0
  6 19  1  0  0  0  0
  7 11  1  1  0  0  0
  7  5  1  0  0  0  0
  8 10  2  0  0  0  0
  8  7  1  0  0  0  0
  9  8  1  0  0  0  0
 10  6  1  0  0  0  0
 11 13  1  0  0  0  0
 11 12  1  0  0  0  0
 14 11  1  0  0  0  0
 15 16  1  0  0  0  0
 15 10  1  0  0  0  0
 17 15  1  0  0  0  0
 18 15  1  0  0  0  0
 19 20  1  1  0  0  0
 19 33  1  0  0  0  0
 21 24  1  0  0  0  0
 21 19  1  0  0  0  0
 22 21  1  0  0  0  0
 23 21  1  0  0  0  0
 24 26  1  0  0  0  0
 24 27  1  0  0  0  0
 25 24  1  0  0  0  0
 27 28  1  0  0  0  0
 27 30  1  0  0  0  0
 29 27  1  0  0  0  0
 30 31  1  0  0  0  0
 30 32  1  0  0  0  0
 33 34  1  6  0  0  0
 33 30  1  0  0  0  0
 33  4  1  0  0  0  0
 35 44  2  0  0  0  0
 35 36  1  0  0  0  0
 36 38  2  0  0  0  0
 37 36  1  0  0  0  0
 38 40  1  0  0  0  0
 38 39  1  0  0  0  0
 40 41  1  0  0  0  0
 42 43  1  0  0  0  0
 42 40  2  0  0  0  0
 44 42  1  0  0  0  0
 45 44  1  0  0  0  0
 46 55  1  0  0  0  0
 46  4  1  0  0  0  0
 47 46  2  0  0  0  0
 48 47  1  0  0  0  0
 49 51  2  0  0  0  0
 49 47  1  0  0  0  0
 50 49  1  0  0  0  0
 51 53  1  0  0  0  0
 52 51  1  0  0  0  0
 53 54  1  0  0  0  0
 53 55  2  0  0  0  0
 55 56  1  0  0  0  0
M  END
$$$$
