CSD_code = XONCAH | q = 1 | S = 0 | Stoichiometry = C10H16AuI2N4(1+) | MND = 4
 OpenBabel04212202123D

 33 34  0  0  1  0  0  0  0  0999 V2000
    4.8505    7.3536    0.0007 Au  0  0  0  0  0  0  0  0  0  0  0  0
    6.1648    7.0787    2.2710 I   0  0  0  0  0  0  0  0  0  0  0  0
    4.9188    4.3506   -0.1973 N   0  0  0  0  0  0  0  0  0  0  0  0
    3.0237    5.0318    0.5724 N   0  0  0  0  0  0  0  0  0  0  0  0
    4.2213    5.4467    0.1345 C   0  0  0  0  0  0  0  0  0  0  0  0
    4.1588    3.2411    0.0330 C   0  0  0  0  0  0  0  0  0  0  0  0
    4.5154    2.2507   -0.1592 H   0  0  0  0  0  0  0  0  0  0  0  0
    2.9657    3.6699    0.5158 C   0  0  0  0  0  0  0  0  0  0  0  0
    2.0989    3.1191    0.8162 H   0  0  0  0  0  0  0  0  0  0  0  0
    6.2687    4.3354   -0.6943 C   0  0  0  0  0  0  0  0  0  0  0  0
    6.5159    3.3307   -1.0293 H   0  0  0  0  0  0  0  0  0  0  0  0
    6.9691    4.6247    0.0923 H   0  0  0  0  0  0  0  0  0  0  0  0
    6.3724    5.0209   -1.5367 H   0  0  0  0  0  0  0  0  0  0  0  0
    1.9514    5.8845    1.0113 C   0  0  0  0  0  0  0  0  0  0  0  0
    1.1640    5.2740    1.4473 H   0  0  0  0  0  0  0  0  0  0  0  0
    1.5363    6.4417    0.1686 H   0  0  0  0  0  0  0  0  0  0  0  0
    2.3077    6.5876    1.7657 H   0  0  0  0  0  0  0  0  0  0  0  0
    3.5417    7.6272   -2.2723 I   0  0  0  0  0  0  0  0  0  0  0  0
    4.7792   10.3557    0.1957 N   0  0  0  0  0  0  0  0  0  0  0  0
    6.6770    9.6781   -0.5703 N   0  0  0  0  0  0  0  0  0  0  0  0
    5.4804    9.2607   -0.1321 C   0  0  2  0  0  3  0  0  0  0  0  0
    5.5359   11.4669   -0.0371 C   0  0  0  0  0  0  0  0  0  0  0  0
    5.1760   12.4567    0.1518 H   0  0  0  0  0  0  0  0  0  0  0  0
    6.7308   11.0404   -0.5175 C   0  0  0  0  0  0  0  0  0  0  0  0
    7.5960   11.5931   -0.8190 H   0  0  0  0  0  0  0  0  0  0  0  0
    3.4289   10.3681    0.6916 C   0  0  0  0  0  0  0  0  0  0  0  0
    3.1789   11.3726    1.0252 H   0  0  0  0  0  0  0  0  0  0  0  0
    2.7297   10.0762   -0.0952 H   0  0  0  0  0  0  0  0  0  0  0  0
    3.3262    9.6834    1.5347 H   0  0  0  0  0  0  0  0  0  0  0  0
    7.7527    8.8277   -1.0056 C   0  0  0  0  0  0  0  0  0  0  0  0
    8.5385    9.4395   -1.4427 H   0  0  0  0  0  0  0  0  0  0  0  0
    8.1687    8.2745   -0.1608 H   0  0  0  0  0  0  0  0  0  0  0  0
    7.3996    8.1211   -1.7583 H   0  0  0  0  0  0  0  0  0  0  0  0
  1  5  2  0  0  0  0
  1  2  1  0  0  0  0
  3  6  1  0  0  0  0
  3  5  1  0  0  0  0
  4 14  1  0  0  0  0
  5  4  1  0  0  0  0
  6  8  2  0  0  0  0
  7  6  1  0  0  0  0
  8  4  1  0  0  0  0
  8  9  1  0  0  0  0
 10  3  1  0  0  0  0
 10 12  1  0  0  0  0
 11 10  1  0  0  0  0
 13 10  1  0  0  0  0
 14 15  1  0  0  0  0
 14 17  1  0  0  0  0
 16 14  1  0  0  0  0
 18  1  1  0  0  0  0
 19 26  1  0  0  0  0
 20 24  1  0  0  0  0
 20 21  1  0  0  0  0
 21  1  1  6  0  0  0
 21 19  1  0  0  0  0
 22 23  1  0  0  0  0
 22 19  1  0  0  0  0
 24 22  2  0  0  0  0
 25 24  1  0  0  0  0
 26 27  1  0  0  0  0
 26 29  1  0  0  0  0
 28 26  1  0  0  0  0
 30 20  1  0  0  0  0
 30 32  1  0  0  0  0
 31 30  1  0  0  0  0
 33 30  1  0  0  0  0
M  END
$$$$
