CSD_code = XONDEM | q = 0 | S = 0 | Stoichiometry = C5H8AuI3N2 | MND = 4
 OpenBabel04212202123D

 19 19  0  0  0  0  0  0  0  0999 V2000
    4.0277    4.4040    7.2836 Au  0  0  0  0  0  0  0  0  0  0  0  0
    2.0092    4.6106    5.6011 I   0  0  0  0  0  0  0  0  0  0  0  0
    4.7815    7.2135    6.5091 N   0  0  0  0  0  0  0  0  0  0  0  0
    4.0293    6.4193    7.2815 C   0  0  0  0  0  0  0  0  0  0  0  0
    5.7576    6.7610    5.5551 C   0  0  0  0  0  0  0  0  0  0  0  0
    6.6425    6.3761    6.0687 H   0  0  0  0  0  0  0  0  0  0  0  0
    6.0510    7.5923    4.9183 H   0  0  0  0  0  0  0  0  0  0  0  0
    5.3399    5.9697    4.9303 H   0  0  0  0  0  0  0  0  0  0  0  0
    4.0308    1.8101    7.2808 I   0  0  0  0  0  0  0  0  0  0  0  0
    4.5034    8.5201    6.7970 C   0  0  0  0  0  0  0  0  0  0  0  0
    4.9925    9.3309    6.2991 H   0  0  0  0  0  0  0  0  0  0  0  0
    3.2770    7.2137    8.0536 N   0  0  0  0  0  0  0  0  0  0  0  0
    2.3009    6.7610    9.0075 C   0  0  0  0  0  0  0  0  0  0  0  0
    1.4160    6.3763    8.4939 H   0  0  0  0  0  0  0  0  0  0  0  0
    2.0076    7.5923    9.6445 H   0  0  0  0  0  0  0  0  0  0  0  0
    2.7186    5.9697    9.6321 H   0  0  0  0  0  0  0  0  0  0  0  0
    3.5552    8.5202    7.7655 C   0  0  0  0  0  0  0  0  0  0  0  0
    3.0661    9.3311    8.2633 H   0  0  0  0  0  0  0  0  0  0  0  0
    6.0481    4.6105    8.9596 I   0  0  0  0  0  0  0  0  0  0  0  0
  1 19  1  0  0  0  0
  2  1  1  0  0  0  0
  3 10  1  0  0  0  0
  3  4  1  0  0  0  0
  4  1  2  0  0  0  0
  4 12  1  0  0  0  0
  5  6  1  0  0  0  0
  5  3  1  0  0  0  0
  7  5  1  0  0  0  0
  8  5  1  0  0  0  0
  9  1  1  0  0  0  0
 10 17  2  0  0  0  0
 11 10  1  0  0  0  0
 12 13  1  0  0  0  0
 13 16  1  0  0  0  0
 13 15  1  0  0  0  0
 14 13  1  0  0  0  0
 17 12  1  0  0  0  0
 17 18  1  0  0  0  0
M  END
$$$$
