CSD_code = XONFEM | q = 0 | S = 0 | Stoichiometry = C12H12Cl2N2O2Ti | MND = 6
 OpenBabel04212202123D

 31 34  0  0  1  0  0  0  0  0999 V2000
    4.8503    5.5983    6.4317 Ti  0  0  0  0  0  0  0  0  0  0  0  0
    4.6875    4.8488    4.3648 Cl  0  0  0  0  0  0  0  0  0  0  0  0
    3.1075    4.5625    7.2979 Cl  0  0  0  0  0  0  0  0  0  0  0  0
    6.7237    6.5583    5.7531 N   0  0  0  0  0  0  0  0  0  0  0  0
    5.0388    6.5713    8.4095 N   0  0  0  0  0  0  0  0  0  0  0  0
    6.0645    4.4519    6.9776 O   0  0  0  0  0  0  0  0  0  0  0  0
    4.0608    7.1430    6.1540 O   0  0  0  0  0  0  0  0  0  0  0  0
    7.2762    4.3185    6.3547 C   0  0  0  0  0  0  0  0  0  0  0  0
    7.2306    3.5068    5.6015 H   0  0  0  0  0  0  0  0  0  0  0  0
    8.0728    4.0617    7.0816 H   0  0  0  0  0  0  0  0  0  0  0  0
    7.6381    5.5986    5.6357 C   0  0  1  0  0  3  0  0  0  0  0  0
    8.7982    5.7712    4.8855 C   0  0  0  0  0  0  0  0  0  0  0  0
    9.5197    4.9720    4.8139 H   0  0  0  0  0  0  0  0  0  0  0  0
    8.9881    6.9715    4.2262 C   0  0  0  0  0  0  0  0  0  0  0  0
    9.8709    7.1331    3.6256 H   0  0  0  0  0  0  0  0  0  0  0  0
    8.0197    7.9616    4.3385 C   0  0  0  0  0  0  0  0  0  0  0  0
    8.1289    8.9045    3.8270 H   0  0  0  0  0  0  0  0  0  0  0  0
    6.9026    7.7101    5.1153 C   0  0  0  0  0  0  0  0  0  0  0  0
    6.1097    8.4402    5.2325 H   0  0  0  0  0  0  0  0  0  0  0  0
    3.4551    7.8439    7.1620 C   0  0  0  0  0  0  0  0  0  0  0  0
    2.3767    7.5915    7.2073 H   0  0  0  0  0  0  0  0  0  0  0  0
    3.5408    8.9365    6.9964 H   0  0  0  0  0  0  0  0  0  0  0  0
    4.0715    7.4813    8.4943 C   0  0  1  0  0  3  0  0  0  0  0  0
    3.6598    8.0104    9.7147 C   0  0  0  0  0  0  0  0  0  0  0  0
    2.8740    8.7491    9.7461 H   0  0  0  0  0  0  0  0  0  0  0  0
    4.2634    7.5540   10.8718 C   0  0  0  0  0  0  0  0  0  0  0  0
    3.9588    7.9346   11.8354 H   0  0  0  0  0  0  0  0  0  0  0  0
    5.2593    6.5897   10.7761 C   0  0  0  0  0  0  0  0  0  0  0  0
    5.7419    6.2018   11.6588 H   0  0  0  0  0  0  0  0  0  0  0  0
    5.6156    6.1281    9.5213 C   0  0  0  0  0  0  0  0  0  0  0  0
    6.3788    5.3702    9.3848 H   0  0  0  0  0  0  0  0  0  0  0  0
  1  6  1  0  0  0  0
  1  3  1  0  0  0  0
  1  5  1  0  0  0  0
  2  1  1  0  0  0  0
  4  1  1  0  0  0  0
  5 23  1  0  0  0  0
  5 30  1  0  0  0  0
  7  1  1  0  0  0  0
  7 20  1  0  0  0  0
  8  6  1  0  0  0  0
  8 10  1  0  0  0  0
  9  8  1  0  0  0  0
 11 12  1  6  0  0  0
 11  4  1  0  0  0  0
 11  8  1  0  0  0  0
 13 12  1  0  0  0  0
 14 16  1  0  0  0  0
 14 12  2  0  0  0  0
 15 14  1  0  0  0  0
 16 18  2  0  0  0  0
 17 16  1  0  0  0  0
 18 19  1  0  0  0  0
 18  4  1  0  0  0  0
 20 21  1  0  0  0  0
 20 23  1  0  0  0  0
 22 20  1  0  0  0  0
 23 24  1  1  0  0  0
 24 25  1  0  0  0  0
 24 26  2  0  0  0  0
 26 27  1  0  0  0  0
 28 26  1  0  0  0  0
 28 29  1  0  0  0  0
 30 28  2  0  0  0  0
 31 30  1  0  0  0  0
M  END
$$$$
