CSD_code = XONLOD | q = 0 | S = 0 | Stoichiometry = C24H16Cl2N6Pt | MND = 4
 OpenBabel04212202123D

 49 55  0  0  0  0  0  0  0  0999 V2000
    2.1209    1.1815    6.2493 Pt  0  0  0  0  0  0  0  0  0  0  0  0
    2.2700    1.6420    4.0654 Cl  0  0  0  0  0  0  0  0  0  0  0  0
    4.2699    1.7043    6.6154 Cl  0  0  0  0  0  0  0  0  0  0  0  0
    1.9676    0.7457    8.2475 N   0  0  0  0  0  0  0  0  0  0  0  0
    1.9903   -0.5703   10.0228 N   0  0  0  0  0  0  0  0  0  0  0  0
    0.4729   -2.5996    5.9316 N   0  0  0  0  0  0  0  0  0  0  0  0
    0.2043    0.7144    6.0488 N   0  0  0  0  0  0  0  0  0  0  0  0
   -1.4242   -2.5220    8.2503 N   0  0  0  0  0  0  0  0  0  0  0  0
   -3.2183   -2.5799    6.9280 N   0  0  0  0  0  0  0  0  0  0  0  0
    1.8281   -0.4904    8.6753 C   0  0  0  0  0  0  0  0  0  0  0  0
    2.2415    1.5246    9.3412 C   0  0  0  0  0  0  0  0  0  0  0  0
    2.2468    0.6977   10.4845 C   0  0  0  0  0  0  0  0  0  0  0  0
    2.4929    1.2118   11.7485 C   0  0  0  0  0  0  0  0  0  0  0  0
    2.4991    0.5799   12.6230 H   0  0  0  0  0  0  0  0  0  0  0  0
    2.7386    2.5676   11.8320 C   0  0  0  0  0  0  0  0  0  0  0  0
    2.9420    3.0065   12.7969 H   0  0  0  0  0  0  0  0  0  0  0  0
    2.7401    3.3892   10.7007 C   0  0  0  0  0  0  0  0  0  0  0  0
    2.9468    4.4412   10.8228 H   0  0  0  0  0  0  0  0  0  0  0  0
    2.4910    2.8882    9.4413 C   0  0  0  0  0  0  0  0  0  0  0  0
    2.5064    3.5034    8.5549 H   0  0  0  0  0  0  0  0  0  0  0  0
    1.5951   -1.6309    7.8065 C   0  0  0  0  0  0  0  0  0  0  0  0
    2.2971   -2.8214    7.9928 C   0  0  0  0  0  0  0  0  0  0  0  0
    3.0188   -2.9009    8.7932 H   0  0  0  0  0  0  0  0  0  0  0  0
    2.0852   -3.8774    7.1267 C   0  0  0  0  0  0  0  0  0  0  0  0
    2.6187   -4.8071    7.2428 H   0  0  0  0  0  0  0  0  0  0  0  0
    1.1729   -3.7048    6.0961 C   0  0  0  0  0  0  0  0  0  0  0  0
    0.9806   -4.4867    5.3742 H   0  0  0  0  0  0  0  0  0  0  0  0
    0.6652   -1.5806    6.7560 C   0  0  0  0  0  0  0  0  0  0  0  0
   -0.2651   -0.4468    6.5153 C   0  0  0  0  0  0  0  0  0  0  0  0
   -1.6355   -0.6852    6.6608 C   0  0  0  0  0  0  0  0  0  0  0  0
   -2.5339    0.2950    6.2398 C   0  0  0  0  0  0  0  0  0  0  0  0
   -3.5980    0.1484    6.3477 H   0  0  0  0  0  0  0  0  0  0  0  0
   -2.0290    1.4631    5.6912 C   0  0  0  0  0  0  0  0  0  0  0  0
   -2.6898    2.2339    5.3286 H   0  0  0  0  0  0  0  0  0  0  0  0
   -0.6609    1.6425    5.6272 C   0  0  0  0  0  0  0  0  0  0  0  0
   -0.2242    2.5416    5.2116 H   0  0  0  0  0  0  0  0  0  0  0  0
   -2.0693   -1.9247    7.2823 C   0  0  0  0  0  0  0  0  0  0  0  0
   -2.1547   -3.6382    8.5534 C   0  0  0  0  0  0  0  0  0  0  0  0
   -1.9291   -4.6346    9.4981 C   0  0  0  0  0  0  0  0  0  0  0  0
   -1.0637   -4.5958   10.1399 H   0  0  0  0  0  0  0  0  0  0  0  0
   -2.8452   -5.6611    9.5742 C   0  0  0  0  0  0  0  0  0  0  0  0
   -2.6989   -6.4513   10.2953 H   0  0  0  0  0  0  0  0  0  0  0  0
   -3.9656   -5.7113    8.7402 C   0  0  0  0  0  0  0  0  0  0  0  0
   -4.6549   -6.5363    8.8386 H   0  0  0  0  0  0  0  0  0  0  0  0
   -4.2110   -4.7341    7.7973 C   0  0  0  0  0  0  0  0  0  0  0  0
   -5.0759   -4.7748    7.1525 H   0  0  0  0  0  0  0  0  0  0  0  0
   -3.2943   -3.6986    7.7149 C   0  0  0  0  0  0  0  0  0  0  0  0
   -3.8348   -2.3379    6.1708 H   0  0  0  0  0  0  0  0  0  0  0  0
    1.8956   -1.4058   10.5761 H   0  0  0  0  0  0  0  0  0  0  0  0
  1  3  1  0  0  0  0
  1  4  1  0  0  0  0
  2  1  1  0  0  0  0
  4 10  1  0  0  0  0
  4 11  1  0  0  0  0
  5 12  1  0  0  0  0
  5 49  1  0  0  0  0
  6 26  2  0  0  0  0
  6 28  1  0  0  0  0
  7  1  1  0  0  0  0
  7 29  1  0  0  0  0
  8 38  1  0  0  0  0
  9 37  1  0  0  0  0
  9 47  1  0  0  0  0
 10  5  1  0  0  0  0
 11 19  2  0  0  0  0
 11 12  1  0  0  0  0
 12 13  2  0  0  0  0
 13 15  1  0  0  0  0
 13 14  1  0  0  0  0
 15 16  1  0  0  0  0
 17 18  1  0  0  0  0
 17 15  2  0  0  0  0
 19 17  1  0  0  0  0
 20 19  1  0  0  0  0
 21 22  1  0  0  0  0
 21 10  2  0  0  0  0
 22 23  1  0  0  0  0
 24 25  1  0  0  0  0
 24 22  2  0  0  0  0
 26 24  1  0  0  0  0
 27 26  1  0  0  0  0
 28 21  1  0  0  0  0
 29 30  1  0  0  0  0
 29 28  2  0  0  0  0
 30 37  1  0  0  0  0
 31 32  1  0  0  0  0
 31 30  2  0  0  0  0
 33 31  1  0  0  0  0
 34 33  1  0  0  0  0
 35 33  2  0  0  0  0
 35  7  1  0  0  0  0
 36 35  1  0  0  0  0
 37  8  2  0  0  0  0
 38 39  1  0  0  0  0
 39 41  2  0  0  0  0
 39 40  1  0  0  0  0
 41 42  1  0  0  0  0
 43 44  1  0  0  0  0
 43 41  1  0  0  0  0
 45 43  2  0  0  0  0
 46 45  1  0  0  0  0
 47 45  1  0  0  0  0
 47 38  2  0  0  0  0
 48  9  1  0  0  0  0
M  END
$$$$
