CSD_code = XONQOH | q = 0 | S = 0 | Stoichiometry = C20H26Cl2N4Pd | MND = 4
 OpenBabel04212202123D

 53 56  0  0  1  0  0  0  0  0999 V2000
    1.1038   14.5347    9.9746 Pd  0  0  0  0  0  0  0  0  0  0  0  0
    1.7319   16.0187   11.5879 Cl  0  0  0  0  0  0  0  0  0  0  0  0
   -1.1478   14.8169   10.3542 Cl  0  0  0  0  0  0  0  0  0  0  0  0
    0.0504   12.0761    8.7699 N   0  0  0  0  0  0  0  0  0  0  0  0
    0.8600   13.2999    7.1989 N   0  0  0  0  0  0  0  0  0  0  0  0
    3.1354   15.1327    8.0641 N   0  0  0  0  0  0  0  0  0  0  0  0
    4.1874   14.4405    9.8051 N   0  0  0  0  0  0  0  0  0  0  0  0
    0.8082   11.5810   11.0439 C   0  0  0  0  0  0  0  0  0  0  0  0
    0.9453   12.5284   12.0589 C   0  0  0  0  0  0  0  0  0  0  0  0
    0.1921   13.3034   12.1970 H   0  0  0  0  0  0  0  0  0  0  0  0
    1.9734   12.4166   12.9861 C   0  0  0  0  0  0  0  0  0  0  0  0
    2.0254   13.1567   13.7670 H   0  0  0  0  0  0  0  0  0  0  0  0
    2.8915   11.3730   12.9326 C   0  0  0  0  0  0  0  0  0  0  0  0
    2.7623   10.4552   11.8920 C   0  0  0  0  0  0  0  0  0  0  0  0
    3.4488    9.6253   11.8109 H   0  0  0  0  0  0  0  0  0  0  0  0
    1.7455   10.5584   10.9610 C   0  0  0  0  0  0  0  0  0  0  0  0
    1.6641    9.8164   10.1776 H   0  0  0  0  0  0  0  0  0  0  0  0
   -0.3618   11.6324   10.0866 C   0  0  0  0  0  0  0  0  0  0  0  0
   -0.8129   10.6426    9.9801 H   0  0  0  0  0  0  0  0  0  0  0  0
   -1.1072   12.3453   10.4615 H   0  0  0  0  0  0  0  0  0  0  0  0
   -0.1250   11.3854    7.6051 C   0  0  0  0  0  0  0  0  0  0  0  0
   -0.5922   10.4227    7.5682 H   0  0  0  0  0  0  0  0  0  0  0  0
    0.3815   12.1507    6.6123 C   0  0  0  0  0  0  0  0  0  0  0  0
    0.4379   11.9808    5.5569 H   0  0  0  0  0  0  0  0  0  0  0  0
    0.6467   13.2553    8.5328 C   0  0  2  0  0  3  0  0  0  0  0  0
    1.4800   14.3418    6.4044 C   0  0  0  0  0  0  0  0  0  0  0  0
    0.7347   14.7311    5.7003 H   0  0  0  0  0  0  0  0  0  0  0  0
    2.2932   13.8847    5.8250 H   0  0  0  0  0  0  0  0  0  0  0  0
    2.0379   15.5206    7.2099 C   0  0  0  0  0  0  0  0  0  0  0  0
    2.3877   16.2830    6.5091 H   0  0  0  0  0  0  0  0  0  0  0  0
    1.2382   15.9518    7.8456 H   0  0  0  0  0  0  0  0  0  0  0  0
    4.4731   15.2470    7.7862 C   0  0  0  0  0  0  0  0  0  0  0  0
    4.8420   15.6346    6.8588 H   0  0  0  0  0  0  0  0  0  0  0  0
    5.1327   14.8110    8.8856 C   0  0  0  0  0  0  0  0  0  0  0  0
    6.1829   14.7473    9.0840 H   0  0  0  0  0  0  0  0  0  0  0  0
    2.9618   14.6296    9.3068 C   0  0  0  0  0  0  0  0  0  0  0  0
    3.9515   11.1559   14.0030 C   0  0  0  0  0  0  0  0  0  0  0  0
    3.5909    9.8667   14.7576 C   0  0  0  0  0  0  0  0  0  0  0  0
    2.5913    9.9457   15.1794 H   0  0  0  0  0  0  0  0  0  0  0  0
    4.2956    9.6959   15.5686 H   0  0  0  0  0  0  0  0  0  0  0  0
    3.6140    9.0049   14.0957 H   0  0  0  0  0  0  0  0  0  0  0  0
    4.0115   12.3062   15.0112 C   0  0  0  0  0  0  0  0  0  0  0  0
    4.2081   13.2529   14.5138 H   0  0  0  0  0  0  0  0  0  0  0  0
    4.8150   12.1232   15.7219 H   0  0  0  0  0  0  0  0  0  0  0  0
    3.0833   12.3852   15.5707 H   0  0  0  0  0  0  0  0  0  0  0  0
    5.3449   11.0048   13.3773 C   0  0  0  0  0  0  0  0  0  0  0  0
    5.3696   10.2184   12.6281 H   0  0  0  0  0  0  0  0  0  0  0  0
    6.0686   10.7544   14.1501 H   0  0  0  0  0  0  0  0  0  0  0  0
    5.6549   11.9371   12.9118 H   0  0  0  0  0  0  0  0  0  0  0  0
    4.4411   13.9620   11.1358 C   0  0  0  0  0  0  0  0  0  0  0  0
    3.6940   14.4073   11.8001 H   0  0  0  0  0  0  0  0  0  0  0  0
    5.4404   14.2602   11.4473 H   0  0  0  0  0  0  0  0  0  0  0  0
    4.3464   12.8747   11.1730 H   0  0  0  0  0  0  0  0  0  0  0  0
  1  3  1  0  0  0  0
  1  2  1  0  0  0  0
  4 18  1  0  0  0  0
  6 36  1  0  0  0  0
  7 50  1  0  0  0  0
  8  9  1  0  0  0  0
  9 10  1  0  0  0  0
  9 11  2  0  0  0  0
 11 12  1  0  0  0  0
 13 11  1  0  0  0  0
 13 37  1  0  0  0  0
 14 13  2  0  0  0  0
 15 14  1  0  0  0  0
 16  8  2  0  0  0  0
 16 14  1  0  0  0  0
 17 16  1  0  0  0  0
 18 20  1  0  0  0  0
 18  8  1  0  0  0  0
 19 18  1  0  0  0  0
 21  4  1  0  0  0  0
 22 21  1  0  0  0  0
 23  5  1  0  0  0  0
 23 21  2  0  0  0  0
 24 23  1  0  0  0  0
 25  5  1  1  0  0  0
 25  4  1  0  0  0  0
 25  1  1  0  0  0  0
 26  5  1  0  0  0  0
 26 29  1  0  0  0  0
 27 26  1  0  0  0  0
 28 26  1  0  0  0  0
 29 31  1  0  0  0  0
 29  6  1  0  0  0  0
 30 29  1  0  0  0  0
 32  6  1  0  0  0  0
 32 34  2  0  0  0  0
 33 32  1  0  0  0  0
 34 35  1  0  0  0  0
 34  7  1  0  0  0  0
 36  7  1  0  0  0  0
 36  1  2  0  0  0  0
 37 38  1  0  0  0  0
 37 42  1  0  0  0  0
 38 39  1  0  0  0  0
 38 40  1  0  0  0  0
 41 38  1  0  0  0  0
 42 45  1  0  0  0  0
 42 44  1  0  0  0  0
 43 42  1  0  0  0  0
 46 37  1  0  0  0  0
 46 48  1  0  0  0  0
 47 46  1  0  0  0  0
 49 46  1  0  0  0  0
 50 53  1  0  0  0  0
 50 52  1  0  0  0  0
 50 51  1  0  0  0  0
M  END
$$$$
