CSD_code = XONQIB | q = 0 | S = 0 | Stoichiometry = C16H18Cl2N4Pd | MND = 4
 OpenBabel04212202123D

 41 44  0  0  1  0  0  0  0  0999 V2000
    1.4846    2.3711    9.4008 Pd  0  0  0  0  0  0  0  0  0  0  0  0
    3.1832    1.8050   10.8462 Cl  0  0  0  0  0  0  0  0  0  0  0  0
    2.2759    4.4793    9.0608 Cl  0  0  0  0  0  0  0  0  0  0  0  0
    1.3688   -0.5705    9.3638 N   0  0  0  0  0  0  0  0  0  0  0  0
   -0.4211    0.1668   10.2967 N   0  0  0  0  0  0  0  0  0  0  0  0
   -1.2956    2.9867    9.3996 N   0  0  0  0  0  0  0  0  0  0  0  0
   -0.6029    3.5977    7.4593 N   0  0  0  0  0  0  0  0  0  0  0  0
    2.6194    0.2287    7.4351 C   0  0  0  0  0  0  0  0  0  0  0  0
    1.9129   -0.2278    6.3284 C   0  0  0  0  0  0  0  0  0  0  0  0
    1.3868   -1.1719    6.3799 H   0  0  0  0  0  0  0  0  0  0  0  0
    1.8928    0.5078    5.1556 C   0  0  0  0  0  0  0  0  0  0  0  0
    1.3514    0.1361    4.2973 H   0  0  0  0  0  0  0  0  0  0  0  0
    2.5752    1.7106    5.0813 C   0  0  0  0  0  0  0  0  0  0  0  0
    2.5699    2.2777    4.1616 H   0  0  0  0  0  0  0  0  0  0  0  0
    3.2740    2.1806    6.1819 C   0  0  0  0  0  0  0  0  0  0  0  0
    3.8140    3.1138    6.1242 H   0  0  0  0  0  0  0  0  0  0  0  0
    3.2950    1.4505    7.3632 C   0  0  0  0  0  0  0  0  0  0  0  0
    3.9087    1.7906    8.1952 H   0  0  0  0  0  0  0  0  0  0  0  0
    2.6574   -0.5983    8.7011 C   0  0  0  0  0  0  0  0  0  0  0  0
    2.8985   -1.6403    8.4763 H   0  0  0  0  0  0  0  0  0  0  0  0
    3.4011   -0.1811    9.3915 H   0  0  0  0  0  0  0  0  0  0  0  0
    0.6420   -1.6647    9.7362 C   0  0  0  0  0  0  0  0  0  0  0  0
    0.9767   -2.6670    9.5638 H   0  0  0  0  0  0  0  0  0  0  0  0
   -0.4861   -1.2075   10.3244 C   0  0  0  0  0  0  0  0  0  0  0  0
   -1.3129   -1.7326   10.7562 H   0  0  0  0  0  0  0  0  0  0  0  0
    0.7299    0.5599    9.7079 C   0  0  0  0  0  0  0  0  0  0  0  0
   -1.4983    0.9752   10.8322 C   0  0  0  0  0  0  0  0  0  0  0  0
   -1.6390    0.7033   11.8849 H   0  0  0  0  0  0  0  0  0  0  0  0
   -2.4179    0.7221   10.2872 H   0  0  0  0  0  0  0  0  0  0  0  0
   -1.2713    2.4889   10.7554 C   0  0  0  0  0  0  0  0  0  0  0  0
   -2.0633    2.9846   11.3227 H   0  0  0  0  0  0  0  0  0  0  0  0
   -0.2904    2.7442   11.2047 H   0  0  0  0  0  0  0  0  0  0  0  0
   -2.3622    3.5735    8.7685 C   0  0  0  0  0  0  0  0  0  0  0  0
   -3.3212    3.6838    9.2318 H   0  0  0  0  0  0  0  0  0  0  0  0
   -1.9222    3.9573    7.5473 C   0  0  0  0  0  0  0  0  0  0  0  0
   -2.4332    4.4605    6.7524 H   0  0  0  0  0  0  0  0  0  0  0  0
   -0.2133    2.9950    8.5881 C   0  0  1  0  0  3  0  0  0  0  0  0
    0.2657    3.8801    6.3497 C   0  0  0  0  0  0  0  0  0  0  0  0
    0.3185    3.0247    5.6729 H   0  0  0  0  0  0  0  0  0  0  0  0
    1.2623    4.0870    6.7494 H   0  0  0  0  0  0  0  0  0  0  0  0
   -0.1016    4.7520    5.8113 H   0  0  0  0  0  0  0  0  0  0  0  0
  1 26  2  0  0  0  0
  1  2  1  0  0  0  0
  3  1  1  0  0  0  0
  4 26  1  0  0  0  0
  4 22  1  0  0  0  0
  5 24  1  0  0  0  0
  5 27  1  0  0  0  0
  6 30  1  0  0  0  0
  7 35  1  0  0  0  0
  8 19  1  0  0  0  0
  9 10  1  0  0  0  0
  9  8  2  0  0  0  0
 11  9  1  0  0  0  0
 12 11  1  0  0  0  0
 13 11  2  0  0  0  0
 13 15  1  0  0  0  0
 14 13  1  0  0  0  0
 15 17  2  0  0  0  0
 16 15  1  0  0  0  0
 17  8  1  0  0  0  0
 17 18  1  0  0  0  0
 19  4  1  0  0  0  0
 19 21  1  0  0  0  0
 20 19  1  0  0  0  0
 22 24  2  0  0  0  0
 23 22  1  0  0  0  0
 24 25  1  0  0  0  0
 26  5  1  0  0  0  0
 27 28  1  0  0  0  0
 29 27  1  0  0  0  0
 30 27  1  0  0  0  0
 30 32  1  0  0  0  0
 30 31  1  0  0  0  0
 33 34  1  0  0  0  0
 33  6  1  0  0  0  0
 35 33  2  0  0  0  0
 36 35  1  0  0  0  0
 37  7  1  1  0  0  0
 37  6  1  0  0  0  0
 37  1  1  0  0  0  0
 38 40  1  0  0  0  0
 38  7  1  0  0  0  0
 39 38  1  0  0  0  0
 41 38  1  0  0  0  0
M  END
$$$$
