CSD_code = XONWAA | q = 0 | S = 0 | Stoichiometry = C36H29ClP2PdS | MND = 4
 OpenBabel04212202123D

 70 76  0  0  0  0  0  0  0  0999 V2000
    5.9290    7.2098    3.7640 Pd  0  0  1  0  0  0  0  0  0  0  0  0
    5.3620    5.9543    5.6588 Cl  0  0  0  0  0  0  0  0  0  0  0  0
    5.2263    5.4892    2.1883 S   0  0  0  0  0  0  0  0  0  0  0  0
    4.5147    7.1789    1.4547 P   0  0  0  0  0  4  0  0  0  0  0  0
    6.5671    8.5514    5.4163 P   0  0  0  0  0  4  0  0  0  0  0  0
    5.9071    8.2768    1.1102 C   0  0  0  0  0  0  0  0  0  0  0  0
    6.7180    8.2927    2.2538 C   0  0  0  0  0  0  0  0  0  0  0  0
    7.9260    8.9766    2.1648 C   0  0  0  0  0  0  0  0  0  0  0  0
    8.2743    9.6292    0.9910 C   0  0  0  0  0  0  0  0  0  0  0  0
    7.4319    9.6256   -0.1111 C   0  0  0  0  0  0  0  0  0  0  0  0
    6.2333    8.9359   -0.0649 C   0  0  0  0  0  0  0  0  0  0  0  0
    3.4379    8.1391    2.5886 C   0  0  0  0  0  0  0  0  0  0  0  0
    3.0563    7.6003    3.8202 C   0  0  0  0  0  0  0  0  0  0  0  0
    2.3712    8.3949    4.7258 C   0  0  0  0  0  0  0  0  0  0  0  0
    2.0590    9.7072    4.4020 C   0  0  0  0  0  0  0  0  0  0  0  0
    2.4135   10.2296    3.1681 C   0  0  0  0  0  0  0  0  0  0  0  0
    3.1110    9.4514    2.2598 C   0  0  0  0  0  0  0  0  0  0  0  0
    3.5640    6.8832   -0.0606 C   0  0  0  0  0  0  0  0  0  0  0  0
    4.2531    6.3335   -1.1365 C   0  0  0  0  0  0  0  0  0  0  0  0
    3.5811    6.0502   -2.3100 C   0  0  0  0  0  0  0  0  0  0  0  0
    2.2218    6.3075   -2.4057 C   0  0  0  0  0  0  0  0  0  0  0  0
    1.5339    6.8431   -1.3290 C   0  0  0  0  0  0  0  0  0  0  0  0
    2.2013    7.1317   -0.1516 C   0  0  0  0  0  0  0  0  0  0  0  0
    5.5229    8.8684    6.8691 C   0  0  0  0  0  0  0  0  0  0  0  0
    4.6081    9.9169    6.8481 C   0  0  0  0  0  0  0  0  0  0  0  0
    3.7684   10.1260    7.9273 C   0  0  0  0  0  0  0  0  0  0  0  0
    3.8340    9.2934    9.0318 C   0  0  0  0  0  0  0  0  0  0  0  0
    4.7427    8.2476    9.0548 C   0  0  0  0  0  0  0  0  0  0  0  0
    5.5829    8.0300    7.9791 C   0  0  0  0  0  0  0  0  0  0  0  0
    6.9855   10.2602    4.9137 C   0  0  0  0  0  0  0  0  0  0  0  0
    6.1157   10.8482    3.9984 C   0  0  0  0  0  0  0  0  0  0  0  0
    6.3356   12.1349    3.5481 C   0  0  0  0  0  0  0  0  0  0  0  0
    7.4382   12.8427    4.0006 C   0  0  0  0  0  0  0  0  0  0  0  0
    8.3126   12.2595    4.9013 C   0  0  0  0  0  0  0  0  0  0  0  0
    8.0895   10.9721    5.3605 C   0  0  0  0  0  0  0  0  0  0  0  0
    8.1124    7.8402    6.0397 C   0  0  0  0  0  0  0  0  0  0  0  0
    8.7095    6.8430    5.2689 C   0  0  0  0  0  0  0  0  0  0  0  0
    9.9022    6.2749    5.6778 C   0  0  0  0  0  0  0  0  0  0  0  0
   10.5043    6.6979    6.8525 C   0  0  0  0  0  0  0  0  0  0  0  0
    9.9097    7.6827    7.6250 C   0  0  0  0  0  0  0  0  0  0  0  0
    8.7151    8.2542    7.2245 C   0  0  0  0  0  0  0  0  0  0  0  0
    8.6062    9.0063    3.0107 H   0  0  0  0  0  0  0  0  0  0  0  0
    9.2190   10.1520    0.9351 H   0  0  0  0  0  0  0  0  0  0  0  0
    7.7173   10.1494   -1.0120 H   0  0  0  0  0  0  0  0  0  0  0  0
    5.5706    8.9041   -0.9202 H   0  0  0  0  0  0  0  0  0  0  0  0
    3.2581    6.5532    4.0496 H   0  0  0  0  0  0  0  0  0  0  0  0
    2.0887    7.9883    5.6853 H   0  0  0  0  0  0  0  0  0  0  0  0
    1.5325   10.3246    5.1147 H   0  0  0  0  0  0  0  0  0  0  0  0
    2.1596   11.2494    2.9171 H   0  0  0  0  0  0  0  0  0  0  0  0
    3.4129    9.8522    1.3002 H   0  0  0  0  0  0  0  0  0  0  0  0
    5.3114    6.1283   -1.0352 H   0  0  0  0  0  0  0  0  0  0  0  0
    4.1129    5.6261   -3.1489 H   0  0  0  0  0  0  0  0  0  0  0  0
    1.6957    6.0836   -3.3219 H   0  0  0  0  0  0  0  0  0  0  0  0
    0.4734    7.0333   -1.4055 H   0  0  0  0  0  0  0  0  0  0  0  0
    1.6713    7.5456    0.6956 H   0  0  0  0  0  0  0  0  0  0  0  0
    4.5530   10.5684    5.9869 H   0  0  0  0  0  0  0  0  0  0  0  0
    3.0596   10.9413    7.9046 H   0  0  0  0  0  0  0  0  0  0  0  0
    3.1751    9.4567    9.8721 H   0  0  0  0  0  0  0  0  0  0  0  0
    4.7917    7.5923    9.9118 H   0  0  0  0  0  0  0  0  0  0  0  0
    6.2700    7.1974    7.9848 H   0  0  0  0  0  0  0  0  0  0  0  0
    5.2721   10.2690    3.6334 H   0  0  0  0  0  0  0  0  0  0  0  0
    5.6565   12.5834    2.8377 H   0  0  0  0  0  0  0  0  0  0  0  0
    7.6198   13.8460    3.6444 H   0  0  0  0  0  0  0  0  0  0  0  0
    9.1769   12.8081    5.2467 H   0  0  0  0  0  0  0  0  0  0  0  0
    8.7837   10.5191    6.0534 H   0  0  0  0  0  0  0  0  0  0  0  0
    8.2155    6.4947    4.3473 H   0  0  0  0  0  0  0  0  0  0  0  0
   10.3609    5.4970    5.0856 H   0  0  0  0  0  0  0  0  0  0  0  0
   11.4344    6.2520    7.1725 H   0  0  0  0  0  0  0  0  0  0  0  0
   10.3759    8.0027    8.5457 H   0  0  0  0  0  0  0  0  0  0  0  0
    8.2377    9.0085    7.8363 H   0  0  0  0  0  0  0  0  0  0  0  0
  1  5  1  0  0  0  0
  1  2  1  1  0  0  0
  3  1  1  0  0  0  0
  4  3  1  0  0  0  0
  4 12  1  0  0  0  0
  5 36  1  0  0  0  0
  5 24  1  0  0  0  0
  6  4  1  0  0  0  0
  6  7  1  0  0  0  0
  7  1  1  0  0  0  0
  8  7  2  0  0  0  0
  8 42  1  0  0  0  0
  9  8  1  0  0  0  0
 10 11  1  0  0  0  0
 10  9  2  0  0  0  0
 11  6  2  0  0  0  0
 12 13  1  0  0  0  0
 13 46  1  0  0  0  0
 13 14  2  0  0  0  0
 14 47  1  0  0  0  0
 15 14  1  0  0  0  0
 15 48  1  0  0  0  0
 16 15  2  0  0  0  0
 17 12  2  0  0  0  0
 17 16  1  0  0  0  0
 18  4  1  0  0  0  0
 19 51  1  0  0  0  0
 19 18  2  0  0  0  0
 20 19  1  0  0  0  0
 21 20  2  0  0  0  0
 21 22  1  0  0  0  0
 22 23  2  0  0  0  0
 23 18  1  0  0  0  0
 23 55  1  0  0  0  0
 24 29  1  0  0  0  0
 25 24  2  0  0  0  0
 25 26  1  0  0  0  0
 26 27  2  0  0  0  0
 27 28  1  0  0  0  0
 27 58  1  0  0  0  0
 28 59  1  0  0  0  0
 29 60  1  0  0  0  0
 29 28  2  0  0  0  0
 30 35  1  0  0  0  0
 30  5  1  0  0  0  0
 31 30  2  0  0  0  0
 32 31  1  0  0  0  0
 32 33  2  0  0  0  0
 33 34  1  0  0  0  0
 34 64  1  0  0  0  0
 34 35  2  0  0  0  0
 35 65  1  0  0  0  0
 36 41  1  0  0  0  0
 37 38  1  0  0  0  0
 37 36  2  0  0  0  0
 38 39  2  0  0  0  0
 39 68  1  0  0  0  0
 39 40  1  0  0  0  0
 40 69  1  0  0  0  0
 41 40  2  0  0  0  0
 41 70  1  0  0  0  0
 43  9  1  0  0  0  0
 44 10  1  0  0  0  0
 45 11  1  0  0  0  0
 49 16  1  0  0  0  0
 50 17  1  0  0  0  0
 52 20  1  0  0  0  0
 53 21  1  0  0  0  0
 54 22  1  0  0  0  0
 56 25  1  0  0  0  0
 57 26  1  0  0  0  0
 61 31  1  0  0  0  0
 62 32  1  0  0  0  0
 63 33  1  0  0  0  0
 66 37  1  0  0  0  0
 67 38  1  0  0  0  0
M  END
$$$$
