CSD_code = XOPCUA | q = 0 | S = 0 | Stoichiometry = C17H10BF7IIrN6O | MND = 6
 OpenBabel04212202123D

 44 49  0  0  1  0  0  0  0  0999 V2000
    2.6271   12.4746    8.4525 Ir  0  0  0  0  0  0  0  0  0  0  0  0
    0.8741   12.8716   10.4512 I   0  0  0  0  0  0  0  0  0  0  0  0
    3.3939   14.9207    7.2549 F   0  0  0  0  0  0  0  0  0  0  0  0
    1.8559   13.9575    6.1072 F   0  0  0  0  0  0  0  0  0  0  0  0
    2.6899   16.8177    8.7649 F   0  0  0  0  0  0  0  0  0  0  0  0
    0.7228   18.3766    9.6778 F   0  0  0  0  0  0  0  0  0  0  0  0
   -1.8894   17.6688    9.3297 F   0  0  0  0  0  0  0  0  0  0  0  0
   -2.4934   15.3370    8.0394 F   0  0  0  0  0  0  0  0  0  0  0  0
   -0.5097   13.7307    7.1572 F   0  0  0  0  0  0  0  0  0  0  0  0
    0.4844   10.9289    7.0083 O   0  0  0  0  0  1  0  0  0  0  0  0
    5.6587   11.5388    8.8919 B   0  0  2  0  0  0  0  0  0  0  0  0
    6.7847   11.2204    9.0370 H   0  0  0  0  0  0  0  0  0  0  0  0
    4.0767   12.0638    7.0164 N   0  0  0  0  0  0  0  0  0  0  0  0
    5.2974   11.6892    7.4071 N   0  0  2  0  0  0  0  0  0  0  0  0
    3.3686   10.6852    9.4167 N   0  0  0  0  0  0  0  0  0  0  0  0
    4.6907   10.4973    9.4769 N   0  0  2  0  0  0  0  0  0  0  0  0
    4.1141   13.4001    9.5311 N   0  0  0  0  0  0  0  0  0  0  0  0
    5.3434   12.8707    9.5722 N   0  0  1  0  0  0  0  0  0  0  0  0
    1.2828   11.5492    7.5211 C   0  0  0  0  0  2  0  0  0  0  0  0
    2.2015   14.2692    7.4095 C   0  0  0  0  0  0  0  0  0  0  0  0
    1.4318   16.4161    8.5791 C   0  0  0  0  0  0  0  0  0  0  0  0
    0.4136   17.2367    9.0592 C   0  0  0  0  0  0  0  0  0  0  0  0
   -0.9174   16.8782    8.8832 C   0  0  0  0  0  0  0  0  0  0  0  0
   -1.2238   15.6888    8.2265 C   0  0  0  0  0  0  0  0  0  0  0  0
   -0.1969   14.8781    7.7637 C   0  0  0  0  0  0  0  0  0  0  0  0
    1.1478   15.2177    7.9296 C   0  0  0  0  0  0  0  0  0  0  0  0
    6.0504   11.4397    6.3321 C   0  0  0  0  0  3  0  0  0  0  0  0
    7.0697   11.1278    6.4328 H   0  0  0  0  0  0  0  0  0  0  0  0
    5.2858   11.6574    5.2036 C   0  0  0  0  0  0  0  0  0  0  0  0
    5.5788   11.5522    4.1803 H   0  0  0  0  0  0  0  0  0  0  0  0
    4.0424   12.0461    5.6884 C   0  0  0  0  0  0  0  0  0  0  0  0
    3.1609   12.3064    5.1383 H   0  0  0  0  0  0  0  0  0  0  0  0
    4.9487    9.3465   10.1084 C   0  0  0  0  0  3  0  0  0  0  0  0
    5.9550    9.0149   10.2628 H   0  0  0  0  0  0  0  0  0  0  0  0
    3.7480    8.7689   10.4690 C   0  0  0  0  0  0  0  0  0  0  0  0
    3.5928    7.8473   10.9891 H   0  0  0  0  0  0  0  0  0  0  0  0
    2.7786    9.6550   10.0094 C   0  0  0  0  0  0  0  0  0  0  0  0
    1.7112    9.5925   10.0920 H   0  0  0  0  0  0  0  0  0  0  0  0
    6.1352   13.6327   10.3347 C   0  0  0  0  0  3  0  0  0  0  0  0
    7.1623   13.3743   10.4928 H   0  0  0  0  0  0  0  0  0  0  0  0
    5.3931   14.6938   10.8087 C   0  0  0  0  0  0  0  0  0  0  0  0
    5.7139   15.4912   11.4447 H   0  0  0  0  0  0  0  0  0  0  0  0
    4.1237   14.4994   10.2772 C   0  0  0  0  0  0  0  0  0  0  0  0
    3.2462   15.0947   10.4257 H   0  0  0  0  0  0  0  0  0  0  0  0
  1 15  1  0  0  0  0
  1 17  1  0  0  0  0
  1  2  1  0  0  0  0
  3 20  1  0  0  0  0
  4 20  1  0  0  0  0
  8 24  1  0  0  0  0
  9 25  1  0  0  0  0
 10 19  1  0  0  0  0
 11 12  1  1  0  0  0
 11 16  1  0  0  0  0
 11 18  1  0  0  0  0
 13 14  1  0  0  0  0
 13  1  1  0  0  0  0
 14 27  1  6  0  0  0
 14 11  1  0  0  0  0
 15 16  1  0  0  0  0
 15 37  1  0  0  0  0
 16 33  1  1  0  0  0
 17 18  1  0  0  0  0
 17 43  1  0  0  0  0
 18 39  1  1  0  0  0
 19  1  1  0  0  0  0
 20 26  1  0  0  0  0
 20  1  1  0  0  0  0
 21  5  1  0  0  0  0
 21 22  1  0  0  0  0
 22  6  1  0  0  0  0
 23 22  2  0  0  0  0
 23  7  1  0  0  0  0
 24 23  1  0  0  0  0
 25 26  1  0  0  0  0
 25 24  2  0  0  0  0
 26 21  2  0  0  0  0
 27 28  1  0  0  0  0
 29 31  2  0  0  0  0
 29 27  1  0  0  0  0
 30 29  1  0  0  0  0
 31 13  1  0  0  0  0
 32 31  1  0  0  0  0
 33 34  1  0  0  0  0
 33 35  1  0  0  0  0
 35 36  1  0  0  0  0
 37 38  1  0  0  0  0
 37 35  2  0  0  0  0
 39 40  1  0  0  0  0
 39 41  1  0  0  0  0
 41 42  1  0  0  0  0
 43 44  1  0  0  0  0
 43 41  2  0  0  0  0
M  END
$$$$
