CSD_code = XOPFUD | q = 0 | S = 0 | Stoichiometry = C18H22Cl2N6O2S2Zn | MND = 4
 OpenBabel04212202123D

 53 54  0  0  0  0  0  0  0  0999 V2000
   11.7908   22.1528    5.4554 Zn  0  0  0  0  0  0  0  0  0  0  0  0
    9.7648   22.6286    6.9488 S   0  0  0  0  0  0  0  0  0  0  0  0
    8.6467   25.7374    4.8510 N   0  0  0  0  0  0  0  0  0  0  0  0
    6.3450   30.6713    1.5585 O   0  0  0  0  0  0  0  0  0  0  0  0
    9.1313   26.4136    3.8802 C   0  0  0  0  0  0  0  0  0  0  0  0
   10.1093   26.1671    3.4603 H   0  0  0  0  0  0  0  0  0  0  0  0
    8.3288   29.2539    1.6046 C   0  0  0  0  0  0  0  0  0  0  0  0
    8.7965   29.7552    0.7720 H   0  0  0  0  0  0  0  0  0  0  0  0
    7.7415   24.2763    6.8408 N   0  0  0  0  0  4  0  0  0  0  0  0
    7.2564   25.0703    6.4525 H   0  0  0  0  0  0  0  0  0  0  0  0
    7.3558   23.7236    7.5842 H   0  0  0  0  0  0  0  0  0  0  0  0
    9.3948   24.7093    5.3232 N   0  0  0  0  0  0  0  0  0  0  0  0
   10.3218   24.5163    4.8935 H   0  0  0  0  0  0  0  0  0  0  0  0
    8.4204   27.5172    3.2863 C   0  0  0  0  0  0  0  0  0  0  0  0
    7.1650   27.9295    3.7511 C   0  0  0  0  0  0  0  0  0  0  0  0
    6.7232   27.4077    4.5848 H   0  0  0  0  0  0  0  0  0  0  0  0
    8.9847   28.1996    2.2084 C   0  0  0  0  0  0  0  0  0  0  0  0
    9.9523   27.8955    1.8371 H   0  0  0  0  0  0  0  0  0  0  0  0
    8.9292   23.9542    6.3176 C   0  0  0  0  0  0  0  0  0  0  0  0
    7.0796   29.6551    2.0726 C   0  0  0  0  0  0  0  0  0  0  0  0
    6.5079   28.9778    3.1569 C   0  0  0  0  0  0  0  0  0  0  0  0
    5.5409   29.3040    3.5058 H   0  0  0  0  0  0  0  0  0  0  0  0
    6.8563   31.3934    0.4628 C   0  0  0  0  0  0  0  0  0  0  0  0
    6.1033   32.1438    0.2279 H   0  0  0  0  0  0  0  0  0  0  0  0
    7.0071   30.7477   -0.4080 H   0  0  0  0  0  0  0  0  0  0  0  0
    7.7974   31.8921    0.7147 H   0  0  0  0  0  0  0  0  0  0  0  0
   11.4625   20.3375    4.1339 Cl  0  0  0  0  0  0  0  0  0  0  0  0
   13.8171   21.6774    6.9487 S   0  0  0  0  0  0  0  0  0  0  0  0
   14.6528   20.3519    6.3174 C   0  0  0  0  0  0  0  0  0  0  0  0
   15.8405   20.0300    6.8405 N   0  0  0  0  0  4  0  0  0  0  0  0
   16.3257   19.2360    6.4522 H   0  0  0  0  0  0  0  0  0  0  0  0
   16.2263   20.5828    7.5839 H   0  0  0  0  0  0  0  0  0  0  0  0
   14.1871   19.5967    5.3231 N   0  0  0  0  0  0  0  0  0  0  0  0
   14.9353   18.5686    4.8509 N   0  0  0  0  0  0  0  0  0  0  0  0
   14.4506   17.8923    3.8802 C   0  0  0  0  0  0  0  0  0  0  0  0
   13.4726   18.1387    3.4603 H   0  0  0  0  0  0  0  0  0  0  0  0
   15.1616   16.7888    3.2863 C   0  0  0  0  0  0  0  0  0  0  0  0
   16.4170   16.3765    3.7512 C   0  0  0  0  0  0  0  0  0  0  0  0
   16.8587   16.8982    4.5848 H   0  0  0  0  0  0  0  0  0  0  0  0
   17.0741   15.3282    3.1569 C   0  0  0  0  0  0  0  0  0  0  0  0
   16.5025   14.6509    2.0726 C   0  0  0  0  0  0  0  0  0  0  0  0
   17.2371   13.6347    1.5585 O   0  0  0  0  0  0  0  0  0  0  0  0
   16.7258   12.9127    0.4627 C   0  0  0  0  0  0  0  0  0  0  0  0
   17.4788   12.1623    0.2279 H   0  0  0  0  0  0  0  0  0  0  0  0
   16.5751   13.5584   -0.4080 H   0  0  0  0  0  0  0  0  0  0  0  0
   15.7847   12.4140    0.7146 H   0  0  0  0  0  0  0  0  0  0  0  0
   15.2533   15.0521    1.6045 C   0  0  0  0  0  0  0  0  0  0  0  0
   14.7856   14.5509    0.7719 H   0  0  0  0  0  0  0  0  0  0  0  0
   14.5974   16.1064    2.2083 C   0  0  0  0  0  0  0  0  0  0  0  0
   13.6297   16.4105    1.8370 H   0  0  0  0  0  0  0  0  0  0  0  0
   18.0412   15.0020    3.5058 H   0  0  0  0  0  0  0  0  0  0  0  0
   13.2600   19.7895    4.8936 H   0  0  0  0  0  0  0  0  0  0  0  0
   12.1190   23.9680    4.1336 Cl  0  0  0  0  0  0  0  0  0  0  0  0
  1 28  1  0  0  0  0
  1  2  1  0  0  0  0
  3 12  1  0  0  0  0
  4 20  1  0  0  0  0
  5  3  2  0  0  0  0
  6  5  1  0  0  0  0
  7 20  2  0  0  0  0
  7 17  1  0  0  0  0
  8  7  1  0  0  0  0
  9 11  1  0  0  0  0
 10  9  1  0  0  0  0
 12 19  1  0  0  0  0
 13 12  1  0  0  0  0
 14 15  1  0  0  0  0
 14  5  1  0  0  0  0
 15 16  1  0  0  0  0
 17 14  2  0  0  0  0
 18 17  1  0  0  0  0
 19  9  2  0  0  0  0
 19  2  1  0  0  0  0
 20 21  1  0  0  0  0
 21 22  1  0  0  0  0
 21 15  2  0  0  0  0
 23 26  1  0  0  0  0
 23  4  1  0  0  0  0
 24 23  1  0  0  0  0
 25 23  1  0  0  0  0
 27  1  1  0  0  0  0
 29 30  2  0  0  0  0
 29 28  1  0  0  0  0
 30 32  1  0  0  0  0
 31 30  1  0  0  0  0
 33 29  1  0  0  0  0
 34 33  1  0  0  0  0
 35 34  2  0  0  0  0
 36 35  1  0  0  0  0
 37 38  1  0  0  0  0
 37 35  1  0  0  0  0
 38 39  1  0  0  0  0
 40 51  1  0  0  0  0
 40 38  2  0  0  0  0
 41 40  1  0  0  0  0
 42 41  1  0  0  0  0
 43 46  1  0  0  0  0
 43 42  1  0  0  0  0
 44 43  1  0  0  0  0
 45 43  1  0  0  0  0
 47 41  2  0  0  0  0
 47 49  1  0  0  0  0
 48 47  1  0  0  0  0
 49 37  2  0  0  0  0
 50 49  1  0  0  0  0
 52 33  1  0  0  0  0
 53  1  1  0  0  0  0
M  END
$$$$
