CSD_code = XOPWUU | q = 0 | S = 0 | Stoichiometry = C6H18ClIrO3S3 | MND = 4
 OpenBabel04212202123D

 32 31  0  0  0  0  0  0  0  0999 V2000
    1.5772    8.8522    3.3390 Ir  0  0  0  0  0  0  0  0  0  0  0  0
    1.6649    7.2198    1.7488 Cl  0  0  0  0  0  0  0  0  0  0  0  0
    2.7226    7.4538    4.6329 S   0  0  0  0  0  0  0  0  0  0  0  0
    3.1512    7.9801    5.9319 O   0  0  0  0  0  1  0  0  0  0  0  0
    4.2418    6.8839    3.8055 C   0  0  0  0  0  0  0  0  0  0  0  0
    4.8449    7.7580    3.5886 H   0  0  0  0  0  0  0  0  0  0  0  0
    3.9535    6.3911    2.8849 H   0  0  0  0  0  0  0  0  0  0  0  0
    4.7760    6.2186    4.4731 H   0  0  0  0  0  0  0  0  0  0  0  0
    2.0125    5.8017    4.9428 C   0  0  0  0  0  0  0  0  0  0  0  0
    2.7323    5.1953    5.4788 H   0  0  0  0  0  0  0  0  0  0  0  0
    1.7672    5.3759    3.9773 H   0  0  0  0  0  0  0  0  0  0  0  0
    1.1155    5.9302    5.5374 H   0  0  0  0  0  0  0  0  0  0  0  0
    1.3138   10.4494    4.9009 S   0  0  0  0  0  0  0  0  0  0  0  0
    0.1575   11.2924    4.5877 O   0  0  0  0  0  1  0  0  0  0  0  0
    2.7567   11.5449    5.0317 C   0  0  0  0  0  0  0  0  0  0  0  0
    2.9526   11.9138    4.0301 H   0  0  0  0  0  0  0  0  0  0  0  0
    3.5837   10.9487    5.3978 H   0  0  0  0  0  0  0  0  0  0  0  0
    2.5326   12.3687    5.6982 H   0  0  0  0  0  0  0  0  0  0  0  0
    1.1350   10.0659    6.6786 C   0  0  0  0  0  0  0  0  0  0  0  0
    1.0911   10.9995    7.2258 H   0  0  0  0  0  0  0  0  0  0  0  0
    1.9750    9.4555    6.9851 H   0  0  0  0  0  0  0  0  0  0  0  0
    0.2047    9.5226    6.8010 H   0  0  0  0  0  0  0  0  0  0  0  0
    0.9330   10.3804    1.7995 S   0  0  0  0  0  0  0  0  0  0  0  0
    1.8021   11.5426    1.9528 O   0  0  0  0  0  1  0  0  0  0  0  0
    1.0666    9.8933    0.0438 C   0  0  0  0  0  0  0  0  0  0  0  0
    0.8629   10.7620   -0.5710 H   0  0  0  0  0  0  0  0  0  0  0  0
    0.3648    9.0911   -0.1469 H   0  0  0  0  0  0  0  0  0  0  0  0
    2.0768    9.5394   -0.1274 H   0  0  0  0  0  0  0  0  0  0  0  0
   -0.7784   10.9977    1.7231 C   0  0  0  0  0  0  0  0  0  0  0  0
   -1.0121   11.3884    2.7074 H   0  0  0  0  0  0  0  0  0  0  0  0
   -1.4246   10.1651    1.4741 H   0  0  0  0  0  0  0  0  0  0  0  0
   -0.8351   11.7838    0.9803 H   0  0  0  0  0  0  0  0  0  0  0  0
  1  3  1  0  0  0  0
  1 13  1  0  0  0  0
  2  1  1  0  0  0  0
  3  9  1  0  0  0  0
  3  4  1  0  0  0  0
  5  8  1  0  0  0  0
  5  3  1  0  0  0  0
  6  5  1  0  0  0  0
  7  5  1  0  0  0  0
  9 10  1  0  0  0  0
  9 12  1  0  0  0  0
 11  9  1  0  0  0  0
 13 15  1  0  0  0  0
 13 19  1  0  0  0  0
 14 13  1  0  0  0  0
 15 17  1  0  0  0  0
 15 18  1  0  0  0  0
 16 15  1  0  0  0  0
 19 22  1  0  0  0  0
 19 21  1  0  0  0  0
 19 20  1  0  0  0  0
 23 24  1  0  0  0  0
 23  1  1  0  0  0  0
 25 23  1  0  0  0  0
 26 25  1  0  0  0  0
 27 25  1  0  0  0  0
 28 25  1  0  0  0  0
 29 23  1  0  0  0  0
 29 30  1  0  0  0  0
 31 29  1  0  0  0  0
 32 29  1  0  0  0  0
M  END
$$$$
