CSD_code = XOQBOV | q = 0 | S = 0 | Stoichiometry = C28H24Cl2N4Pd | MND = 4
 OpenBabel04212202123D

 59 64  0  0  1  0  0  0  0  0999 V2000
   -3.3016    7.9617   -5.1816 Pd  0  0  0  0  0  0  0  0  0  0  0  0
   -1.8825    6.6440   -4.0742 Cl  0  0  0  0  0  0  0  0  0  0  0  0
   -4.3903    8.4943   -3.3090 Cl  0  0  0  0  0  0  0  0  0  0  0  0
   -5.8190    9.9816   -7.8446 N   0  0  0  0  0  0  0  0  0  0  0  0
   -4.5280    9.2265   -6.2041 N   0  0  0  0  0  0  0  0  0  0  0  0
   -2.3833    7.4255   -6.9198 N   0  0  0  0  0  0  0  0  0  0  0  0
   -1.5134    7.6369   -8.9513 N   0  0  0  0  0  0  0  0  0  0  0  0
   -4.5988   10.5860   -6.0824 C   0  0  0  0  0  0  0  0  0  0  0  0
   -4.0484   11.4345   -5.1290 C   0  0  0  0  0  0  0  0  0  0  0  0
   -3.4706   11.0240   -4.3118 H   0  0  0  0  0  0  0  0  0  0  0  0
   -4.3135   12.7800   -5.2627 C   0  0  0  0  0  0  0  0  0  0  0  0
   -3.9158   13.4757   -4.5400 H   0  0  0  0  0  0  0  0  0  0  0  0
   -5.0934   13.2726   -6.3128 C   0  0  0  0  0  0  0  0  0  0  0  0
   -5.2690   14.3358   -6.3797 H   0  0  0  0  0  0  0  0  0  0  0  0
   -5.6584   12.4393   -7.2574 C   0  0  0  0  0  0  0  0  0  0  0  0
   -6.2713   12.8297   -8.0555 H   0  0  0  0  0  0  0  0  0  0  0  0
   -5.4092   11.0812   -7.1242 C   0  0  0  0  0  0  0  0  0  0  0  0
   -5.2655    8.8887   -7.2397 C   0  0  1  0  0  3  0  0  0  0  0  0
   -5.4558    7.4944   -7.6223 C   0  0  0  0  0  0  0  0  0  0  0  0
   -5.3926    7.0714   -8.9481 C   0  0  0  0  0  0  0  0  0  0  0  0
   -5.1946    7.7859   -9.7346 H   0  0  0  0  0  0  0  0  0  0  0  0
   -5.5440    5.7314   -9.2574 C   0  0  0  0  0  0  0  0  0  0  0  0
   -5.4840    5.4098  -10.2865 H   0  0  0  0  0  0  0  0  0  0  0  0
   -5.7669    4.8065   -8.2523 C   0  0  0  0  0  0  0  0  0  0  0  0
   -5.8910    3.7633   -8.4997 H   0  0  0  0  0  0  0  0  0  0  0  0
   -5.8209    5.2182   -6.9294 C   0  0  0  0  0  0  0  0  0  0  0  0
   -5.9927    4.4959   -6.1460 H   0  0  0  0  0  0  0  0  0  0  0  0
   -5.6533    6.5525   -6.6036 C   0  0  0  0  0  0  0  0  0  0  0  0
   -5.7235    6.8774   -5.5639 H   0  0  0  0  0  0  0  0  0  0  0  0
   -6.7631   10.0080   -8.9264 C   0  0  0  0  0  0  0  0  0  0  0  0
   -7.5504   10.7285   -8.7003 H   0  0  0  0  0  0  0  0  0  0  0  0
   -7.2093    9.0226   -9.0485 H   0  0  0  0  0  0  0  0  0  0  0  0
   -6.2788   10.3033   -9.8615 H   0  0  0  0  0  0  0  0  0  0  0  0
   -2.3670    6.1853   -7.4940 C   0  0  0  0  0  0  0  0  0  0  0  0
   -2.7492    4.9510   -6.9818 C   0  0  0  0  0  0  0  0  0  0  0  0
   -3.1161    4.8792   -5.9668 H   0  0  0  0  0  0  0  0  0  0  0  0
   -2.5946    3.8576   -7.8061 C   0  0  0  0  0  0  0  0  0  0  0  0
   -2.8675    2.8773   -7.4471 H   0  0  0  0  0  0  0  0  0  0  0  0
   -2.0855    3.9826   -9.1016 C   0  0  0  0  0  0  0  0  0  0  0  0
   -1.9886    3.0980   -9.7132 H   0  0  0  0  0  0  0  0  0  0  0  0
   -1.6880    5.2002   -9.6169 C   0  0  0  0  0  0  0  0  0  0  0  0
   -1.2826    5.2823  -10.6139 H   0  0  0  0  0  0  0  0  0  0  0  0
   -1.8253    6.3055   -8.7899 C   0  0  0  0  0  0  0  0  0  0  0  0
   -1.8624    8.2646   -7.7889 C   0  0  2  0  0  3  0  0  0  0  0  0
   -1.6751    9.6761   -7.4746 C   0  0  0  0  0  0  0  0  0  0  0  0
   -1.2211   10.0118   -6.1920 C   0  0  0  0  0  0  0  0  0  0  0  0
   -0.9608    9.2258   -5.4805 H   0  0  0  0  0  0  0  0  0  0  0  0
   -1.0457   11.3423   -5.8552 C   0  0  0  0  0  0  0  0  0  0  0  0
   -0.6768   11.5994   -4.8740 H   0  0  0  0  0  0  0  0  0  0  0  0
   -1.3419   12.3426   -6.7685 C   0  0  0  0  0  0  0  0  0  0  0  0
   -1.2089   13.3789   -6.4981 H   0  0  0  0  0  0  0  0  0  0  0  0
   -1.8171   12.0139   -8.0262 C   0  0  0  0  0  0  0  0  0  0  0  0
   -2.0644   12.7923   -8.7325 H   0  0  0  0  0  0  0  0  0  0  0  0
   -1.9807   10.6873   -8.3828 C   0  0  0  0  0  0  0  0  0  0  0  0
   -2.3752   10.4375   -9.3576 H   0  0  0  0  0  0  0  0  0  0  0  0
   -0.8201    8.1923  -10.0798 C   0  0  0  0  0  0  0  0  0  0  0  0
   -0.3361    9.1242   -9.7914 H   0  0  0  0  0  0  0  0  0  0  0  0
   -1.5088    8.3847  -10.9074 H   0  0  0  0  0  0  0  0  0  0  0  0
   -0.0597    7.4871  -10.4175 H   0  0  0  0  0  0  0  0  0  0  0  0
  1  2  1  0  0  0  0
  1  3  1  0  0  0  0
  4 18  1  0  0  0  0
  4 17  1  0  0  0  0
  5  8  1  0  0  0  0
  5  1  1  0  0  0  0
  6  1  1  0  0  0  0
  7 43  1  0  0  0  0
  7 44  1  0  0  0  0
  8  9  1  0  0  0  0
  9 10  1  0  0  0  0
 11  9  2  0  0  0  0
 11 12  1  0  0  0  0
 13 11  1  0  0  0  0
 14 13  1  0  0  0  0
 15 17  1  0  0  0  0
 15 13  2  0  0  0  0
 16 15  1  0  0  0  0
 17  8  2  0  0  0  0
 18 19  1  1  0  0  0
 18  5  1  0  0  0  0
 19 28  1  0  0  0  0
 20 19  2  0  0  0  0
 21 20  1  0  0  0  0
 22 20  1  0  0  0  0
 22 24  2  0  0  0  0
 23 22  1  0  0  0  0
 24 26  1  0  0  0  0
 25 24  1  0  0  0  0
 26 28  2  0  0  0  0
 26 27  1  0  0  0  0
 28 29  1  0  0  0  0
 30 31  1  0  0  0  0
 30  4  1  0  0  0  0
 32 30  1  0  0  0  0
 33 30  1  0  0  0  0
 34 35  1  0  0  0  0
 34  6  1  0  0  0  0
 35 36  1  0  0  0  0
 37 38  1  0  0  0  0
 37 35  2  0  0  0  0
 39 37  1  0  0  0  0
 40 39  1  0  0  0  0
 41 39  2  0  0  0  0
 41 43  1  0  0  0  0
 42 41  1  0  0  0  0
 43 34  2  0  0  0  0
 44 45  1  1  0  0  0
 44  6  1  0  0  0  0
 45 46  1  0  0  0  0
 46 48  2  0  0  0  0
 46 47  1  0  0  0  0
 48 49  1  0  0  0  0
 50 51  1  0  0  0  0
 50 48  1  0  0  0  0
 52 50  2  0  0  0  0
 53 52  1  0  0  0  0
 54 52  1  0  0  0  0
 54 45  2  0  0  0  0
 55 54  1  0  0  0  0
 56 57  1  0  0  0  0
 56  7  1  0  0  0  0
 58 56  1  0  0  0  0
 59 56  1  0  0  0  0
M  END
$$$$
