CSD_code = XOQGUG | q = 0 | S = 0 | Stoichiometry = C16H22Cl4N6Pt | MND = 6
 OpenBabel04212202123D

 49 50  0  0  1  0  0  0  0  0999 V2000
    3.5733    4.1191    8.6049 Pt  0  0  0  0  0  0  0  0  0  0  0  0
    4.2427    6.0906    9.7451 Cl  0  0  0  0  0  0  0  0  0  0  0  0
    1.3283    4.8692    8.5032 Cl  0  0  0  0  0  0  0  0  0  0  0  0
    3.8279    5.1834    6.9122 N   0  0  0  0  0  0  0  0  0  0  0  0
    3.3768    6.1149    6.9755 H   0  0  0  0  0  0  0  0  0  0  0  0
    4.3183    5.9097    4.7733 N   0  0  0  0  0  0  0  0  0  0  0  0
    4.7673    5.6586    3.9031 H   0  0  0  0  0  0  0  0  0  0  0  0
    3.1313    7.5580    5.9166 N   0  0  0  0  0  0  0  0  0  0  0  0
    4.3674    4.9775    5.7704 C   0  0  1  0  0  3  0  0  0  0  0  0
    5.1279    3.7375    5.4126 C   0  0  0  0  0  0  0  0  0  0  0  0
    4.7953    3.3824    4.4340 H   0  0  0  0  0  0  0  0  0  0  0  0
    4.9215    2.9631    6.1510 H   0  0  0  0  0  0  0  0  0  0  0  0
    6.6325    4.0199    5.3919 C   0  0  0  0  0  0  0  0  0  0  0  0
    6.8872    4.8191    4.6974 H   0  0  0  0  0  0  0  0  0  0  0  0
    7.1651    3.1204    5.0968 H   0  0  0  0  0  0  0  0  0  0  0  0
    6.9633    4.2989    6.3884 H   0  0  0  0  0  0  0  0  0  0  0  0
    3.7228    7.1615    4.7978 C   0  0  0  0  0  0  0  0  0  0  0  0
    3.7621    7.9620    3.6513 C   0  0  0  0  0  0  0  0  0  0  0  0
    4.2508    7.6138    2.7538 H   0  0  0  0  0  0  0  0  0  0  0  0
    3.1590    9.2031    3.7021 C   0  0  0  0  0  0  0  0  0  0  0  0
    3.1698    9.8468    2.8348 H   0  0  0  0  0  0  0  0  0  0  0  0
    2.5400    9.6124    4.8772 C   0  0  0  0  0  0  0  0  0  0  0  0
    2.0607   10.5750    4.9482 H   0  0  0  0  0  0  0  0  0  0  0  0
    2.5563    8.7472    5.9565 C   0  0  0  0  0  0  0  0  0  0  0  0
    2.0952    8.9979    6.9013 H   0  0  0  0  0  0  0  0  0  0  0  0
    2.9040    2.1476    7.4648 Cl  0  0  0  0  0  0  0  0  0  0  0  0
    5.8186    3.3699    8.7073 Cl  0  0  0  0  0  0  0  0  0  0  0  0
    3.3189    3.0552   10.2979 N   0  0  0  0  0  0  0  0  0  0  0  0
    3.7701    2.1237   10.2347 H   0  0  0  0  0  0  0  0  0  0  0  0
    2.8285    2.3290   12.4368 N   0  0  0  0  0  0  0  0  0  0  0  0
    2.3795    2.5801   13.3070 H   0  0  0  0  0  0  0  0  0  0  0  0
    4.0155    0.6806   11.2935 N   0  0  0  0  0  0  0  0  0  0  0  0
    2.7794    3.2612   11.4397 C   0  0  2  0  0  3  0  0  0  0  0  0
    2.0189    4.5012   11.7975 C   0  0  0  0  0  0  0  0  0  0  0  0
    2.3515    4.8563   12.7761 H   0  0  0  0  0  0  0  0  0  0  0  0
    2.2253    5.2756   11.0592 H   0  0  0  0  0  0  0  0  0  0  0  0
    0.5143    4.2188   11.8182 C   0  0  0  0  0  0  0  0  0  0  0  0
    0.2597    3.4195   12.5127 H   0  0  0  0  0  0  0  0  0  0  0  0
   -0.0183    5.1183   12.1133 H   0  0  0  0  0  0  0  0  0  0  0  0
    0.1835    3.9398   10.8217 H   0  0  0  0  0  0  0  0  0  0  0  0
    3.4240    1.0772   12.4124 C   0  0  0  0  0  0  0  0  0  0  0  0
    3.3847    0.2767   13.5588 C   0  0  0  0  0  0  0  0  0  0  0  0
    2.8960    0.6249   14.4564 H   0  0  0  0  0  0  0  0  0  0  0  0
    3.9878   -0.9644   13.5080 C   0  0  0  0  0  0  0  0  0  0  0  0
    3.9770   -1.6081   14.3753 H   0  0  0  0  0  0  0  0  0  0  0  0
    4.6068   -1.3738   12.3329 C   0  0  0  0  0  0  0  0  0  0  0  0
    5.0861   -2.3363   12.2619 H   0  0  0  0  0  0  0  0  0  0  0  0
    4.5905   -0.5085   11.2536 C   0  0  0  0  0  0  0  0  0  0  0  0
    5.0516   -0.7592   10.3089 H   0  0  0  0  0  0  0  0  0  0  0  0
  1 27  1  0  0  0  0
  1  2  1  0  0  0  0
  1 28  1  0  0  0  0
  3  1  1  0  0  0  0
  4  5  1  0  0  0  0
  4  1  1  0  0  0  0
  6 17  1  0  0  0  0
  7  6  1  0  0  0  0
  8 24  1  0  0  0  0
  9  6  1  1  0  0  0
  9  4  1  0  0  0  0
 10  9  1  0  0  0  0
 10 12  1  0  0  0  0
 11 10  1  0  0  0  0
 13 10  1  0  0  0  0
 13 16  1  0  0  0  0
 14 13  1  0  0  0  0
 15 13  1  0  0  0  0
 17  8  2  0  0  0  0
 18 20  2  0  0  0  0
 18 17  1  0  0  0  0
 19 18  1  0  0  0  0
 20 22  1  0  0  0  0
 21 20  1  0  0  0  0
 22 23  1  0  0  0  0
 22 24  2  0  0  0  0
 24 25  1  0  0  0  0
 26  1  1  0  0  0  0
 29 28  1  0  0  0  0
 30 31  1  0  0  0  0
 32 41  1  0  0  0  0
 33 28  1  6  0  0  0
 33 34  1  0  0  0  0
 33 30  1  0  0  0  0
 34 37  1  0  0  0  0
 34 35  1  0  0  0  0
 36 34  1  0  0  0  0
 37 39  1  0  0  0  0
 37 38  1  0  0  0  0
 40 37  1  0  0  0  0
 41 30  1  0  0  0  0
 41 42  2  0  0  0  0
 42 43  1  0  0  0  0
 44 42  1  0  0  0  0
 44 45  1  0  0  0  0
 46 44  2  0  0  0  0
 47 46  1  0  0  0  0
 48 32  2  0  0  0  0
 48 46  1  0  0  0  0
 49 48  1  0  0  0  0
M  END
$$$$
