CSD_code = XOQVIK | q = 0 | S = 0 | Stoichiometry = C30H24ClN3NiO2 | MND = 4
 OpenBabel04212202123D

 61 68  0  0  1  0  0  0  0  0999 V2000
    2.8913    1.9915   15.4181 Ni  0  0  1  0  0  0  0  0  0  0  0  0
    1.7994    3.7178   15.8964 Cl  0  0  0  0  0  0  0  0  0  0  0  0
    3.8743    2.1431   17.0220 N   0  0  0  0  0  0  0  0  0  0  0  0
    3.8898    0.4073   14.9806 N   0  0  0  0  0  0  0  0  0  0  0  0
    1.9319    1.8074   13.8027 N   0  0  0  0  0  0  0  0  0  0  0  0
    5.6020    1.9330   18.4126 O   0  0  0  0  0  0  0  0  0  0  0  0
    0.9903    0.7766   12.0667 O   0  0  0  0  0  0  0  0  0  0  0  0
    2.1453    1.9181   18.7840 C   0  0  0  0  0  0  0  0  0  0  0  0
    1.4541    1.0123   17.9921 C   0  0  0  0  0  0  0  0  0  0  0  0
    1.7779    0.8080   16.9644 H   0  0  0  0  0  0  0  0  0  0  0  0
    0.3330    0.3648   18.4812 C   0  0  0  0  0  0  0  0  0  0  0  0
   -0.1959   -0.3359   17.8520 H   0  0  0  0  0  0  0  0  0  0  0  0
   -0.1093    0.6151   19.7680 C   0  0  0  0  0  0  0  0  0  0  0  0
   -0.9841    0.1100   20.1495 H   0  0  0  0  0  0  0  0  0  0  0  0
    0.5695    1.5251   20.5611 C   0  0  0  0  0  0  0  0  0  0  0  0
    0.2234    1.7349   21.5624 H   0  0  0  0  0  0  0  0  0  0  0  0
    1.6878    2.1743   20.0718 C   0  0  0  0  0  0  0  0  0  0  0  0
    2.2053    2.8948   20.6892 H   0  0  0  0  0  0  0  0  0  0  0  0
    3.3666    2.6627   18.2857 C   0  0  1  0  0  0  0  0  0  0  0  0
    3.0831    3.7135   18.1458 H   0  0  0  0  0  0  0  0  0  0  0  0
    4.5911    2.5234   19.2215 C   0  0  0  0  0  0  0  0  0  0  0  0
    4.9594    3.4841   19.5908 H   0  0  0  0  0  0  0  0  0  0  0  0
    4.3962    1.8584   20.0683 H   0  0  0  0  0  0  0  0  0  0  0  0
    5.0849    1.7346   17.1924 C   0  0  0  0  0  0  0  0  0  0  0  0
    5.8866    1.0607   16.2065 C   0  0  0  0  0  0  0  0  0  0  0  0
    7.2764    1.0224   16.3428 C   0  0  0  0  0  0  0  0  0  0  0  0
    7.7237    1.5522   17.1698 H   0  0  0  0  0  0  0  0  0  0  0  0
    8.0528    0.3350   15.4401 C   0  0  0  0  0  0  0  0  0  0  0  0
    9.1265    0.3170   15.5431 H   0  0  0  0  0  0  0  0  0  0  0  0
    7.4371   -0.3346   14.3838 C   0  0  0  0  0  0  0  0  0  0  0  0
    8.0409   -0.8638   13.6608 H   0  0  0  0  0  0  0  0  0  0  0  0
    6.0714   -0.3237   14.2433 C   0  0  0  0  0  0  0  0  0  0  0  0
    5.6075   -0.8354   13.4122 H   0  0  0  0  0  0  0  0  0  0  0  0
    5.2444    0.3739   15.1467 C   0  0  2  0  0  3  0  0  0  0  0  0
    3.2528   -0.7007   14.5002 C   0  0  0  0  0  0  0  0  0  0  0  0
    3.6787   -1.9962   14.8562 C   0  0  0  0  0  0  0  0  0  0  0  0
    4.5260   -2.0942   15.5195 H   0  0  0  0  0  0  0  0  0  0  0  0
    3.0228   -3.1153   14.4057 C   0  0  0  0  0  0  0  0  0  0  0  0
    3.3655   -4.0919   14.7154 H   0  0  0  0  0  0  0  0  0  0  0  0
    1.9174   -3.0060   13.5636 C   0  0  0  0  0  0  0  0  0  0  0  0
    1.4114   -3.8917   13.2129 H   0  0  0  0  0  0  0  0  0  0  0  0
    1.4775   -1.7575   13.1920 C   0  0  0  0  0  3  0  0  0  0  0  0
    0.6233   -1.6402   12.5427 H   0  0  0  0  0  0  0  0  0  0  0  0
    2.1199   -0.6065   13.6546 C   0  0  0  0  0  0  0  0  0  0  0  0
    1.6831    0.6900   13.2104 C   0  0  0  0  0  0  0  0  0  0  0  0
    0.7629    2.1559   11.8008 C   0  0  0  0  0  0  0  0  0  0  0  0
   -0.3155    2.3240   11.7390 H   0  0  0  0  0  0  0  0  0  0  0  0
    1.2252    2.4018   10.8399 H   0  0  0  0  0  0  0  0  0  0  0  0
    1.4261    2.9017   12.9835 C   0  0  2  0  0  0  0  0  0  0  0  0
    0.6893    3.4673   13.5679 H   0  0  0  0  0  0  0  0  0  0  0  0
    2.5099    3.8670   12.5500 C   0  0  0  0  0  0  0  0  0  0  0  0
    3.7881    3.8380   13.0893 C   0  0  0  0  0  0  0  0  0  0  0  0
    4.0530    3.1032   13.8591 H   0  0  0  0  0  0  0  0  0  0  0  0
    4.7450    4.7488   12.6767 C   0  0  0  0  0  0  0  0  0  0  0  0
    5.7349    4.7147   13.1072 H   0  0  0  0  0  0  0  0  0  0  0  0
    4.4350    5.6986   11.7197 C   0  0  0  0  0  0  0  0  0  0  0  0
    5.1816    6.4091   11.3978 H   0  0  0  0  0  0  0  0  0  0  0  0
    3.1585    5.7402   11.1841 C   0  0  0  0  0  0  0  0  0  0  0  0
    2.9051    6.4865   10.4456 H   0  0  0  0  0  0  0  0  0  0  0  0
    2.2015    4.8323   11.5980 C   0  0  0  0  0  0  0  0  0  0  0  0
    1.2026    4.8786   11.1880 H   0  0  0  0  0  0  0  0  0  0  0  0
  1  2  1  1  0  0  0
  1  3  1  0  0  0  0
  3 24  1  0  0  0  0
  3 19  1  0  0  0  0
  4 34  1  0  0  0  0
  4  1  1  0  0  0  0
  5  1  1  0  0  0  0
  6 21  1  0  0  0  0
  7 45  1  0  0  0  0
  8 17  1  0  0  0  0
  9 11  1  0  0  0  0
  9  8  2  0  0  0  0
 10  9  1  0  0  0  0
 11 13  2  0  0  0  0
 12 11  1  0  0  0  0
 13 14  1  0  0  0  0
 13 15  1  0  0  0  0
 15 16  1  0  0  0  0
 17 15  2  0  0  0  0
 17 18  1  0  0  0  0
 19 20  1  6  0  0  0
 19  8  1  0  0  0  0
 19 21  1  0  0  0  0
 21 22  1  0  0  0  0
 21 23  1  0  0  0  0
 24  6  1  0  0  0  0
 25 26  1  0  0  0  0
 25 24  2  0  0  0  0
 26 27  1  0  0  0  0
 28 29  1  0  0  0  0
 28 26  2  0  0  0  0
 30 28  1  0  0  0  0
 31 30  1  0  0  0  0
 32 30  2  0  0  0  0
 33 32  1  0  0  0  0
 34 32  1  6  0  0  0
 34 25  1  0  0  0  0
 35 36  2  0  0  0  0
 35  4  1  0  0  0  0
 36 37  1  0  0  0  0
 38 39  1  0  0  0  0
 38 36  1  0  0  0  0
 40 38  2  0  0  0  0
 41 40  1  0  0  0  0
 42 40  1  0  0  0  0
 42 44  1  0  0  0  0
 43 42  1  0  0  0  0
 44 35  1  0  0  0  0
 45 44  2  0  0  0  0
 45  5  1  0  0  0  0
 46  7  1  0  0  0  0
 46 49  1  0  0  0  0
 47 46  1  0  0  0  0
 48 46  1  0  0  0  0
 49 50  1  1  0  0  0
 49  5  1  0  0  0  0
 51 49  1  0  0  0  0
 51 52  1  0  0  0  0
 52 53  1  0  0  0  0
 54 52  2  0  0  0  0
 54 55  1  0  0  0  0
 56 54  1  0  0  0  0
 57 56  1  0  0  0  0
 58 60  1  0  0  0  0
 58 56  2  0  0  0  0
 59 58  1  0  0  0  0
 60 51  2  0  0  0  0
 61 60  1  0  0  0  0
M  END
$$$$
