CSD_code = XOSYEK | q = 0 | S = 0 | Stoichiometry = C11H13Cl2N3Pd | MND = 4
 OpenBabel04212202123D

 30 32  0  0  1  0  0  0  0  0999 V2000
   -0.1452   11.1029    1.8576 Pd  0  0  0  0  0  0  0  0  0  0  0  0
    0.5270   13.1728    2.2436 Cl  0  0  0  0  0  0  0  0  0  0  0  0
   -0.7960   11.6561   -0.1903 Cl  0  0  0  0  0  0  0  0  0  0  0  0
    0.4518   10.4668    3.7293 N   0  0  2  0  0  0  0  0  0  0  0  0
    1.1776    9.3418    3.7727 N   0  0  0  0  0  0  0  0  0  0  0  0
   -0.6371    9.1598    1.5060 N   0  0  0  0  0  0  0  0  0  0  0  0
   -0.6067   12.0482    5.2683 C   0  0  0  0  0  0  0  0  0  0  0  0
    0.0454   12.8826    5.5227 H   0  0  0  0  0  0  0  0  0  0  0  0
   -1.2836   11.8668    6.1000 H   0  0  0  0  0  0  0  0  0  0  0  0
   -1.1728   12.3251    4.3737 H   0  0  0  0  0  0  0  0  0  0  0  0
    0.2018   10.8399    4.9743 C   0  0  1  0  0  3  0  0  0  0  0  0
    0.7949    9.9146    5.8483 C   0  0  0  0  0  0  0  0  0  0  0  0
    0.7785    9.9397    6.9183 H   0  0  0  0  0  0  0  0  0  0  0  0
    1.4031    8.9655    5.0523 C   0  0  0  0  0  0  0  0  0  0  0  0
    2.1733    7.7503    5.4191 C   0  0  0  0  0  0  0  0  0  0  0  0
    3.1851    7.7942    5.0164 H   0  0  0  0  0  0  0  0  0  0  0  0
    1.6881    6.8509    5.0394 H   0  0  0  0  0  0  0  0  0  0  0  0
    2.2367    7.6771    6.5006 H   0  0  0  0  0  0  0  0  0  0  0  0
    1.5028    8.6814    2.5311 C   0  0  0  0  0  0  0  0  0  0  0  0
    2.1852    7.8538    2.7242 H   0  0  0  0  0  0  0  0  0  0  0  0
    1.9901    9.4226    1.8653 H   0  0  0  0  0  0  0  0  0  0  0  0
    0.2270    8.2018    1.8691 C   0  0  1  0  0  3  0  0  0  0  0  0
   -0.0443    6.8590    1.6691 C   0  0  0  0  0  0  0  0  0  0  0  0
    0.6722    6.1104    1.9705 H   0  0  0  0  0  0  0  0  0  0  0  0
   -1.2389    6.4949    1.0632 C   0  0  0  0  0  0  0  0  0  0  0  0
   -1.4690    5.4554    0.8895 H   0  0  0  0  0  0  0  0  0  0  0  0
   -2.1232    7.4943    0.6869 C   0  0  0  0  0  0  0  0  0  0  0  0
   -3.0604    7.2567    0.2107 H   0  0  0  0  0  0  0  0  0  0  0  0
   -1.7860    8.8152    0.9268 C   0  0  0  0  0  0  0  0  0  0  0  0
   -2.4346    9.6325    0.6340 H   0  0  0  0  0  0  0  0  0  0  0  0
  1  2  1  0  0  0  0
  1  4  1  0  0  0  0
  3  1  1  0  0  0  0
  4  5  1  1  0  0  0
  4 11  1  0  0  0  0
  5 14  1  0  0  0  0
  6  1  1  0  0  0  0
  6 22  1  0  0  0  0
  7  8  1  0  0  0  0
  7  9  1  0  0  0  0
 10  7  1  0  0  0  0
 11  7  1  6  0  0  0
 11 12  1  0  0  0  0
 12 13  1  0  0  0  0
 14 15  1  0  0  0  0
 14 12  2  0  0  0  0
 15 18  1  0  0  0  0
 16 15  1  0  0  0  0
 17 15  1  0  0  0  0
 19 20  1  0  0  0  0
 19  5  1  0  0  0  0
 21 19  1  0  0  0  0
 22 23  1  1  0  0  0
 22 19  1  0  0  0  0
 23 24  1  0  0  0  0
 25 23  2  0  0  0  0
 26 25  1  0  0  0  0
 27 29  2  0  0  0  0
 27 25  1  0  0  0  0
 28 27  1  0  0  0  0
 29  6  1  0  0  0  0
 30 29  1  0  0  0  0
M  END
$$$$
