CSD_code = XOTBUE | q = 0 | S = 0 | Stoichiometry = C24H25AuCl3P | MND = 2
 OpenBabel04212202123D

 54 56  0  0  0  0  0  0  0  0999 V2000
    3.8176    3.2383   18.0485 Au  0  0  0  0  0  0  0  0  0  0  0  0
    3.1786    3.3175   15.8611 P   0  0  0  0  0  4  0  0  0  0  0  0
    4.4293    3.2818   20.2108 Cl  0  0  0  0  0  0  0  0  0  0  0  0
    1.3255    4.0128   15.7518 Cl  0  0  0  0  0  0  0  0  0  0  0  0
    4.2043    4.7591   14.9677 Cl  0  0  0  0  0  0  0  0  0  0  0  0
    3.4253   -0.1112   18.7643 C   0  0  0  0  0  0  0  0  0  0  0  0
    5.3866    0.6195   16.9393 C   0  0  0  0  0  0  0  0  0  0  0  0
    3.0632    0.1445   17.4517 C   0  0  0  0  0  0  0  0  0  0  0  0
    2.8651    2.0890   13.2924 C   0  0  0  0  0  0  0  0  0  0  0  0
    3.6928    0.7207   15.1181 C   0  0  0  0  0  0  0  0  0  0  0  0
    5.7117    0.3564   18.2597 C   0  0  0  0  0  0  0  0  0  0  0  0
    4.7441   -0.0097   19.1861 C   0  0  0  0  0  0  0  0  0  0  0  0
    2.6313    5.4070   11.5337 C   0  0  0  0  0  0  0  0  0  0  0  0
    3.8072   -0.3557   14.2462 C   0  0  0  0  0  0  0  0  0  0  0  0
    3.2293    1.9510   14.6404 C   0  0  0  0  0  0  0  0  0  0  0  0
    3.1677    4.2447   12.0695 C   0  0  0  0  0  0  0  0  0  0  0  0
    1.6320    0.0523   17.0116 C   0  0  0  0  0  0  0  0  0  0  0  0
    2.9922    0.9927   12.4483 C   0  0  0  0  0  0  0  0  0  0  0  0
    2.3216    3.3395   12.7118 C   0  0  0  0  0  0  0  0  0  0  0  0
    4.0525    0.5151   16.5372 C   0  0  0  0  0  0  0  0  0  0  0  0
    0.4390    4.7256   12.1715 C   0  0  0  0  0  0  0  0  0  0  0  0
    1.2728    5.6736   11.5947 C   0  0  0  0  0  0  0  0  0  0  0  0
    0.9403    3.5544   12.7163 C   0  0  0  0  0  0  0  0  0  0  0  0
    4.6329    3.9667   11.8995 C   0  0  0  0  0  0  0  0  0  0  0  0
    5.1068   -0.2298   20.6175 C   0  0  0  0  0  0  0  0  0  0  0  0
    3.4647   -0.2203   12.9148 C   0  0  0  0  0  0  0  0  0  0  0  0
    0.7072    6.9480   11.0477 C   0  0  0  0  0  0  0  0  0  0  0  0
   -0.0104    2.5185   13.2420 C   0  0  0  0  0  0  0  0  0  0  0  0
    0.4607    1.8591   13.9667 H   0  0  0  0  0  0  0  0  0  0  0  0
   -0.3646    1.9029   12.4137 H   0  0  0  0  0  0  0  0  0  0  0  0
   -0.8767    2.9887   13.7020 H   0  0  0  0  0  0  0  0  0  0  0  0
    6.4343    1.0389   15.9513 C   0  0  0  0  0  0  0  0  0  0  0  0
    2.6621   -0.3857   19.4781 H   0  0  0  0  0  0  0  0  0  0  0  0
    1.5301   -0.6149   16.1558 H   0  0  0  0  0  0  0  0  0  0  0  0
    6.7392    0.4504   18.5795 H   0  0  0  0  0  0  0  0  0  0  0  0
    5.0615    0.7308   21.1318 H   0  0  0  0  0  0  0  0  0  0  0  0
    4.1649   -1.2997   14.6304 H   0  0  0  0  0  0  0  0  0  0  0  0
    2.7107    1.1075   11.4120 H   0  0  0  0  0  0  0  0  0  0  0  0
    3.5587   -1.0592   12.2415 H   0  0  0  0  0  0  0  0  0  0  0  0
    3.2930    6.1132   11.0526 H   0  0  0  0  0  0  0  0  0  0  0  0
   -0.6277    4.8986   12.1909 H   0  0  0  0  0  0  0  0  0  0  0  0
    0.4829    7.6353   11.8638 H   0  0  0  0  0  0  0  0  0  0  0  0
    1.4134    7.4331   10.3787 H   0  0  0  0  0  0  0  0  0  0  0  0
    6.1176   -0.6190   20.7125 H   0  0  0  0  0  0  0  0  0  0  0  0
    6.5177    0.3129   15.1426 H   0  0  0  0  0  0  0  0  0  0  0  0
    1.2630    1.0360   16.7129 H   0  0  0  0  0  0  0  0  0  0  0  0
    1.0054   -0.3146   17.8200 H   0  0  0  0  0  0  0  0  0  0  0  0
    4.4099   -0.9097   21.1012 H   0  0  0  0  0  0  0  0  0  0  0  0
    4.9860    3.2032   12.5881 H   0  0  0  0  0  0  0  0  0  0  0  0
    4.8168    3.6138   10.8838 H   0  0  0  0  0  0  0  0  0  0  0  0
    7.4018    1.1331   16.4366 H   0  0  0  0  0  0  0  0  0  0  0  0
    5.2166    4.8732   12.0459 H   0  0  0  0  0  0  0  0  0  0  0  0
   -0.2186    6.7588   10.5081 H   0  0  0  0  0  0  0  0  0  0  0  0
    6.1752    2.0015   15.5068 H   0  0  0  0  0  0  0  0  0  0  0  0
  1  3  1  0  0  0  0
  2  1  1  0  0  0  0
  4  2  1  0  0  0  0
  5  2  1  0  0  0  0
  6 12  1  0  0  0  0
  6 33  1  0  0  0  0
  7 11  1  0  0  0  0
  8  6  2  0  0  0  0
  9 15  1  0  0  0  0
 10 20  1  0  0  0  0
 11 35  1  0  0  0  0
 11 12  2  0  0  0  0
 12 25  1  0  0  0  0
 13 22  2  0  0  0  0
 13 16  1  0  0  0  0
 14 37  1  0  0  0  0
 14 10  1  0  0  0  0
 15 10  2  0  0  0  0
 15  2  1  0  0  0  0
 16 19  2  0  0  0  0
 17  8  1  0  0  0  0
 17 47  1  0  0  0  0
 18 26  1  0  0  0  0
 18  9  2  0  0  0  0
 19 23  1  0  0  0  0
 19  9  1  0  0  0  0
 20  7  2  0  0  0  0
 20  8  1  0  0  0  0
 21 41  1  0  0  0  0
 21 23  2  0  0  0  0
 22 21  1  0  0  0  0
 23 28  1  0  0  0  0
 24 52  1  0  0  0  0
 24 16  1  0  0  0  0
 24 49  1  0  0  0  0
 25 44  1  0  0  0  0
 25 48  1  0  0  0  0
 25 36  1  0  0  0  0
 26 14  2  0  0  0  0
 27 22  1  0  0  0  0
 27 42  1  0  0  0  0
 28 31  1  0  0  0  0
 28 29  1  0  0  0  0
 30 28  1  0  0  0  0
 32 51  1  0  0  0  0
 32  7  1  0  0  0  0
 34 17  1  0  0  0  0
 38 18  1  0  0  0  0
 39 26  1  0  0  0  0
 40 13  1  0  0  0  0
 43 27  1  0  0  0  0
 45 32  1  0  0  0  0
 46 17  1  0  0  0  0
 50 24  1  0  0  0  0
 53 27  1  0  0  0  0
 54 32  1  0  0  0  0
M  END
$$$$
