CSD_code = XOTCIT | q = 0 | S = 0 | Stoichiometry = C26H31AuClP | MND = 2
 OpenBabel04212202123D

 60 62  0  0  0  0  0  0  0  0999 V2000
    7.0516    3.4002    5.4241 Au  0  0  0  0  0  0  0  0  0  0  0  0
    8.3834    5.2057    5.2462 P   0  0  0  0  0  4  0  0  0  0  0  0
    5.7085    1.5856    5.6516 Cl  0  0  0  0  0  0  0  0  0  0  0  0
    9.5763    6.6804    2.5281 C   0  0  0  0  0  0  0  0  0  0  0  0
    7.8149    6.7114    4.3750 C   0  0  0  0  0  0  0  0  0  0  0  0
    6.1433    8.4632    4.3009 C   0  0  0  0  0  0  0  0  0  0  0  0
    5.2340    8.8914    4.6964 H   0  0  0  0  0  0  0  0  0  0  0  0
    5.8328    6.6444    5.9309 C   0  0  0  0  0  0  0  0  0  0  0  0
    8.4347    7.2795    3.2563 C   0  0  0  0  0  0  0  0  0  0  0  0
    5.8847    7.1055    7.2475 C   0  0  0  0  0  0  0  0  0  0  0  0
    6.6303    7.2918    4.8628 C   0  0  0  0  0  0  0  0  0  0  0  0
   11.8809    6.7106    1.8599 C   0  0  0  0  0  0  0  0  0  0  0  0
   12.8691    7.1412    1.9407 H   0  0  0  0  0  0  0  0  0  0  0  0
    5.1436    6.4532    8.2241 C   0  0  0  0  0  0  0  0  0  0  0  0
    5.2067    6.7991    9.2468 H   0  0  0  0  0  0  0  0  0  0  0  0
    7.9256    8.4583    2.7173 C   0  0  0  0  0  0  0  0  0  0  0  0
    8.4210    8.8857    1.8574 H   0  0  0  0  0  0  0  0  0  0  0  0
   10.8492    7.2415    2.6214 C   0  0  0  0  0  0  0  0  0  0  0  0
   10.0428    4.7242    4.6548 C   0  0  0  0  0  0  0  0  0  0  0  0
   10.7434    5.5581    4.6714 H   0  0  0  0  0  0  0  0  0  0  0  0
   10.0053    4.2929    3.6584 H   0  0  0  0  0  0  0  0  0  0  0  0
   10.3783    3.9531    5.3518 H   0  0  0  0  0  0  0  0  0  0  0  0
    4.9410    5.6207    5.5841 C   0  0  0  0  0  0  0  0  0  0  0  0
    9.3394    5.6119    1.6576 C   0  0  0  0  0  0  0  0  0  0  0  0
    6.8009    9.0619    3.2428 C   0  0  0  0  0  0  0  0  0  0  0  0
    6.4231    9.9773    2.8125 H   0  0  0  0  0  0  0  0  0  0  0  0
    4.2135    4.9945    6.5836 C   0  0  0  0  0  0  0  0  0  0  0  0
    3.5499    4.1846    6.3205 H   0  0  0  0  0  0  0  0  0  0  0  0
    4.6950    5.2519    4.1506 C   0  0  0  0  0  0  0  0  0  0  0  0
    4.3746    4.2162    4.0731 H   0  0  0  0  0  0  0  0  0  0  0  0
    5.5790    5.3971    3.5336 H   0  0  0  0  0  0  0  0  0  0  0  0
    3.9021    5.8847    3.7475 H   0  0  0  0  0  0  0  0  0  0  0  0
   10.3900    5.1099    0.9071 C   0  0  0  0  0  0  0  0  0  0  0  0
   10.2113    4.2822    0.2354 H   0  0  0  0  0  0  0  0  0  0  0  0
    6.6909    8.3197    7.6159 C   0  0  0  0  0  0  0  0  0  0  0  0
    6.0409    9.1955    7.6224 H   0  0  0  0  0  0  0  0  0  0  0  0
    7.4899    8.5053    6.9018 H   0  0  0  0  0  0  0  0  0  0  0  0
    7.1167    8.2187    8.6126 H   0  0  0  0  0  0  0  0  0  0  0  0
    8.8838    5.8281    6.8921 C   0  0  0  0  0  0  0  0  0  0  0  0
    9.4423    5.0284    7.3795 H   0  0  0  0  0  0  0  0  0  0  0  0
    8.0090    6.0581    7.4926 H   0  0  0  0  0  0  0  0  0  0  0  0
    9.5185    6.7105    6.7964 H   0  0  0  0  0  0  0  0  0  0  0  0
    7.9717    5.0065    1.5566 C   0  0  0  0  0  0  0  0  0  0  0  0
    7.2216    5.7743    1.3701 H   0  0  0  0  0  0  0  0  0  0  0  0
    7.7058    4.5007    2.4899 H   0  0  0  0  0  0  0  0  0  0  0  0
    7.9316    4.2751    0.7538 H   0  0  0  0  0  0  0  0  0  0  0  0
    4.3278    5.3766    7.9136 C   0  0  0  0  0  0  0  0  0  0  0  0
   11.1096    8.3984    3.5414 C   0  0  0  0  0  0  0  0  0  0  0  0
   12.1591    8.4353    3.8250 H   0  0  0  0  0  0  0  0  0  0  0  0
   10.4995    8.3307    4.4407 H   0  0  0  0  0  0  0  0  0  0  0  0
   10.8620    9.3375    3.0461 H   0  0  0  0  0  0  0  0  0  0  0  0
   11.6678    5.6479    0.9962 C   0  0  0  0  0  0  0  0  0  0  0  0
    3.5651    4.6412    8.9704 C   0  0  0  0  0  0  0  0  0  0  0  0
    2.4983    4.6594    8.7524 H   0  0  0  0  0  0  0  0  0  0  0  0
    3.7303    5.0779    9.9524 H   0  0  0  0  0  0  0  0  0  0  0  0
    3.8795    3.5985    8.9909 H   0  0  0  0  0  0  0  0  0  0  0  0
   12.7795    5.0908    0.1611 C   0  0  0  0  0  0  0  0  0  0  0  0
   12.8140    4.0058    0.2431 H   0  0  0  0  0  0  0  0  0  0  0  0
   13.7400    5.4971    0.4677 H   0  0  0  0  0  0  0  0  0  0  0  0
   12.6201    5.3393   -0.8881 H   0  0  0  0  0  0  0  0  0  0  0  0
  1  3  1  0  0  0  0
  2  1  1  0  0  0  0
  2 39  1  0  0  0  0
  4 18  1  0  0  0  0
  4  9  1  0  0  0  0
  5 11  1  0  0  0  0
  5  2  1  0  0  0  0
  6  7  1  0  0  0  0
  6 11  2  0  0  0  0
  8 10  1  0  0  0  0
  9  5  2  0  0  0  0
 10 35  1  0  0  0  0
 10 14  2  0  0  0  0
 11  8  1  0  0  0  0
 12 13  1  0  0  0  0
 12 18  2  0  0  0  0
 14 15  1  0  0  0  0
 16 25  2  0  0  0  0
 16  9  1  0  0  0  0
 17 16  1  0  0  0  0
 18 48  1  0  0  0  0
 19 20  1  0  0  0  0
 19  2  1  0  0  0  0
 19 22  1  0  0  0  0
 21 19  1  0  0  0  0
 23  8  2  0  0  0  0
 23 27  1  0  0  0  0
 24  4  2  0  0  0  0
 25  6  1  0  0  0  0
 26 25  1  0  0  0  0
 27 47  2  0  0  0  0
 28 27  1  0  0  0  0
 29 23  1  0  0  0  0
 30 29  1  0  0  0  0
 31 29  1  0  0  0  0
 32 29  1  0  0  0  0
 33 52  2  0  0  0  0
 33 24  1  0  0  0  0
 34 33  1  0  0  0  0
 35 36  1  0  0  0  0
 35 38  1  0  0  0  0
 37 35  1  0  0  0  0
 39 40  1  0  0  0  0
 39 41  1  0  0  0  0
 42 39  1  0  0  0  0
 43 24  1  0  0  0  0
 43 45  1  0  0  0  0
 44 43  1  0  0  0  0
 46 43  1  0  0  0  0
 47 14  1  0  0  0  0
 47 53  1  0  0  0  0
 48 49  1  0  0  0  0
 48 50  1  0  0  0  0
 51 48  1  0  0  0  0
 52 12  1  0  0  0  0
 53 56  1  0  0  0  0
 53 55  1  0  0  0  0
 54 53  1  0  0  0  0
 57 58  1  0  0  0  0
 57 59  1  0  0  0  0
 57 52  1  0  0  0  0
 60 57  1  0  0  0  0
M  END
$$$$
