CSD_code = XOTDAM | q = 1 | S = 0 | Stoichiometry = C20H31ClN5O2SZn(1+) | MND = 4
 OpenBabel04212202123D

 61 66  0  0  1  0  0  0  0  0999 V2000
    5.4787    5.2140    9.0021 Zn  0  0  0  0  0  0  0  0  0  0  0  0
    4.5811    6.3236   10.5873 Cl  0  0  0  0  0  0  0  0  0  0  0  0
    3.7089    4.8890    7.0614 S   0  0  2  0  0  0  0  0  0  0  0  0
    4.3198    6.1727    7.3283 O   0  0  0  0  0  0  0  0  0  0  0  0
    2.8981    4.3443    8.0999 O   0  0  0  0  0  1  0  0  0  0  0  0
    5.1005    3.9012    6.9742 N   0  0  2  0  0  0  0  0  0  0  0  0
    7.1706    5.7539    7.6291 N   0  0  2  0  0  4  0  0  0  0  0  0
    7.3561    4.8890   10.2689 N   0  0  2  0  0  4  0  0  0  0  0  0
    5.2608    3.0795    9.6305 N   0  0  2  0  0  4  0  0  0  0  0  0
    0.6979    2.8535    1.6881 N   0  0  0  0  0  0  0  0  0  0  0  0
    6.0419    4.3476    5.9659 C   0  0  0  0  0  0  0  0  0  0  0  0
    7.3795    4.7338    6.6052 C   0  0  0  0  0  0  0  0  0  0  0  0
    8.3745    6.0602    8.4036 C   0  0  0  0  0  0  0  0  0  0  0  0
    8.5824    5.0027    9.4899 C   0  0  0  0  0  0  0  0  0  0  0  0
    7.1986    3.6394   11.0063 C   0  0  0  0  0  0  0  0  0  0  0  0
    6.5519    2.5841   10.1100 C   0  0  0  0  0  0  0  0  0  0  0  0
    4.6055    2.1848    8.6757 C   0  0  0  0  0  0  0  0  0  0  0  0
    5.0546    2.4732    7.2352 C   0  0  0  0  0  0  0  0  0  0  0  0
    2.9511    4.9445    5.4509 C   0  0  0  0  0  0  0  0  0  0  0  0
    3.1310    6.1044    4.7440 C   0  0  0  0  0  0  0  0  0  0  0  0
    2.5656    6.2302    3.4739 C   0  0  0  0  0  0  0  0  0  0  0  0
    1.9051    5.1653    2.9126 C   0  0  0  0  0  0  0  0  0  0  0  0
    1.0566    2.8281    3.0123 C   0  0  0  0  0  0  0  0  0  0  0  0
    0.6989    1.7756    3.8457 C   0  0  0  0  0  0  0  0  0  0  0  0
    1.0966    1.7389    5.1776 C   0  0  0  0  0  0  0  0  0  0  0  0
    1.8799    2.7293    5.7173 C   0  0  0  0  0  0  0  0  0  0  0  0
    1.7533    3.9434    3.5912 C   0  0  0  0  0  0  0  0  0  0  0  0
    2.2151    3.8496    4.9419 C   0  0  0  0  0  0  0  0  0  0  0  0
    1.6629    3.1681    0.6551 C   0  0  0  0  0  0  0  0  0  0  0  0
   -0.3680    1.9986    1.2193 C   0  0  0  0  0  0  0  0  0  0  0  0
    6.1999    3.5772    5.2040 H   0  0  0  0  0  0  0  0  0  0  0  0
    5.6148    5.2265    5.4782 H   0  0  0  0  0  0  0  0  0  0  0  0
    7.8168    3.8543    7.0804 H   0  0  0  0  0  0  0  0  0  0  0  0
    8.0638    5.0822    5.8210 H   0  0  0  0  0  0  0  0  0  0  0  0
    6.8441    6.6007    7.1700 H   0  0  0  0  0  0  0  0  0  0  0  0
    9.2622    6.1138    7.7624 H   0  0  0  0  0  0  0  0  0  0  0  0
    8.2275    7.0286    8.8847 H   0  0  0  0  0  0  0  0  0  0  0  0
    8.7964    4.0351    9.0334 H   0  0  0  0  0  0  0  0  0  0  0  0
    9.4442    5.2822   10.1070 H   0  0  0  0  0  0  0  0  0  0  0  0
    7.2969    5.6703   10.9166 H   0  0  0  0  0  0  0  0  0  0  0  0
    6.5383    3.8302   11.8539 H   0  0  0  0  0  0  0  0  0  0  0  0
    8.1569    3.2669   11.3867 H   0  0  0  0  0  0  0  0  0  0  0  0
    6.4390    1.6499   10.6734 H   0  0  0  0  0  0  0  0  0  0  0  0
    7.1877    2.3891    9.2445 H   0  0  0  0  0  0  0  0  0  0  0  0
    4.6507    3.1787   10.4408 H   0  0  0  0  0  0  0  0  0  0  0  0
    4.8209    1.1337    8.9041 H   0  0  0  0  0  0  0  0  0  0  0  0
    3.5311    2.3450    8.7511 H   0  0  0  0  0  0  0  0  0  0  0  0
    6.0661    2.0860    7.0854 H   0  0  0  0  0  0  0  0  0  0  0  0
    4.3859    1.9538    6.5377 H   0  0  0  0  0  0  0  0  0  0  0  0
    3.6681    6.9219    5.1978 H   0  0  0  0  0  0  0  0  0  0  0  0
    2.6458    7.1658    2.9447 H   0  0  0  0  0  0  0  0  0  0  0  0
    1.4455    5.2877    1.9462 H   0  0  0  0  0  0  0  0  0  0  0  0
    0.1288    0.9486    3.4573 H   0  0  0  0  0  0  0  0  0  0  0  0
    0.8042    0.8968    5.7863 H   0  0  0  0  0  0  0  0  0  0  0  0
    2.1755    2.6948    6.7509 H   0  0  0  0  0  0  0  0  0  0  0  0
    2.5930    3.5278    1.0873 H   0  0  0  0  0  0  0  0  0  0  0  0
    1.8839    2.2672    0.0724 H   0  0  0  0  0  0  0  0  0  0  0  0
    1.2657    3.9214   -0.0295 H   0  0  0  0  0  0  0  0  0  0  0  0
   -0.0404    0.9670    1.0450 H   0  0  0  0  0  0  0  0  0  0  0  0
   -1.1872    2.0014    1.9351 H   0  0  0  0  0  0  0  0  0  0  0  0
   -0.7351    2.4031    0.2763 H   0  0  0  0  0  0  0  0  0  0  0  0
  1  9  1  0  0  0  0
  1  8  1  0  0  0  0
  1  2  1  0  0  0  0
  3  4  1  0  0  0  0
  3  5  1  1  0  0  0
  4  1  1  0  0  0  0
  6 11  1  6  0  0  0
  6  3  1  0  0  0  0
  6 18  1  0  0  0  0
  7 35  1  6  0  0  0
  7 13  1  0  0  0  0
  7  1  1  0  0  0  0
  8 40  1  1  0  0  0
  8 15  1  0  0  0  0
  9 16  1  0  0  0  0
  9 45  1  1  0  0  0
 10 23  1  0  0  0  0
 11 12  1  0  0  0  0
 12 33  1  0  0  0  0
 12  7  1  0  0  0  0
 13 37  1  0  0  0  0
 13 14  1  0  0  0  0
 14 39  1  0  0  0  0
 14  8  1  0  0  0  0
 15 42  1  0  0  0  0
 15 41  1  0  0  0  0
 16 43  1  0  0  0  0
 16 15  1  0  0  0  0
 17 47  1  0  0  0  0
 17 46  1  0  0  0  0
 17  9  1  0  0  0  0
 18 17  1  0  0  0  0
 19  3  1  0  0  0  0
 20 50  1  0  0  0  0
 20 19  2  0  0  0  0
 21 20  1  0  0  0  0
 22 21  2  0  0  0  0
 22 27  1  0  0  0  0
 23 27  2  0  0  0  0
 23 24  1  0  0  0  0
 24 25  2  0  0  0  0
 25 26  1  0  0  0  0
 25 54  1  0  0  0  0
 26 55  1  0  0  0  0
 27 28  1  0  0  0  0
 28 19  1  0  0  0  0
 28 26  2  0  0  0  0
 29 56  1  0  0  0  0
 29 10  1  0  0  0  0
 30 10  1  0  0  0  0
 30 60  1  0  0  0  0
 31 11  1  0  0  0  0
 32 11  1  0  0  0  0
 34 12  1  0  0  0  0
 36 13  1  0  0  0  0
 38 14  1  0  0  0  0
 44 16  1  0  0  0  0
 48 18  1  0  0  0  0
 49 18  1  0  0  0  0
 51 21  1  0  0  0  0
 52 22  1  0  0  0  0
 53 24  1  0  0  0  0
 57 29  1  0  0  0  0
 58 29  1  0  0  0  0
 59 30  1  0  0  0  0
 61 30  1  0  0  0  0
M  END
$$$$
