CSD_code = XOTHOF | q = 0 | S = 0 | Stoichiometry = C23H33Cl2N2PPd | MND = 4
 OpenBabel04212202123D

 62 66  0  0  1  0  0  0  0  0999 V2000
    4.1324    2.2039    4.1318 Pd  0  0  0  0  0  0  0  0  0  0  0  0
    4.6809    1.7100    6.2702 P   0  0  0  0  0  4  0  0  0  0  0  0
    2.2541    1.0312    3.9699 Cl  0  0  0  0  0  0  0  0  0  0  0  0
    3.6070    3.2454    2.1855 Cl  0  0  0  0  0  0  0  0  0  0  0  0
    5.9857    3.0714    4.0941 N   0  0  1  0  0  0  0  0  0  0  0  0
    6.5814    3.8294    5.0266 N   0  0  0  0  0  0  0  0  0  0  0  0
    6.8822    2.7799    3.1642 C   0  0  1  0  0  3  0  0  0  0  0  0
    7.8883    4.0348    4.7009 C   0  0  0  0  0  0  0  0  0  0  0  0
    8.1042    3.3745    3.5119 C   0  0  0  0  0  0  0  0  0  0  0  0
    9.0236    3.3206    2.9663 H   0  0  0  0  0  0  0  0  0  0  0  0
    5.9449    4.2294    6.2177 C   0  0  0  0  0  0  0  0  0  0  0  0
    5.1817    3.3292    6.9833 C   0  0  0  0  0  0  0  0  0  0  0  0
    6.1477    5.5336    6.6555 C   0  0  0  0  0  0  0  0  0  0  0  0
    6.6684    6.2291    6.0166 H   0  0  0  0  0  0  0  0  0  0  0  0
    5.6669    5.9472    7.8835 C   0  0  0  0  0  0  0  0  0  0  0  0
    5.8218    6.9644    8.2076 H   0  0  0  0  0  0  0  0  0  0  0  0
    4.7486    3.7626    8.2344 C   0  0  0  0  0  0  0  0  0  0  0  0
    4.2118    3.0836    8.8767 H   0  0  0  0  0  0  0  0  0  0  0  0
    4.9978    5.0446    8.6905 C   0  0  0  0  0  0  0  0  0  0  0  0
    4.6491    5.3425    9.6676 H   0  0  0  0  0  0  0  0  0  0  0  0
    3.4349    1.0365    7.4595 C   0  0  0  0  0  0  0  0  0  0  0  0
    3.8297    1.0558    8.4841 H   0  0  0  0  0  0  0  0  0  0  0  0
    3.0859   -0.4036    7.0756 C   0  0  0  0  0  0  0  0  0  0  0  0
    2.7756   -0.4170    6.0269 H   0  0  0  0  0  0  0  0  0  0  0  0
    3.9563   -1.0530    7.1925 H   0  0  0  0  0  0  0  0  0  0  0  0
    1.0578    1.3830    8.2142 C   0  0  0  0  0  0  0  0  0  0  0  0
    1.3634    1.4078    9.2649 H   0  0  0  0  0  0  0  0  0  0  0  0
    0.1792    2.0209    8.1065 H   0  0  0  0  0  0  0  0  0  0  0  0
    1.9507   -0.9324    7.9487 C   0  0  0  0  0  0  0  0  0  0  0  0
    1.7112   -1.9545    7.6503 H   0  0  0  0  0  0  0  0  0  0  0  0
    2.2713   -0.9552    8.9949 H   0  0  0  0  0  0  0  0  0  0  0  0
    2.1830    1.9147    7.3329 C   0  0  0  0  0  0  0  0  0  0  0  0
    2.4017    2.9536    7.5935 H   0  0  0  0  0  0  0  0  0  0  0  0
    1.8571    1.8930    6.2873 H   0  0  0  0  0  0  0  0  0  0  0  0
    0.7173   -0.0476    7.8134 C   0  0  0  0  0  0  0  0  0  0  0  0
   -0.0910   -0.4326    8.4383 H   0  0  0  0  0  0  0  0  0  0  0  0
    0.3835   -0.0569    6.7750 H   0  0  0  0  0  0  0  0  0  0  0  0
    6.2813    0.7690    6.4257 C   0  0  0  0  0  0  0  0  0  0  0  0
    7.0594    1.4833    6.1158 H   0  0  0  0  0  0  0  0  0  0  0  0
    6.2945   -0.3882    5.4263 C   0  0  0  0  0  0  0  0  0  0  0  0
    5.5493   -1.1340    5.7065 H   0  0  0  0  0  0  0  0  0  0  0  0
    6.0236   -0.0120    4.4279 H   0  0  0  0  0  0  0  0  0  0  0  0
    6.6267    0.2901    7.8320 C   0  0  0  0  0  0  0  0  0  0  0  0
    6.6225    1.1339    8.5279 H   0  0  0  0  0  0  0  0  0  0  0  0
    5.8897   -0.4375    8.1743 H   0  0  0  0  0  0  0  0  0  0  0  0
    8.0067   -0.3671    7.8133 C   0  0  0  0  0  0  0  0  0  0  0  0
    8.7585    0.3767    7.5374 H   0  0  0  0  0  0  0  0  0  0  0  0
    8.2530   -0.7357    8.8110 H   0  0  0  0  0  0  0  0  0  0  0  0
    7.6756   -1.0351    5.4095 C   0  0  0  0  0  0  0  0  0  0  0  0
    7.6862   -1.8745    4.7125 H   0  0  0  0  0  0  0  0  0  0  0  0
    8.4166   -0.3069    5.0695 H   0  0  0  0  0  0  0  0  0  0  0  0
    8.0428   -1.5189    6.8112 C   0  0  0  0  0  0  0  0  0  0  0  0
    7.3348   -2.2901    7.1223 H   0  0  0  0  0  0  0  0  0  0  0  0
    9.0387   -1.9657    6.8006 H   0  0  0  0  0  0  0  0  0  0  0  0
    8.8724    4.7617    5.5436 C   0  0  0  0  0  0  0  0  0  0  0  0
    8.9099    5.8191    5.2820 H   0  0  0  0  0  0  0  0  0  0  0  0
    9.8622    4.3443    5.3722 H   0  0  0  0  0  0  0  0  0  0  0  0
    8.6267    4.6768    6.6006 H   0  0  0  0  0  0  0  0  0  0  0  0
    6.5691    1.9154    1.9969 C   0  0  0  0  0  0  0  0  0  0  0  0
    5.6982    1.2797    2.2182 H   0  0  0  0  0  0  0  0  0  0  0  0
    7.4280    1.2980    1.7422 H   0  0  0  0  0  0  0  0  0  0  0  0
    6.3110    2.5331    1.1368 H   0  0  0  0  0  0  0  0  0  0  0  0
  1  2  1  0  0  0  0
  2 38  1  0  0  0  0
  2 12  1  0  0  0  0
  2 21  1  0  0  0  0
  3  1  1  0  0  0  0
  4  1  1  0  0  0  0
  5  1  1  0  0  0  0
  5  6  1  1  0  0  0
  6 11  1  0  0  0  0
  7 59  1  1  0  0  0
  7  9  1  0  0  0  0
  7  5  1  0  0  0  0
  8  6  1  0  0  0  0
  8 55  1  0  0  0  0
  9  8  2  0  0  0  0
 10  9  1  0  0  0  0
 11 13  2  0  0  0  0
 11 12  1  0  0  0  0
 12 17  2  0  0  0  0
 13 15  1  0  0  0  0
 14 13  1  0  0  0  0
 15 16  1  0  0  0  0
 15 19  2  0  0  0  0
 17 19  1  0  0  0  0
 17 18  1  0  0  0  0
 19 20  1  0  0  0  0
 21 22  1  0  0  0  0
 23 25  1  0  0  0  0
 23 21  1  0  0  0  0
 23 29  1  0  0  0  0
 24 23  1  0  0  0  0
 26 27  1  0  0  0  0
 28 26  1  0  0  0  0
 29 31  1  0  0  0  0
 30 29  1  0  0  0  0
 32 21  1  0  0  0  0
 32 33  1  0  0  0  0
 32 26  1  0  0  0  0
 34 32  1  0  0  0  0
 35 29  1  0  0  0  0
 35 26  1  0  0  0  0
 35 36  1  0  0  0  0
 37 35  1  0  0  0  0
 38 43  1  0  0  0  0
 39 38  1  0  0  0  0
 40 41  1  0  0  0  0
 40 38  1  0  0  0  0
 42 40  1  0  0  0  0
 43 45  1  0  0  0  0
 43 44  1  0  0  0  0
 46 43  1  0  0  0  0
 46 48  1  0  0  0  0
 47 46  1  0  0  0  0
 49 40  1  0  0  0  0
 49 52  1  0  0  0  0
 50 49  1  0  0  0  0
 51 49  1  0  0  0  0
 52 53  1  0  0  0  0
 52 46  1  0  0  0  0
 54 52  1  0  0  0  0
 55 58  1  0  0  0  0
 56 55  1  0  0  0  0
 57 55  1  0  0  0  0
 59 60  1  0  0  0  0
 61 59  1  0  0  0  0
 62 59  1  0  0  0  0
M  END
$$$$
