CSD_code = XOTKUN | q = 0 | S = 0 | Stoichiometry = C26H24Cl2F2O2Zr | MND = 12
 OpenBabel04212202123D

 57 60  0  0  1  0  0  0  0  0999 V2000
   -0.2113    3.3461    4.8204 Zr  0  0  0  0  0  0  0  0  0  0  0  0
    1.2303    1.7354    5.6964 Cl  0  0  0  0  0  0  0  0  0  0  0  0
    1.0064    3.2043    2.7335 C   0  0  2  0  0  0  0  0  0  0  0  0
    1.8622    3.9186    3.6112 C   0  0  0  0  0  0  0  0  0  0  0  0
    2.8479    3.5966    3.9283 H   0  0  0  0  0  0  0  0  0  0  0  0
    1.2660    5.1701    3.8876 C   0  0  0  0  0  0  0  0  0  0  0  0
    1.7367    5.9852    4.4231 H   0  0  0  0  0  0  0  0  0  0  0  0
    0.0460    5.2405    3.1762 C   0  0  0  0  0  0  0  0  0  0  0  0
   -0.5767    6.1204    3.0739 H   0  0  0  0  0  0  0  0  0  0  0  0
   -0.1177    4.0293    2.4645 C   0  0  0  0  0  0  0  0  0  0  0  0
   -0.9034    3.8084    1.7501 H   0  0  0  0  0  0  0  0  0  0  0  0
    1.2715    1.8435    2.1517 C   0  0  0  0  0  0  0  0  0  0  0  0
    0.3216    1.3286    1.9568 H   0  0  0  0  0  0  0  0  0  0  0  0
    1.8261    1.2318    2.8770 H   0  0  0  0  0  0  0  0  0  0  0  0
    2.0605    1.8932    0.8639 C   0  0  0  0  0  0  0  0  0  0  0  0
    2.3127    0.7172    0.1624 C   0  0  0  0  0  0  0  0  0  0  0  0
    1.8363   -0.4468    0.6560 F   0  0  0  0  0  0  0  0  0  0  0  0
    3.0256    0.6848   -1.0137 C   0  0  0  0  0  0  0  0  0  0  0  0
    3.1995   -0.2462   -1.5270 H   0  0  0  0  0  0  0  0  0  0  0  0
    3.5265    1.8756   -1.5422 C   0  0  0  0  0  0  0  0  0  0  0  0
    4.2201    1.7587   -2.7055 O   0  0  0  0  0  0  0  0  0  0  0  0
    4.7553    2.9219   -3.2894 C   0  0  0  0  0  0  0  0  0  0  0  0
    5.2649    2.5900   -4.1924 H   0  0  0  0  0  0  0  0  0  0  0  0
    5.4767    3.4096   -2.6259 H   0  0  0  0  0  0  0  0  0  0  0  0
    3.9691    3.6343   -3.5594 H   0  0  0  0  0  0  0  0  0  0  0  0
    3.2888    3.0650   -0.8636 C   0  0  0  0  0  0  0  0  0  0  0  0
    3.6594    4.0039   -1.2425 H   0  0  0  0  0  0  0  0  0  0  0  0
    2.5663    3.0616    0.3194 C   0  0  0  0  0  0  0  0  0  0  0  0
    2.3927    3.9974    0.8288 H   0  0  0  0  0  0  0  0  0  0  0  0
   -1.6528    1.7360    3.9457 Cl  0  0  0  0  0  0  0  0  0  0  0  0
   -1.4288    3.2042    6.9076 C   0  0  2  0  0  0  0  0  0  0  0  0
   -2.2846    3.9184    6.0298 C   0  0  0  0  0  3  0  0  0  0  0  0
   -3.2704    3.5964    5.7128 H   0  0  0  0  0  0  0  0  0  0  0  0
   -1.6886    5.1700    5.7535 C   0  0  0  0  0  0  0  0  0  0  0  0
   -2.1594    5.9852    5.2181 H   0  0  0  0  0  0  0  0  0  0  0  0
   -0.4685    5.2405    6.4649 C   0  0  0  0  0  0  0  0  0  0  0  0
    0.1540    6.1206    6.5672 H   0  0  0  0  0  0  0  0  0  0  0  0
   -0.3046    4.0293    7.1765 C   0  0  0  0  0  3  0  0  0  0  0  0
    0.4810    3.8085    7.8909 H   0  0  0  0  0  0  0  0  0  0  0  0
   -1.6938    1.8435    7.4894 C   0  0  0  0  0  0  0  0  0  0  0  0
   -0.7439    1.3286    7.6843 H   0  0  0  0  0  0  0  0  0  0  0  0
   -2.2484    1.2318    6.7642 H   0  0  0  0  0  0  0  0  0  0  0  0
   -2.4828    1.8932    8.7773 C   0  0  0  0  0  0  0  0  0  0  0  0
   -2.7351    0.7172    9.4787 C   0  0  0  0  0  0  0  0  0  0  0  0
   -2.2589   -0.4468    8.9850 F   0  0  0  0  0  0  0  0  0  0  0  0
   -3.4479    0.6848   10.6548 C   0  0  0  0  0  0  0  0  0  0  0  0
   -3.6220   -0.2462   11.1681 H   0  0  0  0  0  0  0  0  0  0  0  0
   -3.9487    1.8756   11.1835 C   0  0  0  0  0  0  0  0  0  0  0  0
   -4.6423    1.7587   12.3467 O   0  0  0  0  0  0  0  0  0  0  0  0
   -5.1773    2.9220   12.9307 C   0  0  0  0  0  0  0  0  0  0  0  0
   -5.6870    2.5900   13.8337 H   0  0  0  0  0  0  0  0  0  0  0  0
   -5.8986    3.4098   12.2673 H   0  0  0  0  0  0  0  0  0  0  0  0
   -4.3910    3.6342   13.2008 H   0  0  0  0  0  0  0  0  0  0  0  0
   -3.7109    3.0651   10.5049 C   0  0  0  0  0  0  0  0  0  0  0  0
   -4.0813    4.0039   10.8839 H   0  0  0  0  0  0  0  0  0  0  0  0
   -2.9883    3.0617    9.3219 C   0  0  0  0  0  0  0  0  0  0  0  0
   -2.8146    3.9974    8.8126 H   0  0  0  0  0  0  0  0  0  0  0  0
  1  2  1  0  0  0  0
  1 31  1  0  0  0  0
  3 12  1  6  0  0  0
  3  4  1  0  0  0  0
  3  1  1  0  0  0  0
  4  6  2  0  0  0  0
  4  5  1  0  0  0  0
  6  7  1  0  0  0  0
  8  6  1  0  0  0  0
  9  8  1  0  0  0  0
 10  3  1  0  0  0  0
 10  8  2  0  0  0  0
 11 10  1  0  0  0  0
 12 14  1  0  0  0  0
 13 12  1  0  0  0  0
 15 12  1  0  0  0  0
 16 17  1  0  0  0  0
 16 15  2  0  0  0  0
 18 16  1  0  0  0  0
 19 18  1  0  0  0  0
 20 18  2  0  0  0  0
 20 26  1  0  0  0  0
 21 20  1  0  0  0  0
 22 21  1  0  0  0  0
 22 24  1  0  0  0  0
 23 22  1  0  0  0  0
 25 22  1  0  0  0  0
 26 28  2  0  0  0  0
 27 26  1  0  0  0  0
 28 29  1  0  0  0  0
 28 15  1  0  0  0  0
 30  1  1  0  0  0  0
 31 38  1  0  0  0  0
 31 40  1  1  0  0  0
 32 31  1  0  0  0  0
 33 32  1  0  0  0  0
 34 32  1  0  0  0  0
 34 36  2  0  0  0  0
 35 34  1  0  0  0  0
 36 37  1  0  0  0  0
 36 38  1  0  0  0  0
 38 39  1  0  0  0  0
 40 41  1  0  0  0  0
 40 43  1  0  0  0  0
 42 40  1  0  0  0  0
 43 56  2  0  0  0  0
 43 44  1  0  0  0  0
 44 46  2  0  0  0  0
 45 44  1  0  0  0  0
 46 47  1  0  0  0  0
 46 48  1  0  0  0  0
 48 49  1  0  0  0  0
 49 50  1  0  0  0  0
 50 53  1  0  0  0  0
 50 51  1  0  0  0  0
 52 50  1  0  0  0  0
 54 55  1  0  0  0  0
 54 48  2  0  0  0  0
 56 54  1  0  0  0  0
 57 56  1  0  0  0  0
M  END
$$$$
