CSD_code = XOTLEZ | q = 0 | S = 0 | Stoichiometry = C29H35ClN3ORh | MND = 6
 OpenBabel04212202123D

 70 72  0  0  1  0  0  0  0  0999 V2000
    3.8634    2.6053    9.2948 C   0  0  2  0  0  3  0  0  0  0  0  0
    5.6276    3.7322   10.0794 C   0  0  0  0  0  0  0  0  0  0  0  0
    6.2728    4.1539   10.8216 H   0  0  0  0  0  0  0  0  0  0  0  0
    5.6621    3.8104    8.7322 C   0  0  0  0  0  0  0  0  0  0  0  0
    6.3422    4.3237    8.0854 H   0  0  0  0  0  0  0  0  0  0  0  0
    4.2300    2.9697    6.8777 C   0  0  0  0  0  0  0  0  0  0  0  0
    3.2537    2.4650    6.8474 H   0  0  0  0  0  0  0  0  0  0  0  0
    4.9708    2.3462    6.3654 H   0  0  0  0  0  0  0  0  0  0  0  0
    4.1427    4.3419    6.1842 C   0  0  0  0  0  0  0  0  0  0  0  0
    5.1414    4.7283    5.9609 H   0  0  0  0  0  0  0  0  0  0  0  0
    3.5876    4.2279    5.2484 H   0  0  0  0  0  0  0  0  0  0  0  0
    4.2119    6.3276    7.5713 C   0  0  0  0  0  0  0  0  0  0  0  0
    3.4889    7.2124    8.5292 C   0  0  0  0  0  0  0  0  0  0  0  0
    2.3475    6.8304    9.2281 C   0  0  0  0  0  0  0  0  0  0  0  0
    1.9091    5.8539    9.0916 H   0  0  0  0  0  0  0  0  0  0  0  0
    1.7622    7.7087   10.1239 C   0  0  0  0  0  0  0  0  0  0  0  0
    0.8780    7.4038   10.6646 H   0  0  0  0  0  0  0  0  0  0  0  0
    2.2979    8.9693   10.3279 C   0  0  0  0  0  0  0  0  0  0  0  0
    1.8306    9.6504   11.0246 H   0  0  0  0  0  0  0  0  0  0  0  0
    3.4365    9.3531    9.6384 C   0  0  0  0  0  0  0  0  0  0  0  0
    3.8606   10.3343    9.7950 H   0  0  0  0  0  0  0  0  0  0  0  0
    4.0306    8.4767    8.7511 C   0  0  0  0  0  0  0  0  0  0  0  0
    4.9240    8.7523    8.2107 H   0  0  0  0  0  0  0  0  0  0  0  0
    4.2591    2.5792   11.7500 C   0  0  0  0  0  0  0  0  0  0  0  0
    5.1783    1.7418   12.3873 C   0  0  0  0  0  0  0  0  0  0  0  0
    4.9334    1.3579   13.6982 C   0  0  0  0  0  0  0  0  0  0  0  0
    5.6410    0.7075   14.1920 H   0  0  0  0  0  0  0  0  0  0  0  0
    3.8026    1.7806   14.3787 C   0  0  0  0  0  0  0  0  0  0  0  0
    2.9003    2.6028   13.7183 C   0  0  0  0  0  0  0  0  0  0  0  0
    2.0113    2.9332   14.2360 H   0  0  0  0  0  0  0  0  0  0  0  0
    3.1080    3.0142   12.4109 C   0  0  0  0  0  0  0  0  0  0  0  0
    6.3967    1.2288   11.6766 C   0  0  0  0  0  0  0  0  0  0  0  0
    7.2071    1.9560   11.7216 H   0  0  0  0  0  0  0  0  0  0  0  0
    6.1854    1.0248   10.6283 H   0  0  0  0  0  0  0  0  0  0  0  0
    6.7444    0.3116   12.1456 H   0  0  0  0  0  0  0  0  0  0  0  0
    3.5418    1.3564   15.7915 C   0  0  0  0  0  0  0  0  0  0  0  0
    3.4143    2.2282   16.4313 H   0  0  0  0  0  0  0  0  0  0  0  0
    4.3622    0.7573   16.1775 H   0  0  0  0  0  0  0  0  0  0  0  0
    2.6265    0.7682   15.8462 H   0  0  0  0  0  0  0  0  0  0  0  0
    2.1120    3.8821   11.7176 C   0  0  0  0  0  0  0  0  0  0  0  0
    1.3582    4.2421   12.4123 H   0  0  0  0  0  0  0  0  0  0  0  0
    1.6119    3.3018   10.9296 H   0  0  0  0  0  0  0  0  0  0  0  0
    2.5945    4.7350   11.2423 H   0  0  0  0  0  0  0  0  0  0  0  0
    0.1508    0.7632    9.4330 C   0  0  0  0  0  3  0  0  0  0  0  0
   -0.5040    1.5885    9.7180 H   0  0  0  0  0  0  0  0  0  0  0  0
    0.1993   -0.3796   10.4217 C   0  0  0  0  0  0  0  0  0  0  0  0
   -0.0051   -1.3138    9.8963 H   0  0  0  0  0  0  0  0  0  0  0  0
   -0.5937   -0.2450   11.1603 H   0  0  0  0  0  0  0  0  0  0  0  0
    1.5519   -0.4564   11.1527 C   0  0  0  0  0  0  0  0  0  0  0  0
    1.5076    0.1599   12.0553 H   0  0  0  0  0  0  0  0  0  0  0  0
    1.7489   -1.4854   11.4745 H   0  0  0  0  0  0  0  0  0  0  0  0
    2.7120    0.0401   10.3233 C   0  0  1  0  0  0  0  0  0  0  0  0
    3.5680    0.3124   10.9351 H   0  0  0  0  0  0  0  0  0  0  0  0
    2.9597   -0.3068    8.9949 C   0  0  0  0  0  3  0  0  0  0  0  0
    3.9917   -0.2350    8.6500 H   0  0  0  0  0  0  0  0  0  0  0  0
    2.1191   -1.3051    8.2262 C   0  0  0  0  0  0  0  0  0  0  0  0
    1.7207   -2.0432    8.9241 H   0  0  0  0  0  0  0  0  0  0  0  0
    2.7580   -1.8419    7.5216 H   0  0  0  0  0  0  0  0  0  0  0  0
    0.9767   -0.6321    7.4437 C   0  0  0  0  0  0  0  0  0  0  0  0
    1.3346   -0.3746    6.4430 H   0  0  0  0  0  0  0  0  0  0  0  0
    0.1426   -1.3312    7.3175 H   0  0  0  0  0  0  0  0  0  0  0  0
    0.4687    0.6317    8.0971 C   0  0  0  0  0  3  0  0  0  0  0  0
    0.0192    1.3318    7.3922 H   0  0  0  0  0  0  0  0  0  0  0  0
    4.5249    2.9826   10.4135 N   0  0  0  0  0  0  0  0  0  0  0  0
    4.5803    3.1094    8.2689 N   0  0  0  0  0  0  0  0  0  0  0  0
    3.4997    5.3188    7.0233 N   0  0  0  0  0  0  0  0  0  0  0  0
    5.3824    6.5315    7.2764 O   0  0  0  0  0  0  0  0  0  0  0  0
    1.2019    3.6165    8.3035 Cl  0  0  0  0  0 15  0  0  0  0  0  0
    2.1063    1.6386    9.0791 Rh  0  0  0  0  0  0  0  0  0  0  0  0
    2.5780    5.0641    7.3718 H   0  0  0  0  0  0  0  0  0  0  0  0
  1 69  1  1  0  0  0
  1 64  1  0  0  0  0
  2 64  1  0  0  0  0
  2  3  1  0  0  0  0
  4  2  2  0  0  0  0
  5  4  1  0  0  0  0
  6 65  1  0  0  0  0
  7  6  1  0  0  0  0
  8  6  1  0  0  0  0
  9  6  1  0  0  0  0
  9 66  1  0  0  0  0
 10  9  1  0  0  0  0
 11  9  1  0  0  0  0
 12 13  1  0  0  0  0
 13 22  2  0  0  0  0
 13 14  1  0  0  0  0
 14 16  2  0  0  0  0
 15 14  1  0  0  0  0
 16 18  1  0  0  0  0
 16 17  1  0  0  0  0
 18 19  1  0  0  0  0
 20 21  1  0  0  0  0
 20 18  2  0  0  0  0
 22 20  1  0  0  0  0
 23 22  1  0  0  0  0
 24 25  2  0  0  0  0
 24 31  1  0  0  0  0
 25 26  1  0  0  0  0
 26 27  1  0  0  0  0
 26 28  2  0  0  0  0
 28 36  1  0  0  0  0
 29 30  1  0  0  0  0
 29 28  1  0  0  0  0
 31 29  2  0  0  0  0
 32 33  1  0  0  0  0
 32 35  1  0  0  0  0
 32 25  1  0  0  0  0
 34 32  1  0  0  0  0
 36 39  1  0  0  0  0
 36 38  1  0  0  0  0
 36 37  1  0  0  0  0
 40 31  1  0  0  0  0
 40 41  1  0  0  0  0
 42 40  1  0  0  0  0
 43 40  1  0  0  0  0
 44 45  1  0  0  0  0
 44 46  1  0  0  0  0
 46 49  1  0  0  0  0
 46 48  1  0  0  0  0
 47 46  1  0  0  0  0
 49 51  1  0  0  0  0
 49 50  1  0  0  0  0
 52 53  1  1  0  0  0
 52 49  1  0  0  0  0
 54 52  1  0  0  0  0
 55 54  1  0  0  0  0
 56 57  1  0  0  0  0
 56 54  1  0  0  0  0
 58 56  1  0  0  0  0
 59 62  1  0  0  0  0
 59 56  1  0  0  0  0
 60 59  1  0  0  0  0
 61 59  1  0  0  0  0
 62 44  1  0  0  0  0
 63 62  1  0  0  0  0
 64 24  1  0  0  0  0
 65  4  1  0  0  0  0
 65  1  1  0  0  0  0
 66 70  1  0  0  0  0
 66 12  1  0  0  0  0
 67 12  2  0  0  0  0
 69 52  1  0  0  0  0
M  END
$$$$
