CSD_code = XOVDAN | q = 0 | S = 0 | Stoichiometry = C4H12Cl4S2Zr | MND = 6
 OpenBabel04212202123D

 23 22  0  0  0  0  0  0  0  0999 V2000
    1.5454   -3.0161   -3.8232 Zr  0  0  0  0  0  0  0  0  0  0  0  0
    3.6390   -2.2662   -4.5087 Cl  0  0  0  0  0  0  0  0  0  0  0  0
   -0.1285   -4.1949   -2.7179 Cl  0  0  0  0  0  0  0  0  0  0  0  0
    0.6238   -0.9170   -3.4981 Cl  0  0  0  0  0  0  0  0  0  0  0  0
    0.6766   -3.2906   -5.9528 Cl  0  0  0  0  0  0  0  0  0  0  0  0
    2.6690   -2.8697   -1.2974 S   0  0  0  0  0  3  0  0  0  0  0  0
    2.7275   -5.5117   -4.0282 S   0  0  0  0  0  3  0  0  0  0  0  0
    1.1646   -2.3771   -0.3959 C   0  0  0  0  0  0  0  0  0  0  0  0
    3.4232   -1.2202   -1.4679 C   0  0  0  0  0  0  0  0  0  0  0  0
    1.2537   -6.4275   -4.5831 C   0  0  0  0  0  0  0  0  0  0  0  0
    3.5119   -5.2710   -5.6548 C   0  0  0  0  0  0  0  0  0  0  0  0
    0.5958   -1.6695   -1.0007 H   0  0  0  0  0  0  0  0  0  0  0  0
    1.4567   -1.9379    0.5550 H   0  0  0  0  0  0  0  0  0  0  0  0
    0.5829   -3.2799   -0.2277 H   0  0  0  0  0  0  0  0  0  0  0  0
    4.3491   -1.3482   -2.0228 H   0  0  0  0  0  0  0  0  0  0  0  0
    3.6332   -0.8290   -0.4752 H   0  0  0  0  0  0  0  0  0  0  0  0
    2.7429   -0.5666   -2.0154 H   0  0  0  0  0  0  0  0  0  0  0  0
    0.6881   -5.8120   -5.2839 H   0  0  0  0  0  0  0  0  0  0  0  0
    0.6559   -6.6364   -3.6997 H   0  0  0  0  0  0  0  0  0  0  0  0
    1.5754   -7.3577   -5.0454 H   0  0  0  0  0  0  0  0  0  0  0  0
    2.8359   -4.7116   -6.3028 H   0  0  0  0  0  0  0  0  0  0  0  0
    3.7458   -6.2459   -6.0760 H   0  0  0  0  0  0  0  0  0  0  0  0
    4.4259   -4.7066   -5.4886 H   0  0  0  0  0  0  0  0  0  0  0  0
  1  4  1  0  0  0  0
  1  3  1  0  0  0  0
  1  6  1  0  0  0  0
  2  1  1  0  0  0  0
  5  1  1  0  0  0  0
  6  8  1  0  0  0  0
  7  1  1  0  0  0  0
  8 14  1  0  0  0  0
  8 13  1  0  0  0  0
  9  6  1  0  0  0  0
  9 16  1  0  0  0  0
 10  7  1  0  0  0  0
 10 19  1  0  0  0  0
 11 23  1  0  0  0  0
 11  7  1  0  0  0  0
 12  8  1  0  0  0  0
 15  9  1  0  0  0  0
 17  9  1  0  0  0  0
 18 10  1  0  0  0  0
 20 10  1  0  0  0  0
 21 11  1  0  0  0  0
 22 11  1  0  0  0  0
M  END
$$$$
