CSD_code = XOWMUT | q = 0 | S = 0 | Stoichiometry = C21H17ClPdS3 | MND = 4
 OpenBabel04212202123D

 43 48  0  0  1  0  0  0  0  0999 V2000
    5.5353    6.2040    6.2493 Pd  0  0  2  0  0  0  0  0  0  0  0  0
    3.4578    6.2016    5.1703 Cl  0  0  0  0  0  0  0  0  0  0  0  0
    6.4587    5.1169    4.4794 S   0  0  2  0  0  3  0  0  0  0  0  0
   10.2743    6.5714    8.0782 S   0  0  0  0  0  0  0  0  0  0  0  0
    4.7069    6.8224    8.3380 S   0  0  1  0  0  3  0  0  0  0  0  0
   10.7547    4.8950    5.9612 C   0  0  0  0  0  0  0  0  0  0  0  0
   11.7823    4.9190    6.2893 H   0  0  0  0  0  0  0  0  0  0  0  0
    9.7947    5.5874    6.6862 C   0  0  0  0  0  0  0  0  0  0  0  0
    8.4529    5.5505    6.3011 C   0  0  0  0  0  0  0  0  0  0  0  0
    7.8426    7.6454    7.3315 C   0  0  0  0  0  0  0  0  0  0  0  0
    9.1144    7.8957    7.8445 C   0  0  0  0  0  0  0  0  0  0  0  0
    7.0551    8.7373    6.9685 C   0  0  0  0  0  0  0  0  0  0  0  0
    6.0899    8.5755    6.4646 H   0  0  0  0  0  0  0  0  0  0  0  0
    7.3882    6.2149    7.1255 C   0  0  1  0  0  0  0  0  0  0  0  0
    7.4801   10.0294    7.2220 C   0  0  0  0  0  0  0  0  0  0  0  0
    6.8522   10.8627    6.9459 H   0  0  0  0  0  0  0  0  0  0  0  0
    5.8144    5.5021   10.4851 C   0  0  0  0  0  0  0  0  0  0  0  0
    4.9494    5.8490   11.0302 H   0  0  0  0  0  0  0  0  0  0  0  0
    9.5368    9.1885    8.1157 C   0  0  0  0  0  0  0  0  0  0  0  0
   10.5184    9.3467    8.5358 H   0  0  0  0  0  0  0  0  0  0  0  0
    8.7065   10.2544    7.8273 C   0  0  0  0  0  0  0  0  0  0  0  0
    9.0318   11.2608    8.0420 H   0  0  0  0  0  0  0  0  0  0  0  0
    3.4766    5.4728    8.3255 C   0  0  0  0  0  0  0  0  0  0  0  0
    2.7074    5.7724    7.6155 H   0  0  0  0  0  0  0  0  0  0  0  0
    3.0587    5.3524    9.3217 H   0  0  0  0  0  0  0  0  0  0  0  0
    3.9532    4.5490    7.9871 H   0  0  0  0  0  0  0  0  0  0  0  0
   10.3929    4.1996    4.8208 C   0  0  0  0  0  0  0  0  0  0  0  0
   11.1418    3.6603    4.2619 H   0  0  0  0  0  0  0  0  0  0  0  0
    5.7253    3.5319    5.0302 C   0  0  0  0  0  0  0  0  0  0  0  0
    5.9678    3.3587    6.0829 H   0  0  0  0  0  0  0  0  0  0  0  0
    6.1106    2.7254    4.4116 H   0  0  0  0  0  0  0  0  0  0  0  0
    4.6481    3.6415    4.8912 H   0  0  0  0  0  0  0  0  0  0  0  0
    7.9837    4.5837    9.0239 C   0  0  0  0  0  0  0  0  0  0  0  0
    8.8162    4.1856    8.4645 H   0  0  0  0  0  0  0  0  0  0  0  0
    6.0177    5.9195    9.1849 C   0  0  0  0  0  0  0  0  0  0  0  0
    6.7025    4.6082   11.0612 C   0  0  0  0  0  0  0  0  0  0  0  0
    6.5495    4.2714   12.0746 H   0  0  0  0  0  0  0  0  0  0  0  0
    7.7565    4.1206   10.3086 C   0  0  0  0  0  0  0  0  0  0  0  0
    8.4226    3.3817   10.7283 H   0  0  0  0  0  0  0  0  0  0  0  0
    9.0852    4.2402    4.3639 C   0  0  0  0  0  0  0  0  0  0  0  0
    8.8049    3.7604    3.4391 H   0  0  0  0  0  0  0  0  0  0  0  0
    8.1348    4.9202    5.1064 C   0  0  0  0  0  0  0  0  0  0  0  0
    7.1488    5.5430    8.4501 C   0  0  0  0  0  0  0  0  0  0  0  0
  1  2  1  6  0  0  0
  1 14  1  0  0  0  0
  1  5  1  0  0  0  0
  3 29  1  1  0  0  0
  3 42  1  0  0  0  0
  3  1  1  0  0  0  0
  5 23  1  1  0  0  0
  5 35  1  0  0  0  0
  6  7  1  0  0  0  0
  6  8  1  0  0  0  0
  8  4  1  0  0  0  0
  9  8  2  0  0  0  0
 10 11  1  0  0  0  0
 11  4  1  0  0  0  0
 11 19  2  0  0  0  0
 12 15  1  0  0  0  0
 12 10  2  0  0  0  0
 13 12  1  0  0  0  0
 14  9  1  6  0  0  0
 14 10  1  0  0  0  0
 14 43  1  0  0  0  0
 15 21  2  0  0  0  0
 16 15  1  0  0  0  0
 17 18  1  0  0  0  0
 17 36  1  0  0  0  0
 19 20  1  0  0  0  0
 21 22  1  0  0  0  0
 21 19  1  0  0  0  0
 23 25  1  0  0  0  0
 24 23  1  0  0  0  0
 26 23  1  0  0  0  0
 27  6  2  0  0  0  0
 28 27  1  0  0  0  0
 29 30  1  0  0  0  0
 31 29  1  0  0  0  0
 32 29  1  0  0  0  0
 33 38  1  0  0  0  0
 34 33  1  0  0  0  0
 35 17  2  0  0  0  0
 36 37  1  0  0  0  0
 38 39  1  0  0  0  0
 38 36  2  0  0  0  0
 40 27  1  0  0  0  0
 40 42  2  0  0  0  0
 41 40  1  0  0  0  0
 42  9  1  0  0  0  0
 43 33  2  0  0  0  0
 43 35  1  0  0  0  0
M  END
$$$$
