CSD_code = XOXKEC | q = 0 | S = 0 | Stoichiometry = C12H21Cl2IrOS | MND = 8
 OpenBabel04212202123D

 38 36  0  0  1  0  0  0  0  0999 V2000
    2.6867    6.4411   16.3184 Ir  0  0  0  0  0  0  0  0  0  0  0  0
    4.9975    6.2864   16.1505 Cl  0  0  0  0  0 15  0  0  0  0  0  0
    2.9180    8.7592   16.4432 Cl  0  0  0  0  0 15  0  0  0  0  0  0
    2.0540    5.7690   18.2740 C   0  0  2  0  0  0  0  0  0  0  0  0
    2.4687    4.5732   17.5699 C   0  0  0  0  0  0  0  0  0  0  0  0
    1.6565    4.4507   16.4210 C   0  0  0  0  0  0  0  0  0  0  0  0
    0.6614    5.5059   16.4535 C   0  0  1  0  0  0  0  0  0  0  0  0
    0.8670    6.2799   17.6159 C   0  0  1  0  0  3  0  0  0  0  0  0
    2.5287    6.1801   19.6319 C   0  0  0  0  0  0  0  0  0  0  0  0
    3.5865    5.9592   19.7497 H   0  0  0  0  0  0  0  0  0  0  0  0
    1.9713    5.6377   20.3981 H   0  0  0  0  0  0  0  0  0  0  0  0
    2.3777    7.2458   19.7829 H   0  0  0  0  0  0  0  0  0  0  0  0
    3.5481    3.6529   18.0306 C   0  0  0  0  0  0  0  0  0  0  0  0
    3.5326    2.7241   17.4670 H   0  0  0  0  0  0  0  0  0  0  0  0
    3.4179    3.4297   19.0888 H   0  0  0  0  0  0  0  0  0  0  0  0
    4.5261    4.1160   17.8969 H   0  0  0  0  0  0  0  0  0  0  0  0
    1.6787    3.3721   15.3952 C   0  0  0  0  0  0  0  0  0  0  0  0
    1.7514    3.8095   14.3992 H   0  0  0  0  0  0  0  0  0  0  0  0
    0.7577    2.7902   15.4422 H   0  0  0  0  0  0  0  0  0  0  0  0
    2.5262    2.7084   15.5395 H   0  0  0  0  0  0  0  0  0  0  0  0
   -0.4555    5.6070   15.4709 C   0  0  0  0  0  0  0  0  0  0  0  0
   -0.9510    6.5732   15.5302 H   0  0  0  0  0  0  0  0  0  0  0  0
   -1.1926    4.8273   15.6697 H   0  0  0  0  0  0  0  0  0  0  0  0
   -0.0796    5.4607   14.4592 H   0  0  0  0  0  0  0  0  0  0  0  0
    0.0239    7.3941   18.1399 C   0  0  0  0  0  0  0  0  0  0  0  0
    0.5830    8.3293   18.1353 H   0  0  0  0  0  0  0  0  0  0  0  0
   -0.2726    7.1810   19.1663 H   0  0  0  0  0  0  0  0  0  0  0  0
   -0.8698    7.5253   17.5364 H   0  0  0  0  0  0  0  0  0  0  0  0
    2.7020    6.8494   13.9989 S   0  0  0  0  0  0  0  0  0  0  0  0
    2.1560    5.7056   13.2702 O   0  0  0  0  0  0  0  0  0  0  0  0
    1.7002    8.2793   13.4774 C   0  0  0  0  0  0  0  0  0  0  0  0
    0.6790    8.1037   13.7957 H   0  0  0  0  0  0  0  0  0  0  0  0
    1.7481    8.3578   12.3981 H   0  0  0  0  0  0  0  0  0  0  0  0
    2.0968    9.1582   13.9701 H   0  0  0  0  0  0  0  0  0  0  0  0
    4.2528    7.3211   13.1835 C   0  0  0  0  0  0  0  0  0  0  0  0
    4.5891    8.2430   13.6424 H   0  0  0  0  0  0  0  0  0  0  0  0
    4.0664    7.4369   12.1226 H   0  0  0  0  0  0  0  0  0  0  0  0
    4.9759    6.5340   13.3662 H   0  0  0  0  0  0  0  0  0  0  0  0
  1  7  1  0  0  0  0
  1  4  1  0  0  0  0
  4  9  1  1  0  0  0
  5 13  1  0  0  0  0
  5  4  1  0  0  0  0
  6  7  1  0  0  0  0
  6  5  2  0  0  0  0
  7 21  1  6  0  0  0
  7  8  1  0  0  0  0
  8 25  1  1  0  0  0
  8  4  1  0  0  0  0
  9 10  1  0  0  0  0
  9 12  1  0  0  0  0
  9 11  1  0  0  0  0
 13 15  1  0  0  0  0
 14 13  1  0  0  0  0
 16 13  1  0  0  0  0
 17 19  1  0  0  0  0
 17 20  1  0  0  0  0
 17  6  1  0  0  0  0
 18 17  1  0  0  0  0
 21 22  1  0  0  0  0
 21 23  1  0  0  0  0
 24 21  1  0  0  0  0
 25 27  1  0  0  0  0
 26 25  1  0  0  0  0
 28 25  1  0  0  0  0
 30 29  2  0  0  0  0
 31 32  1  0  0  0  0
 31 34  1  0  0  0  0
 31 29  1  0  0  0  0
 33 31  1  0  0  0  0
 35 38  1  0  0  0  0
 35 36  1  0  0  0  0
 35 29  1  0  0  0  0
 37 35  1  0  0  0  0
M  END
$$$$
