CSD_code = XOXMAY | q = 0 | S = 0 | Stoichiometry = C32H32Cl2P2Pd | MND = 4
 OpenBabel04212202123D

 69 73  0  0  0  0  0  0  0  0999 V2000
    4.0827    5.4930   12.7594 Pd  0  0  0  0  0  0  0  0  0  0  0  0
    5.1533    3.5580   13.2590 Cl  0  0  0  0  0  0  0  0  0  0  0  0
    2.0870    4.4654   13.1145 Cl  0  0  0  0  0  0  0  0  0  0  0  0
    6.0359    6.5846   12.5605 P   0  0  0  0  0  4  0  0  0  0  0  0
    2.9897    7.3519   12.1238 P   0  0  0  0  0  4  0  0  0  0  0  0
    6.0278    8.3139   13.1634 C   0  0  0  0  0  0  0  0  0  0  0  0
    6.6118    8.4727   14.5395 C   0  0  0  0  0  0  0  0  0  0  0  0
    5.4331    9.3190   12.5041 C   0  0  0  0  0  0  0  0  0  0  0  0
    5.4012   10.7253   13.0562 C   0  0  0  0  0  0  0  0  0  0  0  0
    4.8472    9.1932   11.1536 C   0  0  0  0  0  0  0  0  0  0  0  0
    5.4940   10.0811   10.1166 C   0  0  0  0  0  0  0  0  0  0  0  0
    3.7746    8.4387   10.8739 C   0  0  0  0  0  0  0  0  0  0  0  0
    3.1904    8.3258    9.4940 C   0  0  0  0  0  0  0  0  0  0  0  0
    1.3327    7.0748   11.4310 C   0  0  0  0  0  0  0  0  0  0  0  0
    1.2196    6.0029   10.5464 C   0  0  0  0  0  0  0  0  0  0  0  0
    0.0011    5.7016    9.9732 C   0  0  0  0  0  0  0  0  0  0  0  0
   -1.1159    6.4606   10.2890 C   0  0  0  0  0  0  0  0  0  0  0  0
   -1.0109    7.5127   11.1818 C   0  0  0  0  0  0  0  0  0  0  0  0
    0.2104    7.8229   11.7574 C   0  0  0  0  0  0  0  0  0  0  0  0
    2.7442    8.3879   13.5912 C   0  0  0  0  0  0  0  0  0  0  0  0
    2.3342    9.7159   13.5310 C   0  0  0  0  0  0  0  0  0  0  0  0
    2.1369   10.4279   14.7007 C   0  0  0  0  0  0  0  0  0  0  0  0
    2.3522    9.8225   15.9289 C   0  0  0  0  0  0  0  0  0  0  0  0
    2.7671    8.5014   15.9929 C   0  0  0  0  0  0  0  0  0  0  0  0
    2.9609    7.7826   14.8274 C   0  0  0  0  0  0  0  0  0  0  0  0
    7.4929    5.8597   13.3722 C   0  0  0  0  0  0  0  0  0  0  0  0
    7.2922    5.3404   14.6505 C   0  0  0  0  0  0  0  0  0  0  0  0
    8.3372    4.7500   15.3326 C   0  0  0  0  0  0  0  0  0  0  0  0
    9.5873    4.6622   14.7396 C   0  0  0  0  0  0  0  0  0  0  0  0
    9.7859    5.1606   13.4637 C   0  0  0  0  0  0  0  0  0  0  0  0
    8.7425    5.7564   12.7751 C   0  0  0  0  0  0  0  0  0  0  0  0
    6.4616    6.6389   10.7982 C   0  0  0  0  0  0  0  0  0  0  0  0
    5.7998    5.7298    9.9750 C   0  0  0  0  0  0  0  0  0  0  0  0
    6.0916    5.6782    8.6242 C   0  0  0  0  0  0  0  0  0  0  0  0
    7.0490    6.5279    8.0921 C   0  0  0  0  0  0  0  0  0  0  0  0
    7.7125    7.4300    8.9087 C   0  0  0  0  0  0  0  0  0  0  0  0
    7.4214    7.4896   10.2602 C   0  0  0  0  0  0  0  0  0  0  0  0
    6.4579    9.4713   14.9349 H   0  0  0  0  0  0  0  0  0  0  0  0
    7.6813    8.2618   14.5266 H   0  0  0  0  0  0  0  0  0  0  0  0
    6.1424    7.7595   15.2182 H   0  0  0  0  0  0  0  0  0  0  0  0
    4.9011   10.7430   14.0226 H   0  0  0  0  0  0  0  0  0  0  0  0
    4.8569   11.3834   12.3852 H   0  0  0  0  0  0  0  0  0  0  0  0
    6.4085   11.1195   13.1861 H   0  0  0  0  0  0  0  0  0  0  0  0
    5.8268    9.4917    9.2644 H   0  0  0  0  0  0  0  0  0  0  0  0
    6.3596   10.5855   10.5360 H   0  0  0  0  0  0  0  0  0  0  0  0
    4.7952   10.8355    9.7564 H   0  0  0  0  0  0  0  0  0  0  0  0
    3.7549    8.8998    8.7665 H   0  0  0  0  0  0  0  0  0  0  0  0
    2.1570    8.6729    9.4881 H   0  0  0  0  0  0  0  0  0  0  0  0
    3.1887    7.2815    9.1806 H   0  0  0  0  0  0  0  0  0  0  0  0
    2.0941    5.3886   10.3447 H   0  0  0  0  0  0  0  0  0  0  0  0
   -0.0863    4.8664    9.2943 H   0  0  0  0  0  0  0  0  0  0  0  0
   -2.0729    6.2198    9.8501 H   0  0  0  0  0  0  0  0  0  0  0  0
   -1.8856    8.0913   11.4412 H   0  0  0  0  0  0  0  0  0  0  0  0
    0.2819    8.6327   12.4693 H   0  0  0  0  0  0  0  0  0  0  0  0
    2.1860   10.1878   12.5692 H   0  0  0  0  0  0  0  0  0  0  0  0
    1.8154   11.4586   14.6559 H   0  0  0  0  0  0  0  0  0  0  0  0
    2.1966   10.3833   16.8388 H   0  0  0  0  0  0  0  0  0  0  0  0
    2.9337    8.0343   16.9522 H   0  0  0  0  0  0  0  0  0  0  0  0
    3.2752    6.7308   14.8633 H   0  0  0  0  0  0  0  0  0  0  0  0
    6.2992    5.3742   15.0876 H   0  0  0  0  0  0  0  0  0  0  0  0
    8.1760    4.3422   16.3192 H   0  0  0  0  0  0  0  0  0  0  0  0
   10.4034    4.1909   15.2672 H   0  0  0  0  0  0  0  0  0  0  0  0
   10.7559    5.0773   12.9952 H   0  0  0  0  0  0  0  0  0  0  0  0
    8.9012    6.1246   11.7718 H   0  0  0  0  0  0  0  0  0  0  0  0
    5.0563    5.0511   10.4149 H   0  0  0  0  0  0  0  0  0  0  0  0
    5.5795    4.9746    7.9847 H   0  0  0  0  0  0  0  0  0  0  0  0
    7.2801    6.4865    7.0379 H   0  0  0  0  0  0  0  0  0  0  0  0
    8.4593    8.0891    8.4895 H   0  0  0  0  0  0  0  0  0  0  0  0
    7.9241    8.2022   10.8997 H   0  0  0  0  0  0  0  0  0  0  0  0
  1  3  1  0  0  0  0
  1  2  1  0  0  0  0
  4  1  1  0  0  0  0
  4  6  1  0  0  0  0
  4 26  1  0  0  0  0
  5  1  1  0  0  0  0
  5 20  1  0  0  0  0
  6  7  1  0  0  0  0
  7 38  1  0  0  0  0
  7 40  1  0  0  0  0
  8  9  1  0  0  0  0
  8  6  2  0  0  0  0
  9 43  1  0  0  0  0
  9 41  1  0  0  0  0
 10  8  1  0  0  0  0
 11 45  1  0  0  0  0
 11 10  1  0  0  0  0
 12 10  2  0  0  0  0
 12  5  1  0  0  0  0
 13 12  1  0  0  0  0
 14 19  1  0  0  0  0
 14  5  1  0  0  0  0
 15 14  2  0  0  0  0
 16 17  2  0  0  0  0
 16 15  1  0  0  0  0
 17 18  1  0  0  0  0
 18 53  1  0  0  0  0
 18 19  2  0  0  0  0
 19 54  1  0  0  0  0
 20 25  1  0  0  0  0
 21 20  2  0  0  0  0
 21 22  1  0  0  0  0
 22 23  2  0  0  0  0
 23 24  1  0  0  0  0
 23 57  1  0  0  0  0
 24 58  1  0  0  0  0
 25 59  1  0  0  0  0
 25 24  2  0  0  0  0
 26 27  1  0  0  0  0
 27 60  1  0  0  0  0
 27 28  2  0  0  0  0
 28 61  1  0  0  0  0
 29 62  1  0  0  0  0
 29 28  1  0  0  0  0
 30 29  2  0  0  0  0
 31 26  2  0  0  0  0
 31 30  1  0  0  0  0
 32  4  1  0  0  0  0
 33 65  1  0  0  0  0
 33 32  2  0  0  0  0
 34 33  1  0  0  0  0
 35 34  2  0  0  0  0
 35 36  1  0  0  0  0
 36 37  2  0  0  0  0
 37 32  1  0  0  0  0
 37 69  1  0  0  0  0
 39  7  1  0  0  0  0
 42  9  1  0  0  0  0
 44 11  1  0  0  0  0
 46 11  1  0  0  0  0
 47 13  1  0  0  0  0
 48 13  1  0  0  0  0
 49 13  1  0  0  0  0
 50 15  1  0  0  0  0
 51 16  1  0  0  0  0
 52 17  1  0  0  0  0
 55 21  1  0  0  0  0
 56 22  1  0  0  0  0
 63 30  1  0  0  0  0
 64 31  1  0  0  0  0
 66 34  1  0  0  0  0
 67 35  1  0  0  0  0
 68 36  1  0  0  0  0
M  END
$$$$
