CSD_code = XOXPAB | q = 0 | S = 0 | Stoichiometry = C15H18Cl2Zr | MND = 12
 OpenBabel04212202123D

 36 38  0  0  1  0  0  0  0  0999 V2000
    5.1948    3.4977    3.3418 Zr  0  0  0  0  0  0  0  0  0  0  0  0
    4.1393    2.1385    4.9121 Cl  0  0  0  0  0  0  0  0  0  0  0  0
    4.3840    2.3913    1.4596 Cl  0  0  0  0  0  0  0  0  0  0  0  0
    7.3891    4.4174    3.5680 C   0  0  2  0  0  0  0  0  0  0  0  0
    7.4157    3.6567    2.3556 C   0  0  0  0  0  0  0  0  0  0  0  0
    7.3180    2.2856    2.7006 C   0  0  0  0  0  0  0  0  0  0  0  0
    7.2202    2.1842    4.1026 C   0  0  0  0  0  0  0  0  0  0  0  0
    7.2554    3.4906    4.6505 C   0  0  0  0  0  0  0  0  0  0  0  0
    7.7369    4.1142    0.9590 C   0  0  0  0  0  0  0  0  0  0  0  0
    7.3830    3.7403    6.1284 C   0  0  0  0  0  0  0  0  0  0  0  0
    5.4860    5.8617    3.5355 C   0  0  2  0  0  0  0  0  0  0  0  0
    4.6053    5.4951    4.6027 C   0  0  2  0  0  3  0  0  0  0  0  0
    3.3689    5.1036    4.0309 C   0  0  0  0  0  0  0  0  0  0  0  0
    3.4719    5.2106    2.6297 C   0  0  0  0  0  0  0  0  0  0  0  0
    4.7735    5.6699    2.3091 C   0  0  1  0  0  3  0  0  0  0  0  0
    4.7807    5.6911    6.0840 C   0  0  0  0  0  0  0  0  0  0  0  0
    5.1575    6.0936    0.9177 C   0  0  0  0  0  0  0  0  0  0  0  0
    7.0055    5.8901    3.6484 C   0  0  0  0  0  0  0  0  0  0  0  0
    7.4238    1.4593    2.0072 H   0  0  0  0  0  0  0  0  0  0  0  0
    7.2373    1.2663    4.6784 H   0  0  0  0  0  0  0  0  0  0  0  0
    7.9014    5.1871    0.9123 H   0  0  0  0  0  0  0  0  0  0  0  0
    6.9425    3.8356    0.2640 H   0  0  0  0  0  0  0  0  0  0  0  0
    8.6526    3.6240    0.6226 H   0  0  0  0  0  0  0  0  0  0  0  0
    7.5152    4.7953    6.3511 H   0  0  0  0  0  0  0  0  0  0  0  0
    8.2589    3.2103    6.5074 H   0  0  0  0  0  0  0  0  0  0  0  0
    6.5128    3.3599    6.6660 H   0  0  0  0  0  0  0  0  0  0  0  0
    2.4674    4.8792    4.5889 H   0  0  0  0  0  0  0  0  0  0  0  0
    2.6635    5.0829    1.9193 H   0  0  0  0  0  0  0  0  0  0  0  0
    5.7454    6.1307    6.3221 H   0  0  0  0  0  0  0  0  0  0  0  0
    4.6669    4.7465    6.6197 H   0  0  0  0  0  0  0  0  0  0  0  0
    4.0079    6.3700    6.4500 H   0  0  0  0  0  0  0  0  0  0  0  0
    6.1465    6.5425    0.8899 H   0  0  0  0  0  0  0  0  0  0  0  0
    4.4452    6.8402    0.5610 H   0  0  0  0  0  0  0  0  0  0  0  0
    5.1200    5.2496    0.2266 H   0  0  0  0  0  0  0  0  0  0  0  0
    7.3273    6.3348    4.5934 H   0  0  0  0  0  0  0  0  0  0  0  0
    7.4552    6.4645    2.8347 H   0  0  0  0  0  0  0  0  0  0  0  0
  1 11  1  0  0  0  0
  1  4  1  0  0  0  0
  1  2  1  0  0  0  0
  3  1  1  0  0  0  0
  4  5  1  6  0  0  0
  4 18  1  0  0  0  0
  4  8  1  0  0  0  0
  5  6  2  0  0  0  0
  6  7  1  0  0  0  0
  7  8  2  0  0  0  0
  7 20  1  0  0  0  0
  8 10  1  0  0  0  0
  9  5  1  0  0  0  0
 10 24  1  0  0  0  0
 10 25  1  0  0  0  0
 10 26  1  0  0  0  0
 11 18  1  1  0  0  0
 11 12  1  0  0  0  0
 12 16  1  1  0  0  0
 13 27  1  0  0  0  0
 13 12  1  0  0  0  0
 14 13  2  0  0  0  0
 15 17  1  1  0  0  0
 15 14  1  0  0  0  0
 15 11  1  0  0  0  0
 16 29  1  0  0  0  0
 16 31  1  0  0  0  0
 16 30  1  0  0  0  0
 18 35  1  0  0  0  0
 19  6  1  0  0  0  0
 21  9  1  0  0  0  0
 22  9  1  0  0  0  0
 23  9  1  0  0  0  0
 28 14  1  0  0  0  0
 32 17  1  0  0  0  0
 33 17  1  0  0  0  0
 34 17  1  0  0  0  0
 36 18  1  0  0  0  0
M  END
$$$$
