CSD_code = XOXXIR | q = 0 | S = 0 | Stoichiometry = C16H18ClNO2PtS2 | MND = 4
 OpenBabel04212202123D

 41 43  0  0  1  0  0  0  0  0999 V2000
    2.3610    8.2406    3.0537 Pt  0  0  2  0  0  0  0  0  0  0  0  0
    3.6134    6.5321    2.0967 Cl  0  0  0  0  0  0  0  0  0  0  0  0
    2.6696    9.4040    1.1469 S   0  0  1  0  0  0  0  0  0  0  0  0
    1.0248    9.6230    5.6260 S   0  0  0  0  0  0  0  0  0  0  0  0
    2.1312    7.3122    4.8538 N   0  0  0  0  0  0  0  0  0  0  0  0
   -0.1483    9.9230    1.9231 O   0  0  0  0  0  0  0  0  0  0  0  0
    2.7625   10.8403    1.3017 O   0  0  0  0  0  1  0  0  0  0  0  0
    1.5905    8.0035    5.8822 C   0  0  2  0  0  3  0  0  0  0  0  0
    1.4693    7.4377    7.1570 C   0  0  0  0  0  0  0  0  0  0  0  0
    1.9074    6.1537    7.3771 C   0  0  0  0  0  0  0  0  0  0  0  0
    2.4540    5.4446    6.3086 C   0  0  0  0  0  0  0  0  0  0  0  0
    2.5449    6.0568    5.0788 C   0  0  0  0  0  0  0  0  0  0  0  0
    1.2072    9.7651    3.8361 C   0  0  2  0  0  0  0  0  0  0  0  0
    0.0181    9.4412    3.0329 C   0  0  0  0  0  0  0  0  0  0  0  0
   -0.9644    8.4315    3.6028 C   0  0  0  0  0  0  0  0  0  0  0  0
    4.1086    8.9340    0.1287 C   0  0  0  0  0  0  0  0  0  0  0  0
    1.3948    8.9828   -0.0344 C   0  0  0  0  0  0  0  0  0  0  0  0
    1.0357    9.8639   -1.0354 C   0  0  0  0  0  0  0  0  0  0  0  0
    0.0676    9.4852   -1.9453 C   0  0  0  0  0  0  0  0  0  0  0  0
    0.7918    7.7451    0.0836 C   0  0  0  0  0  0  0  0  0  0  0  0
   -0.1750    7.3740   -0.8324 C   0  0  0  0  0  0  0  0  0  0  0  0
   -0.5437    8.2375   -1.8582 C   0  0  0  0  0  0  0  0  0  0  0  0
   -1.6019    7.8517   -2.8453 C   0  0  0  0  0  0  0  0  0  0  0  0
    1.0322    8.0352    7.9402 H   0  0  0  0  0  0  0  0  0  0  0  0
    1.8270    5.7045    8.3547 H   0  0  0  0  0  0  0  0  0  0  0  0
    2.8079    4.4347    6.4311 H   0  0  0  0  0  0  0  0  0  0  0  0
    2.9719    5.5407    4.2279 H   0  0  0  0  0  0  0  0  0  0  0  0
    1.6126   10.7501    3.6016 H   0  0  0  0  0  0  0  0  0  0  0  0
   -1.7603    8.2702    2.8809 H   0  0  0  0  0  0  0  0  0  0  0  0
   -1.3866    8.8090    4.5322 H   0  0  0  0  0  0  0  0  0  0  0  0
   -0.4668    7.4816    3.8073 H   0  0  0  0  0  0  0  0  0  0  0  0
    5.0051    9.0730    0.7239 H   0  0  0  0  0  0  0  0  0  0  0  0
    4.1155    9.5982   -0.7283 H   0  0  0  0  0  0  0  0  0  0  0  0
    4.0097    7.8977   -0.1707 H   0  0  0  0  0  0  0  0  0  0  0  0
    1.5021   10.8360   -1.0729 H   0  0  0  0  0  0  0  0  0  0  0  0
   -0.2254   10.1659   -2.7314 H   0  0  0  0  0  0  0  0  0  0  0  0
    1.0788    7.0831    0.8961 H   0  0  0  0  0  0  0  0  0  0  0  0
   -0.6532    6.4091   -0.7470 H   0  0  0  0  0  0  0  0  0  0  0  0
   -1.8226    6.7891   -2.7876 H   0  0  0  0  0  0  0  0  0  0  0  0
   -1.2871    8.0925   -3.8589 H   0  0  0  0  0  0  0  0  0  0  0  0
   -2.5187    8.4047   -2.6419 H   0  0  0  0  0  0  0  0  0  0  0  0
  1  2  1  6  0  0  0
  1 13  1  0  0  0  0
  1  5  1  0  0  0  0
  3  7  1  1  0  0  0
  3  1  1  0  0  0  0
  5 12  1  0  0  0  0
  5  8  1  0  0  0  0
  6 14  2  0  0  0  0
  8  4  1  6  0  0  0
  8  9  1  0  0  0  0
  9 10  2  0  0  0  0
  9 24  1  0  0  0  0
 10 25  1  0  0  0  0
 11 26  1  0  0  0  0
 11 10  1  0  0  0  0
 12 11  2  0  0  0  0
 13 28  1  6  0  0  0
 13  4  1  0  0  0  0
 14 15  1  0  0  0  0
 14 13  1  0  0  0  0
 15 31  1  0  0  0  0
 15 30  1  0  0  0  0
 16 32  1  0  0  0  0
 16  3  1  0  0  0  0
 17 20  1  0  0  0  0
 17  3  1  0  0  0  0
 18 17  2  0  0  0  0
 19 22  2  0  0  0  0
 19 18  1  0  0  0  0
 20 37  1  0  0  0  0
 21 38  1  0  0  0  0
 21 20  2  0  0  0  0
 22 21  1  0  0  0  0
 23 39  1  0  0  0  0
 23 41  1  0  0  0  0
 23 22  1  0  0  0  0
 27 12  1  0  0  0  0
 29 15  1  0  0  0  0
 33 16  1  0  0  0  0
 34 16  1  0  0  0  0
 35 18  1  0  0  0  0
 36 19  1  0  0  0  0
 40 23  1  0  0  0  0
M  END
$$$$
