CSD_code = XOYMII | q = 0 | S = 0 | Stoichiometry = C17H19ClF18O4W | MND = 6
 OpenBabel04212202123D

 60 58  0  0  0  0  0  0  0  0999 V2000
   -0.2239    2.7877   13.3929 W   0  0  0  0  0  0  0  0  0  0  0  0
   -2.3501    3.3272   12.5722 Cl  0  0  0  0  0  0  0  0  0  0  0  0
    0.2722    3.1404   11.2095 O   0  0  0  0  0  0  0  0  0  0  0  0
   -0.7007    0.7638   12.3930 O   0  0  0  0  0  0  0  0  0  0  0  0
   -1.0707    1.7486   14.9435 O   0  0  0  0  0  0  0  0  0  0  0  0
    1.6249    1.7746   13.1821 O   0  0  0  0  0  0  0  0  0  0  0  0
    0.1776    4.5271   13.9484 C   0  0  0  0  0  2  0  0  0  0  0  0
    0.3003    5.9461   14.2506 C   0  0  0  0  0  0  0  0  0  0  0  0
    0.3364    6.1890   15.7697 C   0  0  0  0  0  0  0  0  0  0  0  0
   -0.6315    5.9786   16.2104 H   0  0  0  0  0  0  0  0  0  0  0  0
    0.5853    7.2295   15.9663 H   0  0  0  0  0  0  0  0  0  0  0  0
    1.0825    5.5541   16.2377 H   0  0  0  0  0  0  0  0  0  0  0  0
   -0.9370    6.6488   13.6560 C   0  0  0  0  0  0  0  0  0  0  0  0
   -0.9076    6.6204   12.5703 H   0  0  0  0  0  0  0  0  0  0  0  0
   -0.9659    7.6851   13.9834 H   0  0  0  0  0  0  0  0  0  0  0  0
   -1.8406    6.1443   13.9873 H   0  0  0  0  0  0  0  0  0  0  0  0
    1.5797    6.5471   13.6417 C   0  0  0  0  0  0  0  0  0  0  0  0
    2.4565    6.1241   14.1211 H   0  0  0  0  0  0  0  0  0  0  0  0
    1.5820    7.6240   13.7936 H   0  0  0  0  0  0  0  0  0  0  0  0
    1.6406    6.3475   12.5756 H   0  0  0  0  0  0  0  0  0  0  0  0
   -0.3670    2.1131   10.4517 C   0  0  0  0  0  0  0  0  0  0  0  0
    0.0435    2.1099    9.4321 H   0  0  0  0  0  0  0  0  0  0  0  0
   -1.4523    2.3100   10.4259 H   0  0  0  0  0  0  0  0  0  0  0  0
   -0.0996    0.7699   11.1141 C   0  0  0  0  0  0  0  0  0  0  0  0
   -0.5318   -0.0328   10.4969 H   0  0  0  0  0  0  0  0  0  0  0  0
    0.9861    0.6049   11.2016 H   0  0  0  0  0  0  0  0  0  0  0  0
    0.0627    4.4146   10.6063 C   0  0  0  0  0  0  0  0  0  0  0  0
    0.4147    4.3948    9.5689 H   0  0  0  0  0  0  0  0  0  0  0  0
    0.6473    5.1271   11.1863 H   0  0  0  0  0  0  0  0  0  0  0  0
   -1.0023    4.6770   10.6466 H   0  0  0  0  0  0  0  0  0  0  0  0
   -0.4717   -0.4567   13.0688 C   0  0  0  0  0  0  0  0  0  0  0  0
   -0.8766   -1.2921   12.4871 H   0  0  0  0  0  0  0  0  0  0  0  0
   -0.9902   -0.4035   14.0230 H   0  0  0  0  0  0  0  0  0  0  0  0
    0.5978   -0.6198   13.2395 H   0  0  0  0  0  0  0  0  0  0  0  0
   -1.8359    1.7868   16.0524 C   0  0  0  0  0  0  0  0  0  0  0  0
   -1.8065    3.2046   16.6693 C   0  0  0  0  0  0  0  0  0  0  0  0
   -3.3080    1.4179   15.6783 C   0  0  0  0  0  0  0  0  0  0  0  0
   -1.3181    0.7403   17.0831 C   0  0  0  0  0  0  0  0  0  0  0  0
    2.8591    1.9759   13.6652 C   0  0  0  0  0  0  0  0  0  0  0  0
    2.7812    2.5471   15.1160 C   0  0  0  0  0  0  0  0  0  0  0  0
    3.6045    0.6092   13.6962 C   0  0  0  0  0  0  0  0  0  0  0  0
    3.6209    2.9577   12.7280 C   0  0  0  0  0  0  0  0  0  0  0  0
   -0.5817    3.5012   17.0965 F   0  0  0  0  0  0  0  0  0  0  0  0
   -2.1308    4.1002   15.7283 F   0  0  0  0  0  0  0  0  0  0  0  0
   -2.6488    3.3805   17.6866 F   0  0  0  0  0  0  0  0  0  0  0  0
   -3.3115    0.4341   14.7787 F   0  0  0  0  0  0  0  0  0  0  0  0
   -4.0245    1.0061   16.7251 F   0  0  0  0  0  0  0  0  0  0  0  0
   -3.9545    2.4456   15.1372 F   0  0  0  0  0  0  0  0  0  0  0  0
   -1.5964   -0.4987   16.6650 F   0  0  0  0  0  0  0  0  0  0  0  0
   -0.0004    0.8156   17.2226 F   0  0  0  0  0  0  0  0  0  0  0  0
   -1.8577    0.8815   18.2932 F   0  0  0  0  0  0  0  0  0  0  0  0
    1.6013    2.1754   15.6443 F   0  0  0  0  0  0  0  0  0  0  0  0
    2.8194    3.8759   15.1437 F   0  0  0  0  0  0  0  0  0  0  0  0
    3.7460    2.1115   15.9203 F   0  0  0  0  0  0  0  0  0  0  0  0
    4.9208    0.7242   13.8590 F   0  0  0  0  0  0  0  0  0  0  0  0
    3.1343   -0.1671   14.6710 F   0  0  0  0  0  0  0  0  0  0  0  0
    3.3974   -0.0490   12.5527 F   0  0  0  0  0  0  0  0  0  0  0  0
    4.0662    2.3366   11.6336 F   0  0  0  0  0  0  0  0  0  0  0  0
    2.7702    3.9023   12.3026 F   0  0  0  0  0  0  0  0  0  0  0  0
    4.6627    3.5630   13.2903 F   0  0  0  0  0  0  0  0  0  0  0  0
  1  7  1  0  0  0  0
  1  5  1  0  0  0  0
  2  1  1  0  0  0  0
  4 31  1  0  0  0  0
  5 35  1  0  0  0  0
  6  1  1  0  0  0  0
  6 39  1  0  0  0  0
  7  8  1  0  0  0  0
  8  9  1  0  0  0  0
  9 11  1  0  0  0  0
  9 10  1  0  0  0  0
  9 12  1  0  0  0  0
 13 15  1  0  0  0  0
 13 16  1  0  0  0  0
 13  8  1  0  0  0  0
 14 13  1  0  0  0  0
 17 19  1  0  0  0  0
 17 18  1  0  0  0  0
 17  8  1  0  0  0  0
 20 17  1  0  0  0  0
 21 24  1  0  0  0  0
 21  3  1  0  0  0  0
 22 21  1  0  0  0  0
 23 21  1  0  0  0  0
 24 26  1  0  0  0  0
 24  4  1  0  0  0  0
 25 24  1  0  0  0  0
 27 30  1  0  0  0  0
 27 29  1  0  0  0  0
 27  3  1  0  0  0  0
 28 27  1  0  0  0  0
 31 34  1  0  0  0  0
 31 33  1  0  0  0  0
 32 31  1  0  0  0  0
 35 36  1  0  0  0  0
 35 38  1  0  0  0  0
 36 43  1  0  0  0  0
 36 45  1  0  0  0  0
 37 35  1  0  0  0  0
 37 47  1  0  0  0  0
 38 50  1  0  0  0  0
 38 51  1  0  0  0  0
 39 41  1  0  0  0  0
 39 40  1  0  0  0  0
 40 53  1  0  0  0  0
 40 52  1  0  0  0  0
 40 54  1  0  0  0  0
 41 55  1  0  0  0  0
 41 56  1  0  0  0  0
 42 60  1  0  0  0  0
 42 39  1  0  0  0  0
 44 36  1  0  0  0  0
 46 37  1  0  0  0  0
 48 37  1  0  0  0  0
 49 38  1  0  0  0  0
 57 41  1  0  0  0  0
 58 42  1  0  0  0  0
 59 42  1  0  0  0  0
M  END
$$$$
