CSD_code = XOYTOU | q = 0 | S = 0 | Stoichiometry = C14H28ClHgNSi3 | MND = 2
 OpenBabel04212202123D

 48 48  0  0  0  0  0  0  0  0999 V2000
   11.2625    1.4941    1.6792 Hg  0  0  0  0  0  0  0  0  0  0  0  0
   10.4091    0.6253   -0.3760 Cl  0  0  0  0  0  0  0  0  0  0  0  0
   10.9610    2.7984    4.6934 Si  0  0  0  0  0  0  0  0  0  0  0  0
   13.9477    2.0422    3.8083 Si  0  0  0  0  0  0  0  0  0  0  0  0
   12.3956    4.5426    2.4431 Si  0  0  0  0  0  0  0  0  0  0  0  0
    9.0408    2.2258    2.7642 N   0  0  0  0  0  0  0  0  0  0  0  0
   12.2660    2.8238    3.3025 C   0  0  0  0  0  0  0  0  0  0  0  0
   11.1173    4.2254    5.9505 C   0  0  0  0  0  0  0  0  0  0  0  0
   10.4619    4.0764    6.8033 H   0  0  0  0  0  0  0  0  0  0  0  0
   10.8753    5.1849    5.5070 H   0  0  0  0  0  0  0  0  0  0  0  0
   12.1301    4.2863    6.3301 H   0  0  0  0  0  0  0  0  0  0  0  0
   10.8845    1.1582    5.6697 C   0  0  0  0  0  0  0  0  0  0  0  0
   10.0229    1.1412    6.3310 H   0  0  0  0  0  0  0  0  0  0  0  0
   11.7688    1.0147    6.2795 H   0  0  0  0  0  0  0  0  0  0  0  0
   10.7971    0.3095    4.9977 H   0  0  0  0  0  0  0  0  0  0  0  0
    9.2170    2.9007    3.9030 C   0  0  0  0  0  0  0  0  0  0  0  0
    8.1557    3.5854    4.4835 C   0  0  0  0  0  0  0  0  0  0  0  0
    8.3154    4.1238    5.4043 H   0  0  0  0  0  0  0  0  0  0  0  0
    6.9112    3.5807    3.8783 C   0  0  0  0  0  0  0  0  0  0  0  0
    6.0808    4.1160    4.3169 H   0  0  0  0  0  0  0  0  0  0  0  0
    6.7512    2.8743    2.6971 C   0  0  0  0  0  0  0  0  0  0  0  0
    5.8014    2.8388    2.1872 H   0  0  0  0  0  0  0  0  0  0  0  0
    7.8509    2.2101    2.1804 C   0  0  0  0  0  0  0  0  0  0  0  0
    7.7834    1.6419    1.2615 H   0  0  0  0  0  0  0  0  0  0  0  0
   13.8222    0.1386    3.9544 C   0  0  0  0  0  0  0  0  0  0  0  0
   13.2950   -0.1702    4.8491 H   0  0  0  0  0  0  0  0  0  0  0  0
   14.8100   -0.3105    3.9881 H   0  0  0  0  0  0  0  0  0  0  0  0
   13.3019   -0.2945    3.0994 H   0  0  0  0  0  0  0  0  0  0  0  0
   15.3041    2.3769    2.5086 C   0  0  0  0  0  0  0  0  0  0  0  0
   15.5641    3.4277    2.4580 H   0  0  0  0  0  0  0  0  0  0  0  0
   14.9870    2.0634    1.5188 H   0  0  0  0  0  0  0  0  0  0  0  0
   16.2091    1.8280    2.7498 H   0  0  0  0  0  0  0  0  0  0  0  0
   14.5500    2.7169    5.4902 C   0  0  0  0  0  0  0  0  0  0  0  0
   14.6198    3.7984    5.4816 H   0  0  0  0  0  0  0  0  0  0  0  0
   15.5335    2.3266    5.7329 H   0  0  0  0  0  0  0  0  0  0  0  0
   13.8787    2.4353    6.2940 H   0  0  0  0  0  0  0  0  0  0  0  0
   10.6628    5.3161    2.2256 C   0  0  0  0  0  0  0  0  0  0  0  0
   10.0254    4.6725    1.6254 H   0  0  0  0  0  0  0  0  0  0  0  0
   10.7270    6.2734    1.7185 H   0  0  0  0  0  0  0  0  0  0  0  0
   10.1631    5.4785    3.1734 H   0  0  0  0  0  0  0  0  0  0  0  0
   13.4715    5.7582    3.4489 C   0  0  0  0  0  0  0  0  0  0  0  0
   14.4949    5.4089    3.5253 H   0  0  0  0  0  0  0  0  0  0  0  0
   13.0926    5.8916    4.4554 H   0  0  0  0  0  0  0  0  0  0  0  0
   13.4939    6.7343    2.9743 H   0  0  0  0  0  0  0  0  0  0  0  0
   13.1248    4.4277    0.6792 C   0  0  0  0  0  0  0  0  0  0  0  0
   12.7072    3.5866    0.1249 H   0  0  0  0  0  0  0  0  0  0  0  0
   14.2019    4.3138    0.6855 H   0  0  0  0  0  0  0  0  0  0  0  0
   12.8962    5.3260    0.1140 H   0  0  0  0  0  0  0  0  0  0  0  0
  1  7  1  0  0  0  0
  2  1  1  0  0  0  0
  3 12  1  0  0  0  0
  3  8  1  0  0  0  0
  4 25  1  0  0  0  0
  4 33  1  0  0  0  0
  5  7  1  0  0  0  0
  5 41  1  0  0  0  0
  6 16  1  0  0  0  0
  7  4  1  0  0  0  0
  7  3  1  0  0  0  0
  8 11  1  0  0  0  0
  8  9  1  0  0  0  0
 10  8  1  0  0  0  0
 12 14  1  0  0  0  0
 12 13  1  0  0  0  0
 15 12  1  0  0  0  0
 16 17  2  0  0  0  0
 16  3  1  0  0  0  0
 17 18  1  0  0  0  0
 19 20  1  0  0  0  0
 19 17  1  0  0  0  0
 21 19  2  0  0  0  0
 22 21  1  0  0  0  0
 23 21  1  0  0  0  0
 23  6  2  0  0  0  0
 24 23  1  0  0  0  0
 25 27  1  0  0  0  0
 25 26  1  0  0  0  0
 28 25  1  0  0  0  0
 29 32  1  0  0  0  0
 29  4  1  0  0  0  0
 30 29  1  0  0  0  0
 31 29  1  0  0  0  0
 33 35  1  0  0  0  0
 33 36  1  0  0  0  0
 34 33  1  0  0  0  0
 37  5  1  0  0  0  0
 37 40  1  0  0  0  0
 38 37  1  0  0  0  0
 39 37  1  0  0  0  0
 41 42  1  0  0  0  0
 41 43  1  0  0  0  0
 44 41  1  0  0  0  0
 45 47  1  0  0  0  0
 45  5  1  0  0  0  0
 46 45  1  0  0  0  0
 48 45  1  0  0  0  0
M  END
$$$$
