CSD_code = XOZLON | q = 0 | S = 0 | Stoichiometry = C28H23Cl2CrN7 | MND = 6
 OpenBabel04212202123D

 61 67  0  0  0  0  0  0  0  0999 V2000
    3.3336    6.2890    2.2811 Cr  0  0  0  0  0  0  0  0  0  0  0  0
    1.9624    7.7345    3.2189 Cl  0  0  0  0  0  0  0  0  0  0  0  0
    2.4251    4.3061    2.6090 Cl  0  0  0  0  0  0  0  0  0  0  0  0
    4.2514    6.0938    4.0536 N   0  0  0  0  0  0  0  0  0  0  0  0
    5.5467    7.7795    3.2177 N   0  0  0  0  0  2  0  0  0  0  0  0
    4.7240    7.6188    2.2269 N   0  0  0  0  0  0  0  0  0  0  0  0
    2.2529    6.4620    0.5956 N   0  0  0  0  0  0  0  0  0  0  0  0
    4.0964    5.4697   -0.3230 N   0  0  0  0  0  2  0  0  0  0  0  0
    4.4736    5.5196    0.9156 N   0  0  0  0  0  0  0  0  0  0  0  0
    9.8022    4.2761    1.9134 N   0  0  0  0  0  0  0  0  0  0  0  0
    9.9903    4.1078    2.8916 H   0  0  0  0  0  0  0  0  0  0  0  0
    3.9300    5.3138    5.0973 C   0  0  0  0  0  3  0  0  0  0  0  0
    3.1152    4.6215    4.9314 H   0  0  0  0  0  0  0  0  0  0  0  0
    4.5806    5.3553    6.3027 C   0  0  0  0  0  0  0  0  0  0  0  0
    4.2705    4.7001    7.1003 H   0  0  0  0  0  0  0  0  0  0  0  0
    5.6480    6.2510    6.4855 C   0  0  0  0  0  0  0  0  0  0  0  0
    6.1736    6.2873    7.4274 H   0  0  0  0  0  0  0  0  0  0  0  0
    5.9919    7.0710    5.4513 C   0  0  0  0  0  0  0  0  0  0  0  0
    6.7855    7.7966    5.5114 H   0  0  0  0  0  0  0  0  0  0  0  0
    5.2650    6.9877    4.2434 C   0  0  0  0  0  0  0  0  0  0  0  0
    5.0602    8.3382    1.0833 C   0  0  0  0  0  0  0  0  0  0  0  0
    6.3998    8.5103    0.7247 C   0  0  0  0  0  0  0  0  0  0  0  0
    7.1638    8.1065    1.3712 H   0  0  0  0  0  0  0  0  0  0  0  0
    6.7218    9.1708   -0.4441 C   0  0  0  0  0  0  0  0  0  0  0  0
    7.7586    9.2854   -0.7236 H   0  0  0  0  0  0  0  0  0  0  0  0
    5.7224    9.6818   -1.2572 C   0  0  0  0  0  0  0  0  0  0  0  0
    5.9774   10.1914   -2.1741 H   0  0  0  0  0  0  0  0  0  0  0  0
    4.3945    9.5541   -0.8803 C   0  0  0  0  0  0  0  0  0  0  0  0
    3.6146    9.9796   -1.4941 H   0  0  0  0  0  0  0  0  0  0  0  0
    4.0592    8.8904    0.2838 C   0  0  0  0  0  0  0  0  0  0  0  0
    3.0289    8.8314    0.6054 H   0  0  0  0  0  0  0  0  0  0  0  0
    0.9942    6.8978    0.4310 C   0  0  0  0  0  3  0  0  0  0  0  0
    0.5205    7.3072    1.3135 H   0  0  0  0  0  0  0  0  0  0  0  0
    0.3257    6.8537   -0.7647 C   0  0  0  0  0  0  0  0  0  0  0  0
   -0.6861    7.2202   -0.8243 H   0  0  0  0  0  0  0  0  0  0  0  0
    0.9681    6.3345   -1.9007 C   0  0  0  0  0  0  0  0  0  0  0  0
    0.4558    6.3012   -2.8498 H   0  0  0  0  0  0  0  0  0  0  0  0
    2.2448    5.8717   -1.7684 C   0  0  0  0  0  0  0  0  0  0  0  0
    2.8058    5.4465   -2.5834 H   0  0  0  0  0  0  0  0  0  0  0  0
    2.8647    5.9301   -0.5017 C   0  0  0  0  0  0  0  0  0  0  0  0
    5.7981    5.1738    1.1291 C   0  0  0  0  0  0  0  0  0  0  0  0
    6.7831    5.4876    0.1848 C   0  0  0  0  0  0  0  0  0  0  0  0
    6.4828    5.9875   -0.7232 H   0  0  0  0  0  0  0  0  0  0  0  0
    8.1065    5.1998    0.4237 C   0  0  0  0  0  0  0  0  0  0  0  0
    8.8548    5.5066   -0.2894 H   0  0  0  0  0  0  0  0  0  0  0  0
    8.4927    4.5545    1.6044 C   0  0  0  0  0  0  0  0  0  0  0  0
    7.4999    4.2213    2.5359 C   0  0  0  0  0  0  0  0  0  0  0  0
    7.7809    3.7107    3.4463 H   0  0  0  0  0  0  0  0  0  0  0  0
    6.1786    4.5193    2.3041 C   0  0  0  0  0  0  0  0  0  0  0  0
    5.4208    4.2005    3.0052 H   0  0  0  0  0  0  0  0  0  0  0  0
   10.9015    4.1651    1.0718 C   0  0  0  0  0  0  0  0  0  0  0  0
   10.7910    3.7785   -0.2633 C   0  0  0  0  0  0  0  0  0  0  0  0
    9.8234    3.5403   -0.6760 H   0  0  0  0  0  0  0  0  0  0  0  0
   11.9244    3.6596   -1.0454 C   0  0  0  0  0  0  0  0  0  0  0  0
   11.8252    3.3581   -2.0778 H   0  0  0  0  0  0  0  0  0  0  0  0
   13.1795    3.9072   -0.5151 C   0  0  0  0  0  0  0  0  0  0  0  0
   14.0597    3.8125   -1.1322 H   0  0  0  0  0  0  0  0  0  0  0  0
   13.2975    4.2607    0.8192 C   0  0  0  0  0  0  0  0  0  0  0  0
   14.2722    4.4401    1.2481 H   0  0  0  0  0  0  0  0  0  0  0  0
   12.1714    4.3866    1.6077 C   0  0  0  0  0  0  0  0  0  0  0  0
   12.2656    4.6597    2.6496 H   0  0  0  0  0  0  0  0  0  0  0  0
  1  3  1  0  0  0  0
  1  2  1  0  0  0  0
  1  4  1  0  0  0  0
  4 20  1  0  0  0  0
  4 12  1  0  0  0  0
  5 20  1  0  0  0  0
  6  1  1  0  0  0  0
  6  5  1  0  0  0  0
  7  1  1  0  0  0  0
  8  9  1  0  0  0  0
  9 41  1  0  0  0  0
  9  1  1  0  0  0  0
 10 11  1  0  0  0  0
 12 14  1  0  0  0  0
 13 12  1  0  0  0  0
 14 16  2  0  0  0  0
 14 15  1  0  0  0  0
 16 17  1  0  0  0  0
 18 19  1  0  0  0  0
 18 16  1  0  0  0  0
 20 18  2  0  0  0  0
 21  6  1  0  0  0  0
 22 21  1  0  0  0  0
 22 23  1  0  0  0  0
 24 22  2  0  0  0  0
 25 24  1  0  0  0  0
 26 28  2  0  0  0  0
 26 24  1  0  0  0  0
 27 26  1  0  0  0  0
 28 30  1  0  0  0  0
 29 28  1  0  0  0  0
 30 31  1  0  0  0  0
 30 21  2  0  0  0  0
 32  7  1  0  0  0  0
 32 33  1  0  0  0  0
 34 32  1  0  0  0  0
 35 34  1  0  0  0  0
 36 38  1  0  0  0  0
 36 34  2  0  0  0  0
 37 36  1  0  0  0  0
 38 40  2  0  0  0  0
 39 38  1  0  0  0  0
 40  8  1  0  0  0  0
 40  7  1  0  0  0  0
 41 49  1  0  0  0  0
 42 44  1  0  0  0  0
 42 41  2  0  0  0  0
 43 42  1  0  0  0  0
 44 46  2  0  0  0  0
 45 44  1  0  0  0  0
 46 10  1  0  0  0  0
 46 47  1  0  0  0  0
 47 48  1  0  0  0  0
 49 47  2  0  0  0  0
 49 50  1  0  0  0  0
 51 60  1  0  0  0  0
 51 10  1  0  0  0  0
 52 51  2  0  0  0  0
 53 52  1  0  0  0  0
 54 56  2  0  0  0  0
 54 52  1  0  0  0  0
 55 54  1  0  0  0  0
 56 58  1  0  0  0  0
 57 56  1  0  0  0  0
 58 59  1  0  0  0  0
 58 60  2  0  0  0  0
 60 61  1  0  0  0  0
M  END
$$$$
