CSD_code = XOZNUV | q = 0 | S = 0 | Stoichiometry = C31H35ClNPPd | MND = 4
 OpenBabel04212202123D

 70 74  0  0  1  0  0  0  0  0999 V2000
    7.8525    5.5302    3.5854 Pd  0  0  1  0  0  0  0  0  0  0  0  0
    5.9175    4.9944    4.5353 P   0  0  0  0  0  4  0  0  0  0  0  0
    7.2426    4.2478    1.7124 Cl  0  0  0  0  0  0  0  0  0  0  0  0
    9.7638    5.9667    2.7675 N   0  0  0  0  0  4  0  0  0  0  0  0
    8.6223    6.5153    5.1468 C   0  0  0  0  0  0  0  0  0  0  0  0
    8.3609    6.3924    6.5061 C   0  0  0  0  0  0  0  0  0  0  0  0
    7.5147    5.8045    6.8481 H   0  0  0  0  0  0  0  0  0  0  0  0
    9.1638    7.0144    7.4511 C   0  0  0  0  0  0  0  0  0  0  0  0
    8.9366    6.9066    8.5025 H   0  0  0  0  0  0  0  0  0  0  0  0
   10.2599    7.7573    7.0518 C   0  0  0  0  0  0  0  0  0  0  0  0
   10.8954    8.2311    7.7860 H   0  0  0  0  0  0  0  0  0  0  0  0
   10.5508    7.8782    5.7038 C   0  0  0  0  0  0  0  0  0  0  0  0
   11.4218    8.4377    5.3895 H   0  0  0  0  0  0  0  0  0  0  0  0
    9.7331    7.2768    4.7579 C   0  0  0  0  0  0  0  0  0  0  0  0
   10.0376    7.3385    3.2738 C   0  0  2  0  0  0  0  0  0  0  0  0
   11.1111    7.5575    3.1264 H   0  0  0  0  0  0  0  0  0  0  0  0
    9.2502    8.5109    2.5849 C   0  0  0  0  0  0  0  0  0  0  0  0
    7.7658    8.2027    2.3381 C   0  0  0  0  0  0  0  0  0  0  0  0
    7.3230    9.0316    1.7866 H   0  0  0  0  0  0  0  0  0  0  0  0
    7.2266    8.1141    3.2910 H   0  0  0  0  0  0  0  0  0  0  0  0
    7.6063    7.2917    1.7448 H   0  0  0  0  0  0  0  0  0  0  0  0
    9.3163    9.7362    3.5129 C   0  0  0  0  0  0  0  0  0  0  0  0
    8.8193   10.5798    3.0386 H   0  0  0  0  0  0  0  0  0  0  0  0
   10.3480   10.0181    3.7091 H   0  0  0  0  0  0  0  0  0  0  0  0
    8.8256    9.5449    4.4631 H   0  0  0  0  0  0  0  0  0  0  0  0
    9.9147    8.9414    1.2669 C   0  0  0  0  0  0  0  0  0  0  0  0
    9.5261    9.9139    0.9703 H   0  0  0  0  0  0  0  0  0  0  0  0
    9.7232    8.2554    0.4499 H   0  0  0  0  0  0  0  0  0  0  0  0
   10.9916    9.0399    1.3901 H   0  0  0  0  0  0  0  0  0  0  0  0
   10.6743    5.0124    3.4162 C   0  0  0  0  0  0  0  0  0  0  0  0
   11.7116    5.1906    3.0951 H   0  0  0  0  0  0  0  0  0  0  0  0
   10.3904    3.9970    3.1247 H   0  0  0  0  0  0  0  0  0  0  0  0
   10.6337    5.0937    4.5040 H   0  0  0  0  0  0  0  0  0  0  0  0
    9.9721    5.8133    1.3294 C   0  0  0  0  0  0  0  0  0  0  0  0
   10.9643    6.1821    1.0387 H   0  0  0  0  0  0  0  0  0  0  0  0
    9.2035    6.3260    0.7585 H   0  0  0  0  0  0  0  0  0  0  0  0
    9.8971    4.7564    1.0719 H   0  0  0  0  0  0  0  0  0  0  0  0
    6.3195    3.6874    5.7406 C   0  0  0  0  0  0  0  0  0  0  0  0
    5.5847    3.4027    6.8850 C   0  0  0  0  0  0  0  0  0  0  0  0
    4.7049    3.9831    7.1240 H   0  0  0  0  0  0  0  0  0  0  0  0
    5.9934    2.3839    7.7290 C   0  0  0  0  0  0  0  0  0  0  0  0
    5.4232    2.1663    8.6206 H   0  0  0  0  0  0  0  0  0  0  0  0
    7.1291    1.6470    7.4366 C   0  0  0  0  0  0  0  0  0  0  0  0
    7.4408    0.8525    8.0987 H   0  0  0  0  0  0  0  0  0  0  0  0
    7.8700    1.9325    6.2999 C   0  0  0  0  0  0  0  0  0  0  0  0
    8.7587    1.3602    6.0771 H   0  0  0  0  0  0  0  0  0  0  0  0
    7.4720    2.9535    5.4573 C   0  0  0  0  0  0  0  0  0  0  0  0
    8.0493    3.1941    4.5567 H   0  0  0  0  0  0  0  0  0  0  0  0
    4.8407    6.1762    5.4150 C   0  0  0  0  0  0  0  0  0  0  0  0
    3.5350    5.8275    5.7515 C   0  0  0  0  0  0  0  0  0  0  0  0
    3.1508    4.8539    5.4779 H   0  0  0  0  0  0  0  0  0  0  0  0
    2.7259    6.7301    6.4166 C   0  0  0  0  0  0  0  0  0  0  0  0
    1.7156    6.4526    6.6803 H   0  0  0  0  0  0  0  0  0  0  0  0
    3.2060    7.9896    6.7394 C   0  0  0  0  0  0  0  0  0  0  0  0
    2.5704    8.6925    7.2574 H   0  0  0  0  0  0  0  0  0  0  0  0
    4.4964    8.3488    6.3877 C   0  0  0  0  0  0  0  0  0  0  0  0
    4.8688    9.3339    6.6275 H   0  0  0  0  0  0  0  0  0  0  0  0
    5.3101    7.4462    5.7262 C   0  0  0  0  0  0  0  0  0  0  0  0
    6.3213    7.7164    5.4502 H   0  0  0  0  0  0  0  0  0  0  0  0
    4.6842    4.2165    3.4496 C   0  0  0  0  0  0  0  0  0  0  0  0
    4.0913    5.0447    2.5000 C   0  0  0  0  0  0  0  0  0  0  0  0
    4.3803    6.0893    2.4598 H   0  0  0  0  0  0  0  0  0  0  0  0
    3.1711    4.5298    1.6100 C   0  0  0  0  0  0  0  0  0  0  0  0
    2.7184    5.1711    0.8678 H   0  0  0  0  0  0  0  0  0  0  0  0
    2.8391    3.1842    1.6614 C   0  0  0  0  0  0  0  0  0  0  0  0
    2.1242    2.7782    0.9608 H   0  0  0  0  0  0  0  0  0  0  0  0
    3.4336    2.3577    2.5989 C   0  0  0  0  0  0  0  0  0  0  0  0
    3.1834    1.3070    2.6295 H   0  0  0  0  0  0  0  0  0  0  0  0
    4.3590    2.8683    3.4935 C   0  0  0  0  0  0  0  0  0  0  0  0
    4.8352    2.2184    4.2151 H   0  0  0  0  0  0  0  0  0  0  0  0
  1  3  1  1  0  0  0
  1  2  1  0  0  0  0
  1  5  1  0  0  0  0
  2 49  1  0  0  0  0
  2 38  1  0  0  0  0
  4 15  1  0  0  0  0
  4 30  1  0  0  0  0
  4  1  1  0  0  0  0
  5  6  1  0  0  0  0
  6  7  1  0  0  0  0
  6  8  2  0  0  0  0
  8  9  1  0  0  0  0
 10  8  1  0  0  0  0
 10 11  1  0  0  0  0
 12 10  2  0  0  0  0
 13 12  1  0  0  0  0
 14  5  2  0  0  0  0
 14 12  1  0  0  0  0
 15 16  1  6  0  0  0
 15 14  1  0  0  0  0
 17 15  1  0  0  0  0
 17 22  1  0  0  0  0
 18 17  1  0  0  0  0
 18 20  1  0  0  0  0
 19 18  1  0  0  0  0
 21 18  1  0  0  0  0
 22 24  1  0  0  0  0
 22 25  1  0  0  0  0
 23 22  1  0  0  0  0
 26 29  1  0  0  0  0
 26 17  1  0  0  0  0
 27 26  1  0  0  0  0
 28 26  1  0  0  0  0
 30 33  1  0  0  0  0
 31 30  1  0  0  0  0
 32 30  1  0  0  0  0
 34  4  1  0  0  0  0
 35 34  1  0  0  0  0
 36 34  1  0  0  0  0
 37 34  1  0  0  0  0
 38 39  1  0  0  0  0
 39 40  1  0  0  0  0
 39 41  2  0  0  0  0
 41 42  1  0  0  0  0
 43 41  1  0  0  0  0
 43 44  1  0  0  0  0
 45 43  2  0  0  0  0
 46 45  1  0  0  0  0
 47 38  2  0  0  0  0
 47 45  1  0  0  0  0
 48 47  1  0  0  0  0
 49 58  2  0  0  0  0
 49 50  1  0  0  0  0
 50 52  2  0  0  0  0
 51 50  1  0  0  0  0
 52 53  1  0  0  0  0
 52 54  1  0  0  0  0
 54 55  1  0  0  0  0
 56 57  1  0  0  0  0
 56 54  2  0  0  0  0
 58 56  1  0  0  0  0
 59 58  1  0  0  0  0
 60 69  1  0  0  0  0
 60  2  1  0  0  0  0
 61 60  2  0  0  0  0
 62 61  1  0  0  0  0
 63 65  2  0  0  0  0
 63 61  1  0  0  0  0
 64 63  1  0  0  0  0
 65 67  1  0  0  0  0
 66 65  1  0  0  0  0
 67 68  1  0  0  0  0
 67 69  2  0  0  0  0
 69 70  1  0  0  0  0
M  END
$$$$
