CSD_code = XOZQAE | q = 0 | S = 0 | Stoichiometry = C24H37ClNPPd | MND = 4
 OpenBabel04212202123D

 65 67  0  0  1  0  0  0  0  0999 V2000
   -7.9801  -10.6327   -3.2693 Pd  0  0  2  0  0  0  0  0  0  0  0  0
   -9.0217   -8.9060   -2.0578 Cl  0  0  0  0  0  0  0  0  0  0  0  0
   -9.5192  -10.8975   -4.8760 P   0  0  1  0  0  4  0  0  0  0  0  0
   -6.4116  -10.6396   -1.7920 N   0  0  0  0  0  4  0  0  0  0  0  0
   -6.6521  -10.1010   -0.4552 C   0  0  0  0  0  0  0  0  0  0  0  0
   -5.3405   -9.8202   -2.3764 C   0  0  0  0  0  0  0  0  0  0  0  0
   -6.0003  -12.0703   -1.7806 C   0  0  1  0  0  0  0  0  0  0  0  0
   -6.9705  -13.0841   -1.0746 C   0  0  0  0  0  0  0  0  0  0  0  0
   -8.4496  -12.8671   -1.4226 C   0  0  0  0  0  0  0  0  0  0  0  0
   -6.7935  -13.0783    0.4527 C   0  0  0  0  0  0  0  0  0  0  0  0
   -6.5910  -14.4999   -1.5416 C   0  0  0  0  0  0  0  0  0  0  0  0
   -5.7983  -12.4320   -3.2379 C   0  0  0  0  0  0  0  0  0  0  0  0
   -6.7092  -11.9040   -4.1632 C   0  0  0  0  0  0  0  0  0  0  0  0
   -6.4591  -12.1265   -5.5116 C   0  0  0  0  0  0  0  0  0  0  0  0
   -5.3730  -12.8819   -5.9308 C   0  0  0  0  0  0  0  0  0  0  0  0
   -4.4968  -13.4147   -5.0037 C   0  0  0  0  0  0  0  0  0  0  0  0
   -4.7010  -13.1711   -3.6569 C   0  0  0  0  0  0  0  0  0  0  0  0
   -9.7787  -12.6100   -5.4908 C   0  0  0  0  0  0  0  0  0  0  0  0
  -11.2581   -8.7610   -4.6105 C   0  0  0  0  0  0  0  0  0  0  0  0
  -12.2462  -10.7814   -5.6857 C   0  0  0  0  0  0  0  0  0  0  0  0
  -11.7020  -10.8113   -3.2360 C   0  0  0  0  0  0  0  0  0  0  0  0
  -11.2811  -10.2881   -4.6091 C   0  0  0  0  0  0  0  0  0  0  0  0
   -8.9282   -9.9324   -6.3045 C   0  0  0  0  0  0  0  0  0  0  0  0
   -8.0305   -8.9087   -5.9974 C   0  0  0  0  0  0  0  0  0  0  0  0
   -7.5277   -8.0948   -6.9946 C   0  0  0  0  0  0  0  0  0  0  0  0
   -7.9111   -8.2987   -8.3111 C   0  0  0  0  0  0  0  0  0  0  0  0
   -8.7910   -9.3207   -8.6250 C   0  0  0  0  0  0  0  0  0  0  0  0
   -9.2991  -10.1365   -7.6285 C   0  0  0  0  0  0  0  0  0  0  0  0
   -5.8105  -10.3274    0.2119 H   0  0  0  0  0  0  0  0  0  0  0  0
   -7.5753  -10.4873   -0.0325 H   0  0  0  0  0  0  0  0  0  0  0  0
   -6.7651   -9.0187   -0.5198 H   0  0  0  0  0  0  0  0  0  0  0  0
   -4.4552   -9.8169   -1.7231 H   0  0  0  0  0  0  0  0  0  0  0  0
   -5.6994   -8.7926   -2.4809 H   0  0  0  0  0  0  0  0  0  0  0  0
   -5.0408  -10.1887   -3.3589 H   0  0  0  0  0  0  0  0  0  0  0  0
   -5.0343  -12.1474   -1.2482 H   0  0  0  0  0  0  0  0  0  0  0  0
   -9.0536  -13.5631   -0.8415 H   0  0  0  0  0  0  0  0  0  0  0  0
   -8.6257  -13.0771   -2.4864 H   0  0  0  0  0  0  0  0  0  0  0  0
   -8.7978  -11.8523   -1.1859 H   0  0  0  0  0  0  0  0  0  0  0  0
   -7.2398  -13.9797    0.8685 H   0  0  0  0  0  0  0  0  0  0  0  0
   -7.2724  -12.2322    0.9322 H   0  0  0  0  0  0  0  0  0  0  0  0
   -5.7391  -13.0776    0.7221 H   0  0  0  0  0  0  0  0  0  0  0  0
   -7.2182  -15.2310   -1.0359 H   0  0  0  0  0  0  0  0  0  0  0  0
   -5.5536  -14.7216   -1.3027 H   0  0  0  0  0  0  0  0  0  0  0  0
   -6.7309  -14.6172   -2.6126 H   0  0  0  0  0  0  0  0  0  0  0  0
   -7.1060  -11.6957   -6.2677 H   0  0  0  0  0  0  0  0  0  0  0  0
   -5.2065  -13.0401   -6.9873 H   0  0  0  0  0  0  0  0  0  0  0  0
   -3.6455  -13.9963   -5.3262 H   0  0  0  0  0  0  0  0  0  0  0  0
   -3.9956  -13.5499   -2.9295 H   0  0  0  0  0  0  0  0  0  0  0  0
  -10.2992  -12.6192   -6.4451 H   0  0  0  0  0  0  0  0  0  0  0  0
  -10.3659  -13.1569   -4.7537 H   0  0  0  0  0  0  0  0  0  0  0  0
   -8.8137  -13.1003   -5.5972 H   0  0  0  0  0  0  0  0  0  0  0  0
  -12.2338   -8.3739   -4.3212 H   0  0  0  0  0  0  0  0  0  0  0  0
  -11.0122   -8.3752   -5.5992 H   0  0  0  0  0  0  0  0  0  0  0  0
  -10.5240   -8.3945   -3.8951 H   0  0  0  0  0  0  0  0  0  0  0  0
  -13.2210  -10.3251   -5.5177 H   0  0  0  0  0  0  0  0  0  0  0  0
  -12.3759  -11.8605   -5.6523 H   0  0  0  0  0  0  0  0  0  0  0  0
  -11.9107  -10.4888   -6.6785 H   0  0  0  0  0  0  0  0  0  0  0  0
  -12.7073  -10.4722   -2.9927 H   0  0  0  0  0  0  0  0  0  0  0  0
  -11.0196  -10.4333   -2.4744 H   0  0  0  0  0  0  0  0  0  0  0  0
  -11.6915  -11.9014   -3.2080 H   0  0  0  0  0  0  0  0  0  0  0  0
   -7.7278   -8.7629   -4.9535 H   0  0  0  0  0  0  0  0  0  0  0  0
   -6.8350   -7.3029   -6.7505 H   0  0  0  0  0  0  0  0  0  0  0  0
   -7.5193   -7.6659   -9.0937 H   0  0  0  0  0  0  0  0  0  0  0  0
   -9.0824   -9.4856   -9.6524 H   0  0  0  0  0  0  0  0  0  0  0  0
   -9.9737  -10.9378   -7.8938 H   0  0  0  0  0  0  0  0  0  0  0  0
  1  2  1  6  0  0  0
  1  4  1  0  0  0  0
  3 18  1  6  0  0  0
  3 22  1  0  0  0  0
  3  1  1  0  0  0  0
  4  7  1  0  0  0  0
  4  5  1  0  0  0  0
  5 30  1  0  0  0  0
  5 29  1  0  0  0  0
  6  4  1  0  0  0  0
  6 32  1  0  0  0  0
  7 35  1  1  0  0  0
  7  8  1  0  0  0  0
  8 10  1  0  0  0  0
  9 38  1  0  0  0  0
  9  8  1  0  0  0  0
  9 36  1  0  0  0  0
 10 41  1  0  0  0  0
 10 39  1  0  0  0  0
 10 40  1  0  0  0  0
 11 43  1  0  0  0  0
 11  8  1  0  0  0  0
 11 42  1  0  0  0  0
 12  7  1  0  0  0  0
 13  1  1  0  0  0  0
 13 12  2  0  0  0  0
 14 13  1  0  0  0  0
 15 14  2  0  0  0  0
 15 16  1  0  0  0  0
 16 17  2  0  0  0  0
 17 12  1  0  0  0  0
 17 48  1  0  0  0  0
 18 50  1  0  0  0  0
 19 22  1  0  0  0  0
 19 52  1  0  0  0  0
 19 54  1  0  0  0  0
 20 56  1  0  0  0  0
 20 55  1  0  0  0  0
 20 22  1  0  0  0  0
 21 60  1  0  0  0  0
 21 58  1  0  0  0  0
 21 59  1  0  0  0  0
 22 21  1  0  0  0  0
 23 24  1  0  0  0  0
 23  3  1  0  0  0  0
 24 61  1  0  0  0  0
 25 62  1  0  0  0  0
 25 24  2  0  0  0  0
 26 25  1  0  0  0  0
 27 26  2  0  0  0  0
 27 28  1  0  0  0  0
 28 23  2  0  0  0  0
 31  5  1  0  0  0  0
 33  6  1  0  0  0  0
 34  6  1  0  0  0  0
 37  9  1  0  0  0  0
 44 11  1  0  0  0  0
 45 14  1  0  0  0  0
 46 15  1  0  0  0  0
 47 16  1  0  0  0  0
 49 18  1  0  0  0  0
 51 18  1  0  0  0  0
 53 19  1  0  0  0  0
 57 20  1  0  0  0  0
 63 26  1  0  0  0  0
 64 27  1  0  0  0  0
 65 28  1  0  0  0  0
M  END
$$$$
