CSD_code = XOZXIV | q = 0 | S = 0 | Stoichiometry = C16H11BrN2Ni | MND = 4
 OpenBabel04212202123D

 31 35  0  0  0  0  0  0  0  0999 V2000
   -3.3447   -1.8125    6.4722 Br  0  0  0  0  0  0  0  0  0  0  0  0
   -1.5372   -0.6471    6.6556 Ni  0  0  1  0  0  0  0  0  0  0  0  0
   -2.2459    0.7388    8.0161 N   0  0  0  0  0  0  0  0  0  0  0  0
   -0.4579   -1.6569    5.4485 C   0  0  0  0  0  0  0  0  0  0  0  0
   -0.0087    0.4019    6.8403 N   0  0  0  0  0  0  0  0  0  0  0  0
   -0.0233    1.4613    7.6555 C   0  0  0  0  0  0  0  0  0  0  0  0
   -1.3080    1.6531    8.3365 C   0  0  0  0  0  0  0  0  0  0  0  0
   -3.4432    0.8232    8.5792 C   0  0  0  0  0  0  0  0  0  0  0  0
   -4.1655    0.0690    8.2925 H   0  0  0  0  0  0  0  0  0  0  0  0
   -3.7757    1.8153    9.4889 C   0  0  0  0  0  0  0  0  0  0  0  0
   -4.7637    1.8395    9.9188 H   0  0  0  0  0  0  0  0  0  0  0  0
   -2.8197    2.7599    9.8257 C   0  0  0  0  0  0  0  0  0  0  0  0
   -3.0419    3.5470   10.5305 H   0  0  0  0  0  0  0  0  0  0  0  0
   -1.5683    2.6777    9.2411 C   0  0  0  0  0  0  0  0  0  0  0  0
   -0.8033    3.3976    9.4833 H   0  0  0  0  0  0  0  0  0  0  0  0
    1.1054    2.2628    7.7982 C   0  0  0  0  0  0  0  0  0  0  0  0
    1.0986    3.1185    8.4531 H   0  0  0  0  0  0  0  0  0  0  0  0
    2.2456    1.9392    7.0774 C   0  0  0  0  0  0  0  0  0  0  0  0
    3.1325    2.5477    7.1727 H   0  0  0  0  0  0  0  0  0  0  0  0
    2.2437    0.8386    6.2387 C   0  0  0  0  0  0  0  0  0  0  0  0
    3.1228    0.5763    5.6731 H   0  0  0  0  0  0  0  0  0  0  0  0
    1.0840    0.0721    6.1351 C   0  0  0  0  0  0  0  0  0  0  0  0
    0.8513   -1.1135    5.3279 C   0  0  0  0  0  0  0  0  0  0  0  0
   -0.7431   -2.7975    4.7015 C   0  0  0  0  0  3  0  0  0  0  0  0
   -1.7169   -3.2625    4.7450 H   0  0  0  0  0  0  0  0  0  0  0  0
    0.2172   -3.3712    3.8777 C   0  0  0  0  0  0  0  0  0  0  0  0
   -0.0388   -4.2561    3.3134 H   0  0  0  0  0  0  0  0  0  0  0  0
    1.4859   -2.8283    3.7721 C   0  0  0  0  0  0  0  0  0  0  0  0
    2.2233   -3.2839    3.1277 H   0  0  0  0  0  0  0  0  0  0  0  0
    1.8032   -1.6979    4.4981 C   0  0  0  0  0  0  0  0  0  0  0  0
    2.7908   -1.2653    4.4241 H   0  0  0  0  0  0  0  0  0  0  0  0
  2  1  1  6  0  0  0
  2  5  1  0  0  0  0
  2  3  1  0  0  0  0
  3  7  1  0  0  0  0
  3  8  1  0  0  0  0
  4  2  2  0  0  0  0
  5  6  1  0  0  0  0
  6 16  1  0  0  0  0
  6  7  2  0  0  0  0
  7 14  1  0  0  0  0
  8 10  2  0  0  0  0
  9  8  1  0  0  0  0
 10 12  1  0  0  0  0
 10 11  1  0  0  0  0
 12 13  1  0  0  0  0
 14 15  1  0  0  0  0
 14 12  2  0  0  0  0
 16 17  1  0  0  0  0
 18 19  1  0  0  0  0
 18 16  2  0  0  0  0
 20 18  1  0  0  0  0
 21 20  1  0  0  0  0
 22 20  2  0  0  0  0
 22  5  1  0  0  0  0
 23  4  1  0  0  0  0
 23 22  1  0  0  0  0
 24 25  1  0  0  0  0
 24  4  1  0  0  0  0
 26 24  1  0  0  0  0
 27 26  1  0  0  0  0
 28 26  2  0  0  0  0
 28 30  1  0  0  0  0
 29 28  1  0  0  0  0
 30 23  2  0  0  0  0
 31 30  1  0  0  0  0
M  END
$$$$
