CSD_code = XUCDUW | q = 0 | S = 0 | Stoichiometry = C19H24BClN8ORu | MND = 6
 OpenBabel04212202123D

 55 61  0  0  1  0  0  0  0  0999 V2000
    5.1157   14.2776   13.1997 Ru  0  0  0  0  0  0  0  0  0  0  0  0
    3.0875   13.2510   12.6192 Cl  0  0  0  0  0  0  0  0  0  0  0  0
    6.1152   12.5999   15.1010 O   0  0  0  0  0  1  0  0  0  0  0  0
    5.8847   12.7764   13.8939 N   0  0  0  0  0  0  0  0  0  0  0  0
    6.8157   15.3348   13.5964 N   0  0  1  0  0  0  0  0  0  0  0  0
    6.7338   16.5357   14.1663 N   0  0  0  0  0  0  0  0  0  0  0  0
    4.4103   16.1083   12.4204 N   0  0  2  0  0  0  0  0  0  0  0  0
    4.6025   17.2218   13.1329 N   0  0  0  0  0  0  0  0  0  0  0  0
    4.4104   14.9249   14.9728 N   0  0  1  0  0  0  0  0  0  0  0  0
    4.6058   16.1829   15.3674 N   0  0  0  0  0  0  0  0  0  0  0  0
    5.7023   13.4036   11.3033 N   0  0  0  0  0  4  0  0  0  0  0  0
    8.0995   15.0353   13.4485 C   0  0  0  0  0  3  0  0  0  0  0  0
    8.8786   16.0821   13.9382 C   0  0  0  0  0  0  0  0  0  0  0  0
    7.9656   17.0152   14.3842 C   0  0  0  0  0  0  0  0  0  0  0  0
    3.7018   16.4308   11.3475 C   0  0  0  0  0  3  0  0  0  0  0  0
    3.4267   17.7971   11.3600 C   0  0  0  0  0  0  0  0  0  0  0  0
    4.0211   18.2590   12.5163 C   0  0  0  0  0  0  0  0  0  0  0  0
    3.7080   14.2983   15.8989 C   0  0  0  0  0  3  0  0  0  0  0  0
    3.4324   15.1834   16.9428 C   0  0  0  0  0  0  0  0  0  0  0  0
    4.0214   16.3689   16.5623 C   0  0  0  0  0  0  0  0  0  0  0  0
    6.3947   11.8292   12.9874 C   0  0  0  0  0  0  0  0  0  0  0  0
    6.3495   12.1724   11.6315 C   0  0  0  0  0  0  0  0  0  0  0  0
    6.9162   11.3150   10.7060 C   0  0  0  0  0  0  0  0  0  0  0  0
    7.4945   10.1285   11.1262 C   0  0  0  0  0  0  0  0  0  0  0  0
    7.5285    9.7587   12.4716 C   0  0  0  0  0  0  0  0  0  0  0  0
    6.9764   10.6304   13.3970 C   0  0  0  0  0  0  0  0  0  0  0  0
    8.1671    8.4383   12.8702 C   0  0  0  0  0  0  0  0  0  0  0  0
    8.1316    8.2072   14.3827 C   0  0  0  0  0  0  0  0  0  0  0  0
    9.6338    8.4326   12.4163 C   0  0  0  0  0  0  0  0  0  0  0  0
    7.4046    7.2933   12.1890 C   0  0  0  0  0  0  0  0  0  0  0  0
    5.3628   17.1671   14.4706 B   0  0  1  0  0  0  0  0  0  0  0  0
    5.4689   18.2348   14.9617 H   0  0  0  0  0  0  0  0  0  0  0  0
    8.4121   14.1023   13.0145 H   0  0  0  0  0  0  0  0  0  0  0  0
    9.9466   16.1440   13.9645 H   0  0  0  0  0  0  0  0  0  0  0  0
    8.1176   17.9745   14.8350 H   0  0  0  0  0  0  0  0  0  0  0  0
    3.4045   15.6867   10.6320 H   0  0  0  0  0  0  0  0  0  0  0  0
    2.8746   18.3595   10.6359 H   0  0  0  0  0  0  0  0  0  0  0  0
    4.0624   19.2461   12.9298 H   0  0  0  0  0  0  0  0  0  0  0  0
    3.4391   13.2640   15.7923 H   0  0  0  0  0  0  0  0  0  0  0  0
    2.8836   14.9815   17.8391 H   0  0  0  0  0  0  0  0  0  0  0  0
    4.0601   17.3179   17.0574 H   0  0  0  0  0  0  0  0  0  0  0  0
    6.9071   11.5693    9.6552 H   0  0  0  0  0  0  0  0  0  0  0  0
    7.9230    9.4793   10.3788 H   0  0  0  0  0  0  0  0  0  0  0  0
    6.9773   10.4322   14.4567 H   0  0  0  0  0  0  0  0  0  0  0  0
    8.5985    7.2521   14.6140 H   0  0  0  0  0  0  0  0  0  0  0  0
    8.6778    8.9850   14.9107 H   0  0  0  0  0  0  0  0  0  0  0  0
    7.1088    8.1784   14.7495 H   0  0  0  0  0  0  0  0  0  0  0  0
    9.7181    8.5154   11.3362 H   0  0  0  0  0  0  0  0  0  0  0  0
   10.1143    7.5067   12.7237 H   0  0  0  0  0  0  0  0  0  0  0  0
   10.1702    9.2651   12.8666 H   0  0  0  0  0  0  0  0  0  0  0  0
    6.3587    7.3098   12.4869 H   0  0  0  0  0  0  0  0  0  0  0  0
    7.8316    6.3363   12.4804 H   0  0  0  0  0  0  0  0  0  0  0  0
    7.4521    7.3713   11.1063 H   0  0  0  0  0  0  0  0  0  0  0  0
    4.7086   13.1951   11.0842 H   0  0  0  0  0  0  0  0  0  0  0  0
    6.1248   13.8424   10.4845 H   0  0  0  0  0  0  0  0  0  0  0  0
  1  5  1  0  0  0  0
  1  4  1  0  0  0  0
  1  9  1  0  0  0  0
  2  1  1  0  0  0  0
  4  3  1  0  0  0  0
  5 12  1  1  0  0  0
  5  6  1  0  0  0  0
  6 14  1  0  0  0  0
  6 31  1  0  0  0  0
  7 15  1  1  0  0  0
  7  8  1  0  0  0  0
  7  1  1  0  0  0  0
  8 31  1  0  0  0  0
  9 10  1  0  0  0  0
  9 18  1  6  0  0  0
 10 20  1  0  0  0  0
 11 22  1  0  0  0  0
 11  1  1  0  0  0  0
 12 13  1  0  0  0  0
 13 34  1  0  0  0  0
 13 14  2  0  0  0  0
 14 35  1  0  0  0  0
 15 16  1  0  0  0  0
 16 17  2  0  0  0  0
 17 38  1  0  0  0  0
 17  8  1  0  0  0  0
 18 19  1  0  0  0  0
 19 40  1  0  0  0  0
 20 19  2  0  0  0  0
 20 41  1  0  0  0  0
 21 26  1  0  0  0  0
 21  4  1  0  0  0  0
 22 21  2  0  0  0  0
 23 24  2  0  0  0  0
 23 22  1  0  0  0  0
 24 25  1  0  0  0  0
 25 27  1  0  0  0  0
 25 26  2  0  0  0  0
 26 44  1  0  0  0  0
 27 28  1  0  0  0  0
 28 45  1  0  0  0  0
 28 47  1  0  0  0  0
 28 46  1  0  0  0  0
 29 49  1  0  0  0  0
 29 50  1  0  0  0  0
 29 27  1  0  0  0  0
 30 52  1  0  0  0  0
 30 51  1  0  0  0  0
 30 27  1  0  0  0  0
 31 32  1  1  0  0  0
 31 10  1  0  0  0  0
 33 12  1  0  0  0  0
 36 15  1  0  0  0  0
 37 16  1  0  0  0  0
 39 18  1  0  0  0  0
 42 23  1  0  0  0  0
 43 24  1  0  0  0  0
 48 29  1  0  0  0  0
 53 30  1  0  0  0  0
 54 11  1  0  0  0  0
 55 11  1  0  0  0  0
M  END
$$$$
