CSD_code = XUCHEJ | q = 0 | S = 0 | Stoichiometry = C28H36ClN3OZn | MND = 5
 OpenBabel04212202123D

 70 75  0  0  1  0  0  0  0  0999 V2000
   26.9278    0.7011    9.8659 Zn  0  0  0  0  0  0  0  0  0  0  0  0
   26.6297    2.0642   11.5661 Cl  0  0  0  0  0  0  0  0  0  0  0  0
   27.8289   -0.9117   10.0983 O   0  0  0  0  0  0  0  0  0  0  0  0
   24.8741    0.0295    9.6676 N   0  0  0  0  0  0  0  0  0  0  0  0
   26.6170    0.5249    7.6951 N   0  0  1  0  0  4  0  0  0  0  0  0
   28.6633    1.7192    9.0479 N   0  0  0  0  0  0  0  0  0  0  0  0
   24.8480   -0.7486   11.9442 C   0  0  0  0  0  0  0  0  0  0  0  0
   24.1533   -0.4906   10.6595 C   0  0  2  0  0  3  0  0  0  0  0  0
   22.8011   -0.7777   10.4777 C   0  0  0  0  0  0  0  0  0  0  0  0
   22.2128   -0.5340    9.2514 C   0  0  0  0  0  0  0  0  0  0  0  0
   22.9902   -0.0235    8.2234 C   0  0  0  0  0  0  0  0  0  0  0  0
   24.3263    0.2467    8.4782 C   0  0  0  0  0  0  0  0  0  0  0  0
   25.2247    0.8193    7.4121 C   0  0  0  0  0  0  0  0  0  0  0  0
   27.5608    1.3517    6.9608 C   0  0  0  0  0  0  0  0  0  0  0  0
   28.8348    1.4865    7.7496 C   0  0  1  0  0  3  0  0  0  0  0  0
   30.0945    1.4639    7.1664 C   0  0  0  0  0  0  0  0  0  0  0  0
   31.2004    1.6885    7.9658 C   0  0  0  0  0  0  0  0  0  0  0  0
   31.0099    1.9578    9.3126 C   0  0  0  0  0  0  0  0  0  0  0  0
   29.7197    1.9555    9.8114 C   0  0  0  0  0  0  0  0  0  0  0  0
   26.9077   -0.8955    7.4544 C   0  0  0  0  0  0  0  0  0  0  0  0
   28.3181   -1.2641    7.8161 C   0  0  0  0  0  0  0  0  0  0  0  0
   28.6766   -1.3109    9.1781 C   0  0  0  0  0  0  0  0  0  0  0  0
   29.9643   -1.8145    9.5045 C   0  0  0  0  0  0  0  0  0  0  0  0
   30.8324   -2.1137    8.4737 C   0  0  0  0  0  0  0  0  0  0  0  0
   30.5047   -2.0055    7.1216 C   0  0  0  0  0  0  0  0  0  0  0  0
   29.2160   -1.6112    6.8184 C   0  0  0  0  0  0  0  0  0  0  0  0
   30.3369   -2.0620   10.9619 C   0  0  0  0  0  0  0  0  0  0  0  0
   29.3021   -3.0251   11.5602 C   0  0  0  0  0  0  0  0  0  0  0  0
   30.3246   -0.7469   11.7494 C   0  0  0  0  0  0  0  0  0  0  0  0
   31.7220   -2.6963   11.1289 C   0  0  0  0  0  0  0  0  0  0  0  0
   31.5420   -2.3637    6.0675 C   0  0  0  0  0  0  0  0  0  0  0  0
   31.9601   -3.8300    6.2462 C   0  0  0  0  0  0  0  0  0  0  0  0
   31.0132   -2.1936    4.6401 C   0  0  0  0  0  0  0  0  0  0  0  0
   32.7692   -1.4558    6.2281 C   0  0  0  0  0  0  0  0  0  0  0  0
   24.2566   -1.3848   12.5963 H   0  0  0  0  0  0  0  0  0  0  0  0
   25.8193   -1.2013   11.7511 H   0  0  0  0  0  0  0  0  0  0  0  0
   25.0419    0.2024   12.4424 H   0  0  0  0  0  0  0  0  0  0  0  0
   22.2275   -1.1893   11.2929 H   0  0  0  0  0  0  0  0  0  0  0  0
   21.1669   -0.7485    9.0897 H   0  0  0  0  0  0  0  0  0  0  0  0
   22.5731    0.1624    7.2459 H   0  0  0  0  0  0  0  0  0  0  0  0
   25.0862    1.9063    7.4121 H   0  0  0  0  0  0  0  0  0  0  0  0
   24.9169    0.4347    6.4260 H   0  0  0  0  0  0  0  0  0  0  0  0
   27.7661    0.9463    5.9604 H   0  0  0  0  0  0  0  0  0  0  0  0
   27.1407    2.3576    6.8484 H   0  0  0  0  0  0  0  0  0  0  0  0
   30.1991    1.2632    6.1117 H   0  0  0  0  0  0  0  0  0  0  0  0
   32.1945    1.6650    7.5455 H   0  0  0  0  0  0  0  0  0  0  0  0
   31.8454    2.1612    9.9632 H   0  0  0  0  0  0  0  0  0  0  0  0
   29.5079    2.1593   10.8514 H   0  0  0  0  0  0  0  0  0  0  0  0
   26.2205   -1.4806    8.0707 H   0  0  0  0  0  0  0  0  0  0  0  0
   26.7167   -1.1344    6.3954 H   0  0  0  0  0  0  0  0  0  0  0  0
   31.8206   -2.4631    8.7206 H   0  0  0  0  0  0  0  0  0  0  0  0
   28.8752   -1.5657    5.7942 H   0  0  0  0  0  0  0  0  0  0  0  0
   28.3108   -2.5895   11.4884 H   0  0  0  0  0  0  0  0  0  0  0  0
   29.3096   -3.9700   11.0196 H   0  0  0  0  0  0  0  0  0  0  0  0
   29.5258   -3.2189   12.6074 H   0  0  0  0  0  0  0  0  0  0  0  0
   30.5532   -0.9362   12.7965 H   0  0  0  0  0  0  0  0  0  0  0  0
   31.0695   -0.0618   11.3491 H   0  0  0  0  0  0  0  0  0  0  0  0
   29.3459   -0.2803   11.6904 H   0  0  0  0  0  0  0  0  0  0  0  0
   31.9044   -2.8777   12.1866 H   0  0  0  0  0  0  0  0  0  0  0  0
   31.7842   -3.6504   10.6099 H   0  0  0  0  0  0  0  0  0  0  0  0
   32.5072   -2.0371   10.7640 H   0  0  0  0  0  0  0  0  0  0  0  0
   31.0898   -4.4787    6.1724 H   0  0  0  0  0  0  0  0  0  0  0  0
   32.6735   -4.1173    5.4758 H   0  0  0  0  0  0  0  0  0  0  0  0
   32.4221   -3.9917    7.2158 H   0  0  0  0  0  0  0  0  0  0  0  0
   30.7069   -1.1662    4.4550 H   0  0  0  0  0  0  0  0  0  0  0  0
   31.7980   -2.4434    3.9283 H   0  0  0  0  0  0  0  0  0  0  0  0
   30.1698   -2.8546    4.4556 H   0  0  0  0  0  0  0  0  0  0  0  0
   33.1918   -1.5378    7.2254 H   0  0  0  0  0  0  0  0  0  0  0  0
   33.5377   -1.7286    5.5069 H   0  0  0  0  0  0  0  0  0  0  0  0
   32.4912   -0.4175    6.0600 H   0  0  0  0  0  0  0  0  0  0  0  0
  1  3  1  0  0  0  0
  1  2  1  0  0  0  0
  4  1  1  0  0  0  0
  4  8  1  0  0  0  0
  5 14  1  6  0  0  0
  5  1  1  0  0  0  0
  6 19  1  0  0  0  0
  6  1  1  0  0  0  0
  7 37  1  0  0  0  0
  7 35  1  0  0  0  0
  8  7  1  6  0  0  0
  9  8  1  0  0  0  0
  9 38  1  0  0  0  0
 10  9  2  0  0  0  0
 11 12  2  0  0  0  0
 11 10  1  0  0  0  0
 12  4  1  0  0  0  0
 13  5  1  0  0  0  0
 13 12  1  0  0  0  0
 14 15  1  0  0  0  0
 15 16  1  6  0  0  0
 15  6  1  0  0  0  0
 16 17  2  0  0  0  0
 17 18  1  0  0  0  0
 18 19  2  0  0  0  0
 18 47  1  0  0  0  0
 19 48  1  0  0  0  0
 20  5  1  0  0  0  0
 20 21  1  0  0  0  0
 20 49  1  0  0  0  0
 21 22  1  0  0  0  0
 22 23  2  0  0  0  0
 22  3  1  0  0  0  0
 23 27  1  0  0  0  0
 24 51  1  0  0  0  0
 24 23  1  0  0  0  0
 25 24  2  0  0  0  0
 26 25  1  0  0  0  0
 26 21  2  0  0  0  0
 27 30  1  0  0  0  0
 27 28  1  0  0  0  0
 27 29  1  0  0  0  0
 28 55  1  0  0  0  0
 29 56  1  0  0  0  0
 30 59  1  0  0  0  0
 31 34  1  0  0  0  0
 31 32  1  0  0  0  0
 31 25  1  0  0  0  0
 32 64  1  0  0  0  0
 33 31  1  0  0  0  0
 34 68  1  0  0  0  0
 36  7  1  0  0  0  0
 39 10  1  0  0  0  0
 40 11  1  0  0  0  0
 41 13  1  0  0  0  0
 42 13  1  0  0  0  0
 43 14  1  0  0  0  0
 44 14  1  0  0  0  0
 45 16  1  0  0  0  0
 46 17  1  0  0  0  0
 50 20  1  0  0  0  0
 52 26  1  0  0  0  0
 53 28  1  0  0  0  0
 54 28  1  0  0  0  0
 57 29  1  0  0  0  0
 58 29  1  0  0  0  0
 60 30  1  0  0  0  0
 61 30  1  0  0  0  0
 62 32  1  0  0  0  0
 63 32  1  0  0  0  0
 65 33  1  0  0  0  0
 66 33  1  0  0  0  0
 67 33  1  0  0  0  0
 69 34  1  0  0  0  0
 70 34  1  0  0  0  0
M  END
$$$$
