CSD_code = XUCQUH | q = 0 | S = 0 | Stoichiometry = C19H24Cl2SZr | MND = 12
 OpenBabel04212202123D

 47 48  0  0  1  0  0  0  0  0999 V2000
    0.2287    0.3892   10.1476 Zr  0  0  0  0  0  0  0  0  0  0  0  0
    0.2184    2.4898   11.1917 Cl  0  0  0  0  0  0  0  0  0  0  0  0
   -2.0141    0.6763    9.5247 Cl  0  0  0  0  0  0  0  0  0  0  0  0
    0.5162   -2.0018    7.2520 S   0  0  0  0  0  0  0  0  0  0  0  0
    2.2303   -0.1077    8.7755 C   0  0  0  0  0  0  0  0  0  0  0  0
    1.1348   -0.5435    7.9934 C   0  0  0  0  0  0  0  0  0  0  0  0
   -0.7682   -1.0882    6.5015 C   0  0  0  0  0  0  0  0  0  0  0  0
   -0.7377    0.2350    6.7686 C   0  0  0  0  0  0  0  0  0  0  0  0
    0.3486    0.5872    7.6261 C   0  0  0  0  0  0  0  0  0  0  0  0
    0.9475    1.7448    8.2031 C   0  0  0  0  0  0  0  0  0  0  0  0
    2.1166    1.3129    8.8854 C   0  0  2  0  0  3  0  0  0  0  0  0
    0.4619    3.1538    8.0210 C   0  0  0  0  0  0  0  0  0  0  0  0
    3.1386    2.2030    9.5391 C   0  0  0  0  0  0  0  0  0  0  0  0
    1.0371   -1.7894   10.9972 C   0  0  0  0  0  0  0  0  0  0  0  0
    1.4837   -0.7864   11.9100 C   0  0  0  0  0  0  0  0  0  0  0  0
    0.3390   -0.2253   12.5450 C   0  0  0  0  0  0  0  0  0  0  0  0
   -0.8175   -0.8300   11.9850 C   0  0  0  0  0  0  0  0  0  0  0  0
   -0.3891   -1.7860   11.0159 C   0  0  1  0  0  0  0  0  0  0  0  0
    1.8853   -2.8698   10.3806 C   0  0  0  0  0  0  0  0  0  0  0  0
    2.9006   -0.4441   12.2836 C   0  0  0  0  0  0  0  0  0  0  0  0
    0.3600    0.6975   13.7287 C   0  0  0  0  0  0  0  0  0  0  0  0
   -2.2291   -0.5760   12.4336 C   0  0  0  0  0  0  0  0  0  0  0  0
   -1.2930   -2.6990   10.2315 C   0  0  0  0  0  0  0  0  0  0  0  0
    3.1052   -0.6847    9.0408 H   0  0  0  0  0  0  0  0  0  0  0  0
   -1.4691   -1.6261    5.8945 H   0  0  0  0  0  0  0  0  0  0  0  0
   -1.4524    0.9371    6.3747 H   0  0  0  0  0  0  0  0  0  0  0  0
    0.9276    3.8203    8.7452 H   0  0  0  0  0  0  0  0  0  0  0  0
   -0.6223    3.1988    8.1525 H   0  0  0  0  0  0  0  0  0  0  0  0
    0.6967    3.5133    7.0162 H   0  0  0  0  0  0  0  0  0  0  0  0
    3.9578    1.6074    9.9405 H   0  0  0  0  0  0  0  0  0  0  0  0
    2.6937    2.7870   10.3492 H   0  0  0  0  0  0  0  0  0  0  0  0
    3.5511    2.9018    8.8097 H   0  0  0  0  0  0  0  0  0  0  0  0
    2.9416   -2.6935   10.5713 H   0  0  0  0  0  0  0  0  0  0  0  0
    1.7389   -2.9681    9.3046 H   0  0  0  0  0  0  0  0  0  0  0  0
    1.6266   -3.8286   10.8343 H   0  0  0  0  0  0  0  0  0  0  0  0
    3.6145   -0.8501   11.5686 H   0  0  0  0  0  0  0  0  0  0  0  0
    3.1449   -0.8505   13.2675 H   0  0  0  0  0  0  0  0  0  0  0  0
    3.0314    0.6401   12.3293 H   0  0  0  0  0  0  0  0  0  0  0  0
    1.1961    1.3935   13.6750 H   0  0  0  0  0  0  0  0  0  0  0  0
    0.4588    0.1155   14.6485 H   0  0  0  0  0  0  0  0  0  0  0  0
   -0.5616    1.2743   13.7892 H   0  0  0  0  0  0  0  0  0  0  0  0
   -2.9405   -1.0332   11.7487 H   0  0  0  0  0  0  0  0  0  0  0  0
   -2.4358    0.4965   12.4765 H   0  0  0  0  0  0  0  0  0  0  0  0
   -2.3893   -0.9927   13.4306 H   0  0  0  0  0  0  0  0  0  0  0  0
   -1.9958   -2.1207    9.6227 H   0  0  0  0  0  0  0  0  0  0  0  0
   -1.8739   -3.3323   10.9047 H   0  0  0  0  0  0  0  0  0  0  0  0
   -0.7128   -3.3440    9.5743 H   0  0  0  0  0  0  0  0  0  0  0  0
  1  2  1  0  0  0  0
  3  1  1  0  0  0  0
  4  6  1  0  0  0  0
  5 11  1  0  0  0  0
  5 24  1  0  0  0  0
  6  5  2  0  0  0  0
  7  8  2  0  0  0  0
  7  4  1  0  0  0  0
  8  9  1  0  0  0  0
  9  6  1  0  0  0  0
  9 10  2  0  0  0  0
 10 11  1  0  0  0  0
 11 13  1  6  0  0  0
 12 28  1  0  0  0  0
 12 10  1  0  0  0  0
 12 27  1  0  0  0  0
 13 30  1  0  0  0  0
 13 31  1  0  0  0  0
 14 18  1  0  0  0  0
 14 15  2  0  0  0  0
 15 20  1  0  0  0  0
 15 16  1  0  0  0  0
 16 21  1  0  0  0  0
 17 22  1  0  0  0  0
 17 16  2  0  0  0  0
 18  1  1  6  0  0  0
 18 17  1  0  0  0  0
 19 33  1  0  0  0  0
 19 35  1  0  0  0  0
 19 14  1  0  0  0  0
 20 38  1  0  0  0  0
 20 37  1  0  0  0  0
 21 41  1  0  0  0  0
 21 40  1  0  0  0  0
 22 43  1  0  0  0  0
 22 44  1  0  0  0  0
 23 46  1  0  0  0  0
 23 18  1  0  0  0  0
 25  7  1  0  0  0  0
 26  8  1  0  0  0  0
 29 12  1  0  0  0  0
 32 13  1  0  0  0  0
 34 19  1  0  0  0  0
 36 20  1  0  0  0  0
 39 21  1  0  0  0  0
 42 22  1  0  0  0  0
 45 23  1  0  0  0  0
 47 23  1  0  0  0  0
M  END
$$$$
