CSD_code = XUCRUI | q = 0 | S = 0 | Stoichiometry = C20H22Cl2S2SiZr | MND = 12
 OpenBabel04212202123D

 48 52  0  0  1  0  0  0  0  0999 V2000
    3.9632    2.4406    3.2032 Zr  0  0  0  0  0  0  0  0  0  0  0  0
    1.8634    3.1859    3.9005 Cl  0  0  0  0  0  0  0  0  0  0  0  0
    4.5488    4.5419    2.3727 Cl  0  0  0  0  0  0  0  0  0  0  0  0
    5.5151   -0.4858    3.3434 Si  0  0  0  0  0  0  0  0  0  0  0  0
    3.0132    0.3164    6.1136 S   0  0  0  0  0  0  0  0  0  0  0  0
    4.2917    1.2305    5.3539 C   0  0  0  0  0  0  0  0  0  0  0  0
    5.4196    1.0014    4.5162 C   0  0  2  0  0  3  0  0  0  0  0  0
    6.0459    2.2944    4.3759 C   0  0  2  0  0  0  0  0  0  0  0  0
    5.3476    3.2612    5.1466 C   0  0  1  0  0  3  0  0  0  0  0  0
    4.2604    2.5907    5.7766 C   0  0  0  0  0  0  0  0  0  0  0  0
    3.2097    2.8478    6.7055 C   0  0  0  0  0  0  0  0  0  0  0  0
    2.4779    1.7413    6.9629 C   0  0  0  0  0  0  0  0  0  0  0  0
    7.3118    2.5964    3.6212 C   0  0  0  0  0  0  0  0  0  0  0  0
    5.7609    4.6828    5.3902 C   0  0  0  0  0  0  0  0  0  0  0  0
    7.2291   -0.8885    2.6135 C   0  0  0  0  0  0  0  0  0  0  0  0
    6.3704    1.8228    0.4249 S   0  0  0  0  0  0  0  0  0  0  0  0
    4.8662    1.3338    1.1637 C   0  0  0  0  0  0  0  0  0  0  0  0
    4.3875    0.3354    2.0586 C   0  0  2  0  0  3  0  0  0  0  0  0
    2.9618    0.5505    2.1257 C   0  0  2  0  0  0  0  0  0  0  0  0
    2.5868    1.6115    1.2596 C   0  0  1  0  0  3  0  0  0  0  0  0
    3.7773    2.0887    0.6402 C   0  0  0  0  0  0  0  0  0  0  0  0
    4.1928    3.0320   -0.3448 C   0  0  0  0  0  0  0  0  0  0  0  0
    5.5285    2.9991   -0.5475 C   0  0  0  0  0  0  0  0  0  0  0  0
    1.9704   -0.2713    2.9037 C   0  0  0  0  0  0  0  0  0  0  0  0
    1.1904    2.0483    0.9272 C   0  0  0  0  0  0  0  0  0  0  0  0
    4.8560   -2.0707    4.1717 C   0  0  0  0  0  0  0  0  0  0  0  0
    3.0116    3.8069    7.1525 H   0  0  0  0  0  0  0  0  0  0  0  0
    1.6282    1.6470    7.6095 H   0  0  0  0  0  0  0  0  0  0  0  0
    8.0857    2.9407    4.3101 H   0  0  0  0  0  0  0  0  0  0  0  0
    7.1424    3.3914    2.8874 H   0  0  0  0  0  0  0  0  0  0  0  0
    7.6820    1.7138    3.1067 H   0  0  0  0  0  0  0  0  0  0  0  0
    6.4646    4.7361    6.2248 H   0  0  0  0  0  0  0  0  0  0  0  0
    4.8911    5.2918    5.6380 H   0  0  0  0  0  0  0  0  0  0  0  0
    6.2422    5.1072    4.5094 H   0  0  0  0  0  0  0  0  0  0  0  0
    7.2178   -1.8933    2.2056 H   0  0  0  0  0  0  0  0  0  0  0  0
    8.0003   -0.8562    3.3758 H   0  0  0  0  0  0  0  0  0  0  0  0
    7.5136   -0.2169    1.8110 H   0  0  0  0  0  0  0  0  0  0  0  0
    3.5299    3.6991   -0.8690 H   0  0  0  0  0  0  0  0  0  0  0  0
    6.1097    3.6008   -1.2177 H   0  0  0  0  0  0  0  0  0  0  0  0
    1.2696   -0.7569    2.2219 H   0  0  0  0  0  0  0  0  0  0  0  0
    1.3895    0.3640    3.5806 H   0  0  0  0  0  0  0  0  0  0  0  0
    2.4701   -1.0419    3.4843 H   0  0  0  0  0  0  0  0  0  0  0  0
    0.7882    1.4449    0.1093 H   0  0  0  0  0  0  0  0  0  0  0  0
    1.1860    3.0928    0.6142 H   0  0  0  0  0  0  0  0  0  0  0  0
    0.5311    1.9412    1.7882 H   0  0  0  0  0  0  0  0  0  0  0  0
    4.4429   -2.7560    3.4393 H   0  0  0  0  0  0  0  0  0  0  0  0
    4.0966   -1.8712    4.9198 H   0  0  0  0  0  0  0  0  0  0  0  0
    5.6734   -2.5811    4.6693 H   0  0  0  0  0  0  0  0  0  0  0  0
  1  2  1  0  0  0  0
  1  8  1  0  0  0  0
  3  1  1  0  0  0  0
  4 26  1  0  0  0  0
  4  7  1  0  0  0  0
  5 12  1  0  0  0  0
  6 10  2  0  0  0  0
  6  5  1  0  0  0  0
  7  6  1  6  0  0  0
  8 13  1  6  0  0  0
  8  7  1  0  0  0  0
  8  9  1  0  0  0  0
  9 14  1  1  0  0  0
  9 10  1  0  0  0  0
 10 11  1  0  0  0  0
 11 12  2  0  0  0  0
 11 27  1  0  0  0  0
 12 28  1  0  0  0  0
 13 29  1  0  0  0  0
 14 33  1  0  0  0  0
 14 32  1  0  0  0  0
 15  4  1  0  0  0  0
 15 36  1  0  0  0  0
 16 17  1  0  0  0  0
 18 17  1  1  0  0  0
 18 19  1  0  0  0  0
 18  4  1  0  0  0  0
 19 24  1  1  0  0  0
 19  1  1  0  0  0  0
 20 25  1  6  0  0  0
 20 19  1  0  0  0  0
 21 17  2  0  0  0  0
 21 20  1  0  0  0  0
 22 21  1  0  0  0  0
 23 22  2  0  0  0  0
 23 16  1  0  0  0  0
 24 42  1  0  0  0  0
 24 41  1  0  0  0  0
 25 45  1  0  0  0  0
 26 48  1  0  0  0  0
 26 47  1  0  0  0  0
 30 13  1  0  0  0  0
 31 13  1  0  0  0  0
 34 14  1  0  0  0  0
 35 15  1  0  0  0  0
 37 15  1  0  0  0  0
 38 22  1  0  0  0  0
 39 23  1  0  0  0  0
 40 24  1  0  0  0  0
 43 25  1  0  0  0  0
 44 25  1  0  0  0  0
 46 26  1  0  0  0  0
M  END
$$$$
