CSD_code = XUCSET | q = 0 | S = 0 | Stoichiometry = C28H26Cl2S2SiZr | MND = 12
 OpenBabel04212202123D

 60 66  0  0  1  0  0  0  0  0999 V2000
   -0.1221    5.9638    9.8042 Zr  0  0  0  0  0  0  0  0  0  0  0  0
    1.8423    4.7177    9.7913 Cl  0  0  0  0  0  0  0  0  0  0  0  0
    0.9742    7.7814   10.7914 Cl  0  0  0  0  0  0  0  0  0  0  0  0
    1.1742    4.4225    6.5041 S   0  0  0  0  0  0  0  0  0  0  0  0
    0.2326    2.8355   11.8945 S   0  0  0  0  0  0  0  0  0  0  0  0
   -3.2843    6.3751    9.2105 Si  0  0  0  0  0  0  0  0  0  0  0  0
    0.2535    5.6797    7.2988 C   0  0  0  0  0  0  0  0  0  0  0  0
    0.4838    7.0188    7.6929 C   0  0  2  0  0  3  0  0  0  0  0  0
   -0.7765    7.5269    8.1381 C   0  0  1  0  0  0  0  0  0  0  0  0
   -1.7828    6.5010    8.0402 C   0  0  1  0  0  3  0  0  0  0  0  0
   -1.1204    5.3559    7.4765 C   0  0  0  0  0  0  0  0  0  0  0  0
   -1.4574    4.1443    6.7808 C   0  0  0  0  0  0  0  0  0  0  0  0
   -2.7033    3.6298    6.4247 C   0  0  0  0  0  0  0  0  0  0  0  0
   -2.7860    2.4705    5.6815 C   0  0  0  0  0  0  0  0  0  0  0  0
   -1.6377    1.7963    5.2818 C   0  0  0  0  0  0  0  0  0  0  0  0
   -0.3895    2.3218    5.5566 C   0  0  0  0  0  0  0  0  0  0  0  0
   -0.3058    3.5065    6.2664 C   0  0  0  0  0  0  0  0  0  0  0  0
    1.7834    7.7580    7.5467 C   0  0  0  0  0  0  0  0  0  0  0  0
   -1.0137    8.9774    8.4662 C   0  0  0  0  0  0  0  0  0  0  0  0
   -0.6394    4.3299   11.6708 C   0  0  0  0  0  0  0  0  0  0  0  0
   -0.6704    5.5723   12.3265 C   0  0  0  0  0  0  0  0  0  0  0  0
   -1.6977    6.3292   11.7033 C   0  0  0  0  0  0  0  0  0  0  0  0
   -2.3203    5.5714   10.6545 C   0  0  2  0  0  0  0  0  0  0  0  0
   -1.6232    4.2956   10.6320 C   0  0  0  0  0  0  0  0  0  0  0  0
   -1.6729    2.9819   10.0350 C   0  0  0  0  0  0  0  0  0  0  0  0
   -2.5620    2.4283    9.1158 C   0  0  0  0  0  0  0  0  0  0  0  0
   -2.4128    1.1233    8.6935 C   0  0  0  0  0  0  0  0  0  0  0  0
   -1.3821    0.3291    9.1797 C   0  0  0  0  0  0  0  0  0  0  0  0
   -0.5244    0.8223   10.1439 C   0  0  0  0  0  0  0  0  0  0  0  0
   -0.6851    2.1255   10.5810 C   0  0  0  0  0  0  0  0  0  0  0  0
    0.1689    5.9691   13.5030 C   0  0  0  0  0  0  0  0  0  0  0  0
   -2.1231    7.6747   12.2192 C   0  0  0  0  0  0  0  0  0  0  0  0
   -4.0274    8.1037    9.5644 C   0  0  0  0  0  0  0  0  0  0  0  0
   -4.8495    5.4282    8.6570 C   0  0  0  0  0  0  0  0  0  0  0  0
   -3.5950    4.1651    6.7053 H   0  0  0  0  0  0  0  0  0  0  0  0
   -3.7554    2.0851    5.4022 H   0  0  0  0  0  0  0  0  0  0  0  0
   -1.7196    0.8787    4.7196 H   0  0  0  0  0  0  0  0  0  0  0  0
    0.5081    1.8411    5.2002 H   0  0  0  0  0  0  0  0  0  0  0  0
    2.6139    7.0509    7.5987 H   0  0  0  0  0  0  0  0  0  0  0  0
    1.8309    8.2650    6.5797 H   0  0  0  0  0  0  0  0  0  0  0  0
    1.9076    8.5022    8.3349 H   0  0  0  0  0  0  0  0  0  0  0  0
   -0.9709    9.1746    9.5407 H   0  0  0  0  0  0  0  0  0  0  0  0
   -1.9825    9.2923    8.0843 H   0  0  0  0  0  0  0  0  0  0  0  0
   -0.2475    9.5877    7.9899 H   0  0  0  0  0  0  0  0  0  0  0  0
   -3.3803    3.0219    8.7500 H   0  0  0  0  0  0  0  0  0  0  0  0
   -3.1090    0.7164    7.9765 H   0  0  0  0  0  0  0  0  0  0  0  0
   -1.2680   -0.6840    8.8264 H   0  0  0  0  0  0  0  0  0  0  0  0
    0.2532    0.2064   10.5681 H   0  0  0  0  0  0  0  0  0  0  0  0
    0.5889    6.9664   13.3655 H   0  0  0  0  0  0  0  0  0  0  0  0
    0.9851    5.2580   13.6285 H   0  0  0  0  0  0  0  0  0  0  0  0
   -0.4271    5.9719   14.4181 H   0  0  0  0  0  0  0  0  0  0  0  0
   -3.1787    7.8445   12.0307 H   0  0  0  0  0  0  0  0  0  0  0  0
   -1.5390    8.4821   11.7696 H   0  0  0  0  0  0  0  0  0  0  0  0
   -1.9578    7.7165   13.2951 H   0  0  0  0  0  0  0  0  0  0  0  0
   -3.3273    8.8339    9.9466 H   0  0  0  0  0  0  0  0  0  0  0  0
   -4.8413    8.0161   10.2769 H   0  0  0  0  0  0  0  0  0  0  0  0
   -4.4545    8.5005    8.6483 H   0  0  0  0  0  0  0  0  0  0  0  0
   -5.1069    5.6810    7.6336 H   0  0  0  0  0  0  0  0  0  0  0  0
   -4.7832    4.3511    8.7352 H   0  0  0  0  0  0  0  0  0  0  0  0
   -5.6812    5.7382    9.2815 H   0  0  0  0  0  0  0  0  0  0  0  0
  1 23  1  0  0  0  0
  1  3  1  0  0  0  0
  2  1  1  0  0  0  0
  4  7  1  0  0  0  0
  6 33  1  0  0  0  0
  6 23  1  0  0  0  0
  7 11  2  0  0  0  0
  7  8  1  0  0  0  0
  8 18  1  6  0  0  0
  8  9  1  0  0  0  0
  9 19  1  1  0  0  0
  9  1  1  0  0  0  0
 10 11  1  1  0  0  0
 10  9  1  0  0  0  0
 10  6  1  0  0  0  0
 12 11  1  0  0  0  0
 13 35  1  0  0  0  0
 13 12  1  0  0  0  0
 14 13  2  0  0  0  0
 15 16  2  0  0  0  0
 15 14  1  0  0  0  0
 16 17  1  0  0  0  0
 17  4  1  0  0  0  0
 17 12  2  0  0  0  0
 18 39  1  0  0  0  0
 18 41  1  0  0  0  0
 19 42  1  0  0  0  0
 20  5  1  0  0  0  0
 20 21  1  0  0  0  0
 21 31  1  0  0  0  0
 22 32  1  0  0  0  0
 22 21  2  0  0  0  0
 23 24  1  1  0  0  0
 23 22  1  0  0  0  0
 24 20  2  0  0  0  0
 25 30  1  0  0  0  0
 25 24  1  0  0  0  0
 26 25  2  0  0  0  0
 27 26  1  0  0  0  0
 27 28  2  0  0  0  0
 28 29  1  0  0  0  0
 29 48  1  0  0  0  0
 29 30  2  0  0  0  0
 30  5  1  0  0  0  0
 31 50  1  0  0  0  0
 31 51  1  0  0  0  0
 32 54  1  0  0  0  0
 33 55  1  0  0  0  0
 33 56  1  0  0  0  0
 34 59  1  0  0  0  0
 34  6  1  0  0  0  0
 34 60  1  0  0  0  0
 36 14  1  0  0  0  0
 37 15  1  0  0  0  0
 38 16  1  0  0  0  0
 40 18  1  0  0  0  0
 43 19  1  0  0  0  0
 44 19  1  0  0  0  0
 45 26  1  0  0  0  0
 46 27  1  0  0  0  0
 47 28  1  0  0  0  0
 49 31  1  0  0  0  0
 52 32  1  0  0  0  0
 53 32  1  0  0  0  0
 57 33  1  0  0  0  0
 58 34  1  0  0  0  0
M  END
$$$$
