CSD_code = XUDDAB | q = 0 | S = 0 | Stoichiometry = C16H24ClNO2Os | MND = 9
 OpenBabel04212202123D

 45 46  0  0  1  0  0  0  0  0999 V2000
    5.6061    3.7592    3.5340 Os  0  0  0  0  0  0  0  0  0  0  0  0
    6.8325    1.9593    4.3093 Cl  0  0  0  0  0 15  0  0  0  0  0  0
    6.7142    3.9229    1.7755 O   0  0  0  0  0  0  0  0  0  0  0  0
    6.9943    3.1427   -0.2828 O   0  0  0  0  0  0  0  0  0  0  0  0
    4.6843    2.3320    2.2471 N   0  0  1  0  0  4  0  0  0  0  0  0
    4.0100    2.8635    1.6830 H   0  0  0  0  0  0  0  0  0  0  0  0
    6.5601    3.0604    0.8450 C   0  0  0  0  0  0  0  0  0  0  0  0
    5.7040    1.8319    1.2935 C   0  0  2  0  0  0  0  0  0  0  0  0
    6.3769    1.1682    1.8518 H   0  0  0  0  0  0  0  0  0  0  0  0
    5.0477    1.0797    0.1464 C   0  0  0  0  0  0  0  0  0  0  0  0
    4.3869    1.7544   -0.4046 H   0  0  0  0  0  0  0  0  0  0  0  0
    5.8228    0.7482   -0.5432 H   0  0  0  0  0  0  0  0  0  0  0  0
    4.2587   -0.1024    0.7031 C   0  0  0  0  0  0  0  0  0  0  0  0
    4.9474   -0.8053    1.1739 H   0  0  0  0  0  0  0  0  0  0  0  0
    3.7404   -0.6246   -0.1024 H   0  0  0  0  0  0  0  0  0  0  0  0
    3.2495    0.3871    1.7400 C   0  0  0  0  0  0  0  0  0  0  0  0
    2.7374   -0.4594    2.1985 H   0  0  0  0  0  0  0  0  0  0  0  0
    2.4949    1.0087    1.2494 H   0  0  0  0  0  0  0  0  0  0  0  0
    3.9487    1.2013    2.8296 C   0  0  0  0  0  0  0  0  0  0  0  0
    4.6706    0.5852    3.3707 H   0  0  0  0  0  0  0  0  0  0  0  0
    3.2150    1.5870    3.5427 H   0  0  0  0  0  0  0  0  0  0  0  0
    4.7174    4.4437    5.6691 C   0  0  0  0  0  0  0  0  0  0  0  0
    3.7262    4.6661    4.7039 C   0  0  0  0  0  3  0  0  0  0  0  0
    2.7232    4.2911    4.8668 H   0  0  0  0  0  0  0  0  0  0  0  0
    3.9691    5.4910    3.5731 C   0  0  0  0  0  0  0  0  0  0  0  0
    3.1532    5.7114    2.8959 H   0  0  0  0  0  0  0  0  0  0  0  0
    5.2160    6.0870    3.3721 C   0  0  0  0  0  0  0  0  0  0  0  0
    6.2502    5.8108    4.3088 C   0  0  1  0  0  0  0  0  0  0  0  0
    7.2133    6.2895    4.1866 H   0  0  0  0  0  0  0  0  0  0  0  0
    6.0075    4.9984    5.4228 C   0  0  0  0  0  0  0  0  0  0  0  0
    6.7859    4.8616    6.1653 H   0  0  0  0  0  0  0  0  0  0  0  0
    4.4387    3.6864    6.9462 C   0  0  0  0  0  0  0  0  0  0  0  0
    5.3772    3.6133    7.5050 H   0  0  0  0  0  0  0  0  0  0  0  0
    3.4256    4.4520    7.8029 C   0  0  0  0  0  0  0  0  0  0  0  0
    2.4636    4.5211    7.2998 H   0  0  0  0  0  0  0  0  0  0  0  0
    3.7799    5.4603    8.0078 H   0  0  0  0  0  0  0  0  0  0  0  0
    3.2796    3.9392    8.7502 H   0  0  0  0  0  0  0  0  0  0  0  0
    3.9574    2.2630    6.6575 C   0  0  0  0  0  0  0  0  0  0  0  0
    2.9908    2.2693    6.1585 H   0  0  0  0  0  0  0  0  0  0  0  0
    3.8552    1.7108    7.5879 H   0  0  0  0  0  0  0  0  0  0  0  0
    4.6827    1.7518    6.0270 H   0  0  0  0  0  0  0  0  0  0  0  0
    5.4898    6.9788    2.2040 C   0  0  0  0  0  0  0  0  0  0  0  0
    5.9611    7.9050    2.5295 H   0  0  0  0  0  0  0  0  0  0  0  0
    4.5770    7.2145    1.6617 H   0  0  0  0  0  0  0  0  0  0  0  0
    6.1792    6.4743    1.5248 H   0  0  0  0  0  0  0  0  0  0  0  0
  1 28  1  0  0  0  0
  3  1  1  0  0  0  0
  4  7  2  0  0  0  0
  5  6  1  6  0  0  0
  5 19  1  0  0  0  0
  5  1  1  0  0  0  0
  7  8  1  0  0  0  0
  7  3  1  0  0  0  0
  8  9  1  1  0  0  0
  8  5  1  0  0  0  0
 10 13  1  0  0  0  0
 10  8  1  0  0  0  0
 11 10  1  0  0  0  0
 12 10  1  0  0  0  0
 13 14  1  0  0  0  0
 13 16  1  0  0  0  0
 15 13  1  0  0  0  0
 16 17  1  0  0  0  0
 16 19  1  0  0  0  0
 18 16  1  0  0  0  0
 19 20  1  0  0  0  0
 19 21  1  0  0  0  0
 22 32  1  0  0  0  0
 23 24  1  0  0  0  0
 23 22  1  0  0  0  0
 25 23  1  0  0  0  0
 26 25  1  0  0  0  0
 27 25  2  0  0  0  0
 27 28  1  0  0  0  0
 28 29  1  6  0  0  0
 28 30  1  0  0  0  0
 30 22  2  0  0  0  0
 30 31  1  0  0  0  0
 32 33  1  0  0  0  0
 32 34  1  0  0  0  0
 34 36  1  0  0  0  0
 34 37  1  0  0  0  0
 35 34  1  0  0  0  0
 38 32  1  0  0  0  0
 38 40  1  0  0  0  0
 39 38  1  0  0  0  0
 41 38  1  0  0  0  0
 42 43  1  0  0  0  0
 42 27  1  0  0  0  0
 44 42  1  0  0  0  0
 45 42  1  0  0  0  0
M  END
$$$$
