CSD_code = XUDKUE | q = 1 | S = 0 | Stoichiometry = C14H17ClN7OPd(1+) | MND = 4
 OpenBabel04212202123D

 41 45  0  0  1  0  0  0  0  0999 V2000
    3.4556    7.9585    1.6242 Pd  0  0  2  0  0  0  0  0  0  0  0  0
    1.4748    8.6609    1.0246 Cl  0  0  0  0  0  0  0  0  0  0  0  0
    8.6515    5.9418    3.3133 O   0  0  0  0  0  0  0  0  0  0  0  0
    5.1711    7.3227    2.1749 N   0  0  1  0  0  0  0  0  0  0  0  0
    7.1796    7.6880    3.2937 N   0  0  0  0  0  0  0  0  0  0  0  0
    6.7240    5.5899    2.2535 N   0  0  0  0  0  0  0  0  0  0  0  0
    5.4678    9.3357    3.1215 N   0  0  1  0  0  0  0  0  0  0  0  0
    4.2097    9.6132    2.6258 N   0  0  0  0  0  0  0  0  0  0  0  0
    4.6204    5.3926    1.1655 N   0  0  2  0  0  0  0  0  0  0  0  0
    3.4439    6.0408    0.8485 N   0  0  0  0  0  0  0  0  0  0  0  0
    5.9969    8.0954    2.8831 C   0  0  2  0  0  3  0  0  0  0  0  0
    7.5053    6.4284    2.9548 C   0  0  0  0  0  0  0  0  0  0  0  0
    5.5637    6.0761    1.8830 C   0  0  2  0  0  3  0  0  0  0  0  0
    9.5377    6.7691    4.0590 C   0  0  0  0  0  0  0  0  0  0  0  0
   10.4113    6.1538    4.2595 H   0  0  0  0  0  0  0  0  0  0  0  0
    9.0728    7.0862    4.9933 H   0  0  0  0  0  0  0  0  0  0  0  0
    9.8184    7.6497    3.4796 H   0  0  0  0  0  0  0  0  0  0  0  0
    7.3034   10.4283    4.4155 C   0  0  0  0  0  0  0  0  0  0  0  0
    7.4955   11.3957    4.8693 H   0  0  0  0  0  0  0  0  0  0  0  0
    8.0762   10.2154    3.6789 H   0  0  0  0  0  0  0  0  0  0  0  0
    7.3589    9.6546    5.1793 H   0  0  0  0  0  0  0  0  0  0  0  0
    5.9720   10.4310    3.7801 C   0  0  1  0  0  3  0  0  0  0  0  0
    5.0135   11.4029    3.6913 C   0  0  0  0  0  0  0  0  0  0  0  0
    5.0649   12.3938    4.0929 H   0  0  0  0  0  0  0  0  0  0  0  0
    3.9251   10.8591    2.9642 C   0  0  0  0  0  0  0  0  0  0  0  0
    2.6533   11.5199    2.6154 C   0  0  0  0  0  0  0  0  0  0  0  0
    2.1278   10.9540    1.8468 H   0  0  0  0  0  0  0  0  0  0  0  0
    2.8383   12.5355    2.2735 H   0  0  0  0  0  0  0  0  0  0  0  0
    2.0149   11.5785    3.4970 H   0  0  0  0  0  0  0  0  0  0  0  0
    5.7511    3.1937    0.8313 C   0  0  0  0  0  0  0  0  0  0  0  0
    6.6562    3.6079    0.3898 H   0  0  0  0  0  0  0  0  0  0  0  0
    5.5259    2.2393    0.3654 H   0  0  0  0  0  0  0  0  0  0  0  0
    5.9566    3.0434    1.8898 H   0  0  0  0  0  0  0  0  0  0  0  0
    4.6185    4.1190    0.6502 C   0  0  2  0  0  3  0  0  0  0  0  0
    3.4215    3.9755    0.0017 C   0  0  0  0  0  0  0  0  0  0  0  0
    3.0751    3.1075   -0.5203 H   0  0  0  0  0  0  0  0  0  0  0  0
    2.7118    5.1931    0.1447 C   0  0  0  0  0  0  0  0  0  0  0  0
    1.3708    5.5264   -0.3717 C   0  0  0  0  0  0  0  0  0  0  0  0
    1.2776    6.6016   -0.5237 H   0  0  0  0  0  0  0  0  0  0  0  0
    0.6128    5.2291    0.3539 H   0  0  0  0  0  0  0  0  0  0  0  0
    1.1777    4.9943   -1.2990 H   0  0  0  0  0  0  0  0  0  0  0  0
  1  2  1  1  0  0  0
  1  4  1  0  0  0  0
  1  8  1  0  0  0  0
  3 14  1  0  0  0  0
  4 11  1  0  0  0  0
  6 12  2  0  0  0  0
  7  8  1  6  0  0  0
  7 22  1  0  0  0  0
  8 25  1  0  0  0  0
  9 10  1  6  0  0  0
  9 13  1  0  0  0  0
 10  1  1  0  0  0  0
 11  7  1  0  0  0  0
 11  5  1  1  0  0  0
 12  5  2  0  0  0  0
 12  3  1  0  0  0  0
 13  4  1  0  0  0  0
 13  6  1  6  0  0  0
 14 15  1  0  0  0  0
 14 16  1  0  0  0  0
 17 14  1  0  0  0  0
 18 19  1  0  0  0  0
 18 21  1  0  0  0  0
 20 18  1  0  0  0  0
 22 18  1  6  0  0  0
 23 22  1  0  0  0  0
 23 24  1  0  0  0  0
 25 23  2  0  0  0  0
 26 25  1  0  0  0  0
 26 29  1  0  0  0  0
 27 26  1  0  0  0  0
 28 26  1  0  0  0  0
 30 33  1  0  0  0  0
 31 30  1  0  0  0  0
 32 30  1  0  0  0  0
 34 30  1  6  0  0  0
 34  9  1  0  0  0  0
 35 37  2  0  0  0  0
 35 34  1  0  0  0  0
 36 35  1  0  0  0  0
 37 10  1  0  0  0  0
 38 37  1  0  0  0  0
 38 40  1  0  0  0  0
 39 38  1  0  0  0  0
 41 38  1  0  0  0  0
M  END
$$$$
