CSD_code = XUDYOL | q = 1 | S = 0 | Stoichiometry = C31H29ClN3O5Pt(1+) | MND = 4
 OpenBabel04212202123D

 70 76  0  0  0  0  0  0  0  0999 V2000
    3.4055   12.0980    0.9830 Pt  0  0  2  0  0  0  0  0  0  0  0  0
    1.7666   11.9949   -0.5202 Cl  0  0  0  0  0  0  0  0  0  0  0  0
   12.7969   12.6703    9.6069 O   0  0  0  0  0  0  0  0  0  0  0  0
   12.6554   11.2373   12.0520 O   0  0  0  0  0  0  0  0  0  0  0  0
   13.6338    8.4156   11.2794 O   0  0  0  0  0  0  0  0  0  0  0  0
   14.5924    8.3270    7.7795 O   0  0  0  0  0  0  0  0  0  0  0  0
   12.9886   11.0067    7.6915 O   0  0  0  0  0  0  0  0  0  0  0  0
    2.6842   13.6070    2.0806 N   0  0  0  0  0  0  0  0  0  0  0  0
    4.8041   12.1867    2.2655 N   0  0  0  0  0  0  0  0  0  0  0  0
    4.5398   10.6151    0.2651 N   0  0  0  0  0  0  0  0  0  0  0  0
    1.5572   14.2896    1.9003 C   0  0  0  0  0  3  0  0  0  0  0  0
    0.9499   13.9949    1.0534 H   0  0  0  0  0  0  0  0  0  0  0  0
    1.1708   15.3207    2.7407 C   0  0  0  0  0  0  0  0  0  0  0  0
    0.2486   15.8463    2.5562 H   0  0  0  0  0  0  0  0  0  0  0  0
    1.9878   15.6556    3.8101 C   0  0  0  0  0  0  0  0  0  0  0  0
    1.7165   16.4533    4.4835 H   0  0  0  0  0  0  0  0  0  0  0  0
    3.1631   14.9474    4.0023 C   0  0  0  0  0  0  0  0  0  0  0  0
    3.8167   15.1863    4.8252 H   0  0  0  0  0  0  0  0  0  0  0  0
    3.4987   13.9220    3.1260 C   0  0  0  0  0  0  0  0  0  0  0  0
    4.7187   13.1105    3.2395 C   0  0  0  0  0  0  0  0  0  0  0  0
    5.7199   13.1997    4.1874 C   0  0  0  0  0  0  0  0  0  0  0  0
    5.6869   13.9258    4.9825 H   0  0  0  0  0  0  0  0  0  0  0  0
    6.8145   12.3149    4.1099 C   0  0  0  0  0  0  0  0  0  0  0  0
    6.8615   11.3631    3.0714 C   0  0  0  0  0  0  0  0  0  0  0  0
    7.6986   10.6876    3.0143 H   0  0  0  0  0  0  0  0  0  0  0  0
    5.8289   11.3226    2.1538 C   0  0  0  0  0  0  0  0  0  0  0  0
    5.6691   10.4229    1.0024 C   0  0  0  0  0  0  0  0  0  0  0  0
    6.5814    9.4331    0.6562 C   0  0  0  0  0  0  0  0  0  0  0  0
    7.4708    9.2913    1.2479 H   0  0  0  0  0  0  0  0  0  0  0  0
    6.3389    8.6341   -0.4496 C   0  0  0  0  0  0  0  0  0  0  0  0
    7.0393    7.8625   -0.7280 H   0  0  0  0  0  0  0  0  0  0  0  0
    5.1840    8.8442   -1.1880 C   0  0  0  0  0  0  0  0  0  0  0  0
    4.9579    8.2449   -2.0544 H   0  0  0  0  0  0  0  0  0  0  0  0
    4.3115    9.8458   -0.7953 C   0  0  0  0  0  0  0  0  0  0  0  0
    3.3982   10.0446   -1.3425 H   0  0  0  0  0  0  0  0  0  0  0  0
    7.8398   12.3849    5.0534 C   0  0  0  0  0  0  0  0  0  0  0  0
    8.7251   12.4550    5.8810 C   0  0  0  0  0  0  0  0  0  0  0  0
    9.7450   12.5393    6.8322 C   0  0  0  0  0  0  0  0  0  0  0  0
   10.8570   11.6833    6.7444 C   0  0  0  0  0  0  0  0  0  0  0  0
   10.8946   10.9663    5.9402 H   0  0  0  0  0  0  0  0  0  0  0  0
   11.8673   11.7603    7.6771 C   0  0  0  0  0  0  0  0  0  0  0  0
   11.7692   12.6965    8.7465 C   0  0  0  0  0  0  0  0  0  0  0  0
   10.6706   13.5464    8.8114 C   0  0  0  0  0  0  0  0  0  0  0  0
   10.5994   14.2814    9.5971 H   0  0  0  0  0  0  0  0  0  0  0  0
    9.6671   13.4735    7.8660 C   0  0  0  0  0  0  0  0  0  0  0  0
    8.8199   14.1389    7.9237 H   0  0  0  0  0  0  0  0  0  0  0  0
   13.1732   10.0322    6.6861 C   0  0  0  0  0  0  0  0  0  0  0  0
   13.1305   10.5046    5.6956 H   0  0  0  0  0  0  0  0  0  0  0  0
   12.4012    9.2558    6.7540 H   0  0  0  0  0  0  0  0  0  0  0  0
   14.5569    9.3926    6.8723 C   0  0  0  0  0  0  0  0  0  0  0  0
   14.8655    8.9645    5.9138 H   0  0  0  0  0  0  0  0  0  0  0  0
   15.2658   10.1809    7.1586 H   0  0  0  0  0  0  0  0  0  0  0  0
   14.7913    8.6381    9.1424 C   0  0  0  0  0  0  0  0  0  0  0  0
   15.2973    7.7638    9.5658 H   0  0  0  0  0  0  0  0  0  0  0  0
   15.4501    9.5110    9.2354 H   0  0  0  0  0  0  0  0  0  0  0  0
   13.4842    8.8390    9.9399 C   0  0  0  0  0  0  0  0  0  0  0  0
   12.7234    8.1785    9.5157 H   0  0  0  0  0  0  0  0  0  0  0  0
   13.1355    9.8748    9.8865 H   0  0  0  0  0  0  0  0  0  0  0  0
   14.2476    9.3333   12.1570 C   0  0  0  0  0  0  0  0  0  0  0  0
   15.0004    9.9356   11.6373 H   0  0  0  0  0  0  0  0  0  0  0  0
   14.7499    8.7301   12.9187 H   0  0  0  0  0  0  0  0  0  0  0  0
   13.2257   10.2375   12.8685 C   0  0  0  0  0  0  0  0  0  0  0  0
   12.3852    9.6173   13.1879 H   0  0  0  0  0  0  0  0  0  0  0  0
   13.6968   10.6930   13.7505 H   0  0  0  0  0  0  0  0  0  0  0  0
   13.4493   12.3833   11.8604 C   0  0  0  0  0  0  0  0  0  0  0  0
   14.4297   12.1324   11.4355 H   0  0  0  0  0  0  0  0  0  0  0  0
   13.6004   12.9122   12.8137 H   0  0  0  0  0  0  0  0  0  0  0  0
   12.6955   13.2783   10.8804 C   0  0  0  0  0  0  0  0  0  0  0  0
   11.6537   13.3375   11.2070 H   0  0  0  0  0  0  0  0  0  0  0  0
   13.1392   14.2802   10.8515 H   0  0  0  0  0  0  0  0  0  0  0  0
  1  2  1  6  0  0  0
  1  8  1  0  0  0  0
  1  9  1  0  0  0  0
  3 68  1  0  0  0  0
  4 62  1  0  0  0  0
  5 59  1  0  0  0  0
  6 53  1  0  0  0  0
  8 19  1  0  0  0  0
  9 20  1  0  0  0  0
 10  1  1  0  0  0  0
 10 27  1  0  0  0  0
 11  8  1  0  0  0  0
 11 13  1  0  0  0  0
 12 11  1  0  0  0  0
 13 15  2  0  0  0  0
 14 13  1  0  0  0  0
 15 17  1  0  0  0  0
 15 16  1  0  0  0  0
 17 18  1  0  0  0  0
 19 20  1  0  0  0  0
 19 17  2  0  0  0  0
 20 21  2  0  0  0  0
 21 22  1  0  0  0  0
 23 21  1  0  0  0  0
 23 36  1  0  0  0  0
 24 23  2  0  0  0  0
 25 24  1  0  0  0  0
 26  9  1  0  0  0  0
 26 24  1  0  0  0  0
 27 26  2  0  0  0  0
 28 27  1  0  0  0  0
 28 29  1  0  0  0  0
 30 28  2  0  0  0  0
 31 30  1  0  0  0  0
 32 34  2  0  0  0  0
 32 30  1  0  0  0  0
 33 32  1  0  0  0  0
 34 10  1  0  0  0  0
 35 34  1  0  0  0  0
 36 37  3  0  0  0  0
 37 38  1  0  0  0  0
 38 45  1  0  0  0  0
 39 38  2  0  0  0  0
 39 41  1  0  0  0  0
 40 39  1  0  0  0  0
 41  7  1  0  0  0  0
 41 42  2  0  0  0  0
 42 43  1  0  0  0  0
 42  3  1  0  0  0  0
 43 44  1  0  0  0  0
 45 46  1  0  0  0  0
 45 43  2  0  0  0  0
 47 49  1  0  0  0  0
 47 50  1  0  0  0  0
 47  7  1  0  0  0  0
 48 47  1  0  0  0  0
 50 52  1  0  0  0  0
 50  6  1  0  0  0  0
 51 50  1  0  0  0  0
 53 55  1  0  0  0  0
 53 54  1  0  0  0  0
 53 56  1  0  0  0  0
 56  5  1  0  0  0  0
 57 56  1  0  0  0  0
 58 56  1  0  0  0  0
 59 62  1  0  0  0  0
 59 61  1  0  0  0  0
 60 59  1  0  0  0  0
 62 63  1  0  0  0  0
 62 64  1  0  0  0  0
 65  4  1  0  0  0  0
 65 67  1  0  0  0  0
 66 65  1  0  0  0  0
 68 69  1  0  0  0  0
 68 65  1  0  0  0  0
 70 68  1  0  0  0  0
M  END
$$$$
