CSD_code = XUFCOS | q = 0 | S = 0 | Stoichiometry = C33H28BrClIrN2PS | MND = 6
 OpenBabel04212202123D

 68 74  0  0  0  0  0  0  0  0999 V2000
   -1.6650   29.0074   -1.7099 Ir  0  0  0  0  0  0  0  0  0  0  0  0
   -2.2909   28.2237   -3.9950 Br  0  0  0  0  0  0  0  0  0  0  0  0
   -3.3723   30.6256   -1.7039 Cl  0  0  0  0  0  0  0  0  0  0  0  0
    0.2216   30.5854   -2.6311 S   0  0  1  0  0  3  0  0  0  0  0  0
   -1.1383   29.8213    0.4239 P   0  0  0  0  0  4  0  0  0  0  0  0
   -0.2261   27.6980   -1.7005 N   0  0  0  0  0  0  0  0  0  0  0  0
   -0.4321   26.5226   -1.2463 N   0  0  0  0  0  2  0  0  0  0  0  0
   -2.6160   27.4099   -0.9130 C   0  0  0  0  0  0  0  0  0  0  0  0
   -3.9238   27.2173   -0.5078 C   0  0  0  0  0  0  0  0  0  0  0  0
   -4.6474   28.0113   -0.6109 H   0  0  0  0  0  0  0  0  0  0  0  0
   -4.3143   25.9929    0.0121 C   0  0  0  0  0  0  0  0  0  0  0  0
   -5.3394   25.8529    0.3219 H   0  0  0  0  0  0  0  0  0  0  0  0
   -3.4100   24.9409    0.1311 C   0  0  0  0  0  0  0  0  0  0  0  0
   -3.7389   23.9969    0.5392 H   0  0  0  0  0  0  0  0  0  0  0  0
   -2.1077   25.0954   -0.2831 C   0  0  0  0  0  0  0  0  0  0  0  0
   -1.3887   24.2937   -0.2201 H   0  0  0  0  0  0  0  0  0  0  0  0
   -1.7041   26.3279   -0.8122 C   0  0  0  0  0  0  0  0  0  0  0  0
    1.0549   27.9696   -2.1688 C   0  0  0  0  0  0  0  0  0  0  0  0
    2.0324   26.9686   -2.1715 C   0  0  0  0  0  0  0  0  0  0  0  0
    1.7518   25.9938   -1.8060 H   0  0  0  0  0  0  0  0  0  0  0  0
    3.3037   27.2289   -2.6326 C   0  0  0  0  0  0  0  0  0  0  0  0
    4.0445   26.4440   -2.6301 H   0  0  0  0  0  0  0  0  0  0  0  0
    3.6324   28.4943   -3.0972 C   0  0  0  0  0  0  0  0  0  0  0  0
    4.6289   28.7031   -3.4546 H   0  0  0  0  0  0  0  0  0  0  0  0
    2.6807   29.4968   -3.0941 C   0  0  0  0  0  0  0  0  0  0  0  0
    2.9273   30.4876   -3.4428 H   0  0  0  0  0  0  0  0  0  0  0  0
    1.3946   29.2414   -2.6468 C   0  0  0  0  0  0  0  0  0  0  0  0
   -0.0429   30.8611   -4.4371 C   0  0  0  0  0  0  0  0  0  0  0  0
   -0.2050   29.8920   -4.9064 H   0  0  0  0  0  0  0  0  0  0  0  0
   -0.9691   31.4378   -4.4643 H   0  0  0  0  0  0  0  0  0  0  0  0
    1.0815   31.6085   -5.0480 C   0  0  0  0  0  0  0  0  0  0  0  0
    1.2553   32.6012   -4.6524 H   0  0  0  0  0  0  0  0  0  0  0  0
    1.8427   31.1152   -6.0093 C   0  0  0  0  0  0  0  0  0  0  0  0
    1.6775   30.1274   -6.4071 H   0  0  0  0  0  0  0  0  0  0  0  0
    2.6466   31.6818   -6.4470 H   0  0  0  0  0  0  0  0  0  0  0  0
   -0.8610   31.5976    0.7286 C   0  0  0  0  0  0  0  0  0  0  0  0
   -1.1481   32.5766   -0.2113 C   0  0  0  0  0  0  0  0  0  0  0  0
   -1.5744   32.3021   -1.1636 H   0  0  0  0  0  0  0  0  0  0  0  0
   -0.9163   33.9090    0.0872 C   0  0  0  0  0  0  0  0  0  0  0  0
   -1.1436   34.6677   -0.6467 H   0  0  0  0  0  0  0  0  0  0  0  0
   -0.4017   34.2680    1.3203 C   0  0  0  0  0  0  0  0  0  0  0  0
   -0.2231   35.3078    1.5514 H   0  0  0  0  0  0  0  0  0  0  0  0
   -0.1206   33.2918    2.2644 C   0  0  0  0  0  0  0  0  0  0  0  0
    0.2758   33.5695    3.2301 H   0  0  0  0  0  0  0  0  0  0  0  0
   -0.3498   31.9617    1.9735 C   0  0  0  0  0  0  0  0  0  0  0  0
   -0.1314   31.1997    2.7093 H   0  0  0  0  0  0  0  0  0  0  0  0
   -2.2488   29.4279    1.8112 C   0  0  0  0  0  0  0  0  0  0  0  0
   -3.6040   29.6820    1.6166 C   0  0  0  0  0  0  0  0  0  0  0  0
   -3.9333   30.0753    0.6657 H   0  0  0  0  0  0  0  0  0  0  0  0
   -4.5087   29.4389    2.6326 C   0  0  0  0  0  0  0  0  0  0  0  0
   -5.5588   29.6339    2.4747 H   0  0  0  0  0  0  0  0  0  0  0  0
   -4.0682   28.9482    3.8510 C   0  0  0  0  0  0  0  0  0  0  0  0
   -4.7741   28.7530    4.6446 H   0  0  0  0  0  0  0  0  0  0  0  0
   -2.7184   28.7161    4.0549 C   0  0  0  0  0  0  0  0  0  0  0  0
   -2.3705   28.3464    5.0086 H   0  0  0  0  0  0  0  0  0  0  0  0
   -1.8061   28.9570    3.0427 C   0  0  0  0  0  0  0  0  0  0  0  0
   -0.7549   28.7767    3.2184 H   0  0  0  0  0  0  0  0  0  0  0  0
    0.4751   29.1016    0.8589 C   0  0  0  0  0  0  0  0  0  0  0  0
    1.6455   29.7950    0.5632 C   0  0  0  0  0  0  0  0  0  0  0  0
    1.5875   30.8192    0.2197 H   0  0  0  0  0  0  0  0  0  0  0  0
    2.8751   29.1783    0.7038 C   0  0  0  0  0  0  0  0  0  0  0  0
    3.7778   29.7240    0.4719 H   0  0  0  0  0  0  0  0  0  0  0  0
    2.9476   27.8618    1.1267 C   0  0  0  0  0  0  0  0  0  0  0  0
    3.9081   27.3795    1.2284 H   0  0  0  0  0  0  0  0  0  0  0  0
    1.7862   27.1610    1.4101 C   0  0  0  0  0  0  0  0  0  0  0  0
    1.8387   26.1313    1.7306 H   0  0  0  0  0  0  0  0  0  0  0  0
    0.5545   27.7719    1.2694 C   0  0  0  0  0  0  0  0  0  0  0  0
   -0.3532   27.2169    1.4657 H   0  0  0  0  0  0  0  0  0  0  0  0
  1  3  1  0  0  0  0
  1  6  1  0  0  0  0
  1  8  1  0  0  0  0
  1  5  1  0  0  0  0
  2  1  1  0  0  0  0
  4 28  1  6  0  0  0
  4  1  1  0  0  0  0
  5 36  1  0  0  0  0
  5 58  1  0  0  0  0
  5 47  1  0  0  0  0
  6  7  1  0  0  0  0
  7 17  1  0  0  0  0
  8 17  2  0  0  0  0
  8  9  1  0  0  0  0
  9 11  2  0  0  0  0
 10  9  1  0  0  0  0
 11 13  1  0  0  0  0
 11 12  1  0  0  0  0
 13 14  1  0  0  0  0
 15 16  1  0  0  0  0
 15 13  2  0  0  0  0
 17 15  1  0  0  0  0
 18  6  1  0  0  0  0
 19 18  1  0  0  0  0
 19 20  1  0  0  0  0
 21 22  1  0  0  0  0
 21 19  2  0  0  0  0
 23 25  2  0  0  0  0
 23 21  1  0  0  0  0
 24 23  1  0  0  0  0
 25 27  1  0  0  0  0
 26 25  1  0  0  0  0
 27  4  1  0  0  0  0
 27 18  2  0  0  0  0
 29 28  1  0  0  0  0
 30 28  1  0  0  0  0
 31 32  1  0  0  0  0
 31 28  1  0  0  0  0
 33 31  2  0  0  0  0
 34 33  1  0  0  0  0
 35 33  1  0  0  0  0
 36 45  1  0  0  0  0
 37 39  1  0  0  0  0
 37 36  2  0  0  0  0
 38 37  1  0  0  0  0
 39 41  2  0  0  0  0
 40 39  1  0  0  0  0
 41 42  1  0  0  0  0
 41 43  1  0  0  0  0
 43 44  1  0  0  0  0
 45 43  2  0  0  0  0
 45 46  1  0  0  0  0
 47 56  1  0  0  0  0
 48 47  2  0  0  0  0
 48 50  1  0  0  0  0
 49 48  1  0  0  0  0
 50 52  2  0  0  0  0
 51 50  1  0  0  0  0
 52 54  1  0  0  0  0
 52 53  1  0  0  0  0
 54 55  1  0  0  0  0
 56 57  1  0  0  0  0
 56 54  2  0  0  0  0
 58 67  1  0  0  0  0
 59 61  1  0  0  0  0
 59 58  2  0  0  0  0
 60 59  1  0  0  0  0
 61 63  2  0  0  0  0
 62 61  1  0  0  0  0
 63 64  1  0  0  0  0
 63 65  1  0  0  0  0
 65 66  1  0  0  0  0
 67 65  2  0  0  0  0
 67 68  1  0  0  0  0
M  END
$$$$
