CSD_code = XUFHIQ | q = 0 | S = 0 | Stoichiometry = C21H18ClNOPtSe | MND = 4
 OpenBabel04212202123D

 44 47  0  0  1  0  0  0  0  0999 V2000
    5.6834    6.9488    4.6150 C   0  0  0  0  0  0  0  0  0  0  0  0
    3.1447    8.5773   -1.2443 Cl  0  0  0  0  0  0  0  0  0  0  0  0
    4.6235    6.9977    2.4534 N   0  0  0  0  0  0  0  0  0  0  0  0
    4.5529    9.6173    1.2097 O   0  0  0  0  0  0  0  0  0  0  0  0
    3.9460    7.7641    0.7142 Pt  0  0  0  0  0  0  0  0  0  0  0  0
    3.1777    5.6471    0.0408 Se  0  0  0  0  0  0  0  0  0  0  0  0
    6.8735    6.2325    4.6989 C   0  0  0  0  0  0  0  0  0  0  0  0
    7.5341    6.1962    3.8445 H   0  0  0  0  0  0  0  0  0  0  0  0
    7.2099    5.5831    5.8733 C   0  0  0  0  0  0  0  0  0  0  0  0
    8.1372    5.0330    5.9342 H   0  0  0  0  0  0  0  0  0  0  0  0
    6.3628    5.6421    6.9678 C   0  0  0  0  0  0  0  0  0  0  0  0
    6.6290    5.1371    7.8842 H   0  0  0  0  0  0  0  0  0  0  0  0
    5.1770    6.3527    6.8868 C   0  0  0  0  0  0  0  0  0  0  0  0
    4.5167    6.4037    7.7396 H   0  0  0  0  0  0  0  0  0  0  0  0
    4.8347    7.0033    5.7142 C   0  0  0  0  0  0  0  0  0  0  0  0
    3.9139    7.5643    5.6480 H   0  0  0  0  0  0  0  0  0  0  0  0
    5.7329    9.0155    3.2429 C   0  0  0  0  0  0  0  0  0  0  0  0
    5.3294    9.9006    2.1914 C   0  0  2  0  0  3  0  0  0  0  0  0
    5.8047   11.2403    2.2386 C   0  0  0  0  0  0  0  0  0  0  0  0
    5.4822   11.8862    1.4365 H   0  0  0  0  0  0  0  0  0  0  0  0
    6.6245   11.6902    3.2315 C   0  0  0  0  0  0  0  0  0  0  0  0
    6.9678   12.7143    3.2284 H   0  0  0  0  0  0  0  0  0  0  0  0
    7.0224   10.8233    4.2551 C   0  0  0  0  0  0  0  0  0  0  0  0
    7.6730   11.1737    5.0414 H   0  0  0  0  0  0  0  0  0  0  0  0
    6.5802    9.5303    4.2528 C   0  0  0  0  0  0  0  0  0  0  0  0
    6.8950    8.8732    5.0492 H   0  0  0  0  0  0  0  0  0  0  0  0
    5.3087    7.6491    3.3496 C   0  0  0  0  0  0  0  0  0  0  0  0
    4.1928    5.6344    2.7322 C   0  0  0  0  0  0  0  0  0  0  0  0
    4.8296    5.1706    3.4945 H   0  0  0  0  0  0  0  0  0  0  0  0
    3.1678    5.6695    3.1285 H   0  0  0  0  0  0  0  0  0  0  0  0
    4.2093    4.7631    1.4851 C   0  0  0  0  0  0  0  0  0  0  0  0
    3.7999    3.7744    1.6957 H   0  0  0  0  0  0  0  0  0  0  0  0
    5.2235    4.6620    1.0911 H   0  0  0  0  0  0  0  0  0  0  0  0
    1.4635    5.6365    0.9427 C   0  0  0  0  0  0  0  0  0  0  0  0
    0.8237    4.4328    1.2056 C   0  0  0  0  0  0  0  0  0  0  0  0
    1.2780    3.5001    0.9008 H   0  0  0  0  0  0  0  0  0  0  0  0
   -0.3969    4.4381    1.8577 C   0  0  0  0  0  0  0  0  0  0  0  0
   -0.8955    3.5041    2.0703 H   0  0  0  0  0  0  0  0  0  0  0  0
   -0.9818    5.6383    2.2291 C   0  0  0  0  0  0  0  0  0  0  0  0
   -1.9357    5.6376    2.7345 H   0  0  0  0  0  0  0  0  0  0  0  0
   -0.3489    6.8378    1.9455 C   0  0  0  0  0  0  0  0  0  0  0  0
   -0.8079    7.7732    2.2273 H   0  0  0  0  0  0  0  0  0  0  0  0
    0.8752    6.8420    1.2996 C   0  0  0  0  0  0  0  0  0  0  0  0
    1.3774    7.7772    1.0618 H   0  0  0  0  0  0  0  0  0  0  0  0
  1  7  2  0  0  0  0
  1 15  1  0  0  0  0
  2  5  1  0  0  0  0
  3 28  1  0  0  0  0
  3 27  1  0  0  0  0
  5  4  1  0  0  0  0
  5  3  1  0  0  0  0
  6 34  1  0  0  0  0
  6 31  1  0  0  0  0
  7  9  1  0  0  0  0
  8  7  1  0  0  0  0
  9 10  1  0  0  0  0
  9 11  2  0  0  0  0
 11 12  1  0  0  0  0
 13 11  1  0  0  0  0
 13 14  1  0  0  0  0
 15 13  2  0  0  0  0
 16 15  1  0  0  0  0
 17 27  2  0  0  0  0
 17 25  1  0  0  0  0
 18  4  1  1  0  0  0
 18 19  1  0  0  0  0
 18 17  1  0  0  0  0
 19 21  2  0  0  0  0
 20 19  1  0  0  0  0
 21 23  1  0  0  0  0
 22 21  1  0  0  0  0
 23 24  1  0  0  0  0
 25 23  2  0  0  0  0
 25 26  1  0  0  0  0
 27  1  1  0  0  0  0
 28 30  1  0  0  0  0
 28 29  1  0  0  0  0
 31 32  1  0  0  0  0
 31 28  1  0  0  0  0
 33 31  1  0  0  0  0
 34 35  2  0  0  0  0
 34 43  1  0  0  0  0
 35 37  1  0  0  0  0
 36 35  1  0  0  0  0
 37 38  1  0  0  0  0
 37 39  2  0  0  0  0
 39 40  1  0  0  0  0
 41 42  1  0  0  0  0
 41 39  1  0  0  0  0
 43 41  2  0  0  0  0
 44 43  1  0  0  0  0
M  END
$$$$
