CSD_code = XUFWEA | q = 0 | S = 0 | Stoichiometry = C14H11AuClP | MND = 2
 OpenBabel04212202123D

 28 29  0  0  0  0  0  0  0  0999 V2000
    1.9712    4.4974    1.5457 Au  0  0  0  0  0  0  0  0  0  0  0  0
    0.5774    5.7696    0.3023 Cl  0  0  0  0  0  0  0  0  0  0  0  0
    3.3089    3.1588    2.7530 P   0  0  0  0  0  4  0  0  0  0  0  0
    3.8423    3.7909    4.2986 C   0  0  0  0  0  0  0  0  0  0  0  0
    4.1191    4.3083    5.3499 C   0  0  0  0  0  0  0  0  0  0  0  0
    4.3882    4.7344    6.2730 H   0  0  0  0  0  0  0  0  0  0  0  0
    2.5944    1.5614    3.2261 C   0  0  0  0  0  0  0  0  0  0  0  0
    1.3228    1.2245    2.7793 C   0  0  0  0  0  0  0  0  0  0  0  0
    0.7711    1.9240    2.1634 H   0  0  0  0  0  0  0  0  0  0  0  0
    0.7762    0.0011    3.1263 C   0  0  0  0  0  0  0  0  0  0  0  0
   -0.2111   -0.2641    2.7794 H   0  0  0  0  0  0  0  0  0  0  0  0
    1.4958   -0.8780    3.9184 C   0  0  0  0  0  0  0  0  0  0  0  0
    1.0675   -1.8312    4.1901 H   0  0  0  0  0  0  0  0  0  0  0  0
    2.7644   -0.5394    4.3666 C   0  0  0  0  0  0  0  0  0  0  0  0
    3.3206   -1.2278    4.9853 H   0  0  0  0  0  0  0  0  0  0  0  0
    3.3189    0.6781    4.0225 C   0  0  0  0  0  0  0  0  0  0  0  0
    4.3073    0.9536    4.3649 H   0  0  0  0  0  0  0  0  0  0  0  0
    4.8695    2.6996    1.9552 C   0  0  0  0  0  0  0  0  0  0  0  0
    4.8429    1.7027    0.9837 C   0  0  0  0  0  0  0  0  0  0  0  0
    3.9171    1.1811    0.7771 H   0  0  0  0  0  0  0  0  0  0  0  0
    5.9986    1.3851    0.2958 C   0  0  0  0  0  0  0  0  0  0  0  0
    5.9821    0.6081   -0.4538 H   0  0  0  0  0  0  0  0  0  0  0  0
    7.1752    2.0669    0.5650 C   0  0  0  0  0  0  0  0  0  0  0  0
    8.0766    1.8178    0.0255 H   0  0  0  0  0  0  0  0  0  0  0  0
    7.1968    3.0706    1.5199 C   0  0  0  0  0  0  0  0  0  0  0  0
    8.1132    3.6046    1.7228 H   0  0  0  0  0  0  0  0  0  0  0  0
    6.0452    3.3954    2.2140 C   0  0  0  0  0  0  0  0  0  0  0  0
    6.0512    4.1801    2.9579 H   0  0  0  0  0  0  0  0  0  0  0  0
  1  3  1  0  0  0  0
  2  1  1  0  0  0  0
  3  7  1  0  0  0  0
  3  4  1  0  0  0  0
  4  5  3  0  0  0  0
  5  6  1  0  0  0  0
  7 16  1  0  0  0  0
  8 10  1  0  0  0  0
  8  7  2  0  0  0  0
  9  8  1  0  0  0  0
 10 12  2  0  0  0  0
 11 10  1  0  0  0  0
 12 13  1  0  0  0  0
 12 14  1  0  0  0  0
 14 15  1  0  0  0  0
 16 17  1  0  0  0  0
 16 14  2  0  0  0  0
 18 27  1  0  0  0  0
 18  3  1  0  0  0  0
 19 18  2  0  0  0  0
 20 19  1  0  0  0  0
 21 23  2  0  0  0  0
 21 19  1  0  0  0  0
 22 21  1  0  0  0  0
 23 25  1  0  0  0  0
 24 23  1  0  0  0  0
 25 26  1  0  0  0  0
 25 27  2  0  0  0  0
 27 28  1  0  0  0  0
M  END
$$$$
