CSD_code = XUHNAP | q = 0 | S = 0 | Stoichiometry = C14H27ClN2O2Pt | MND = 5
 OpenBabel04212202123D

 47 45  0  0  1  0  0  0  0  0999 V2000
    2.6968    7.6783    2.1637 C   0  0  0  0  0  0  0  0  0  0  0  0
    2.3866    8.5130    1.5433 H   0  0  0  0  0  0  0  0  0  0  0  0
    2.8563    7.9029    3.5420 C   0  0  2  0  0  0  0  0  0  0  0  0
    2.7976    8.9251    3.9094 H   0  0  0  0  0  0  0  0  0  0  0  0
    3.2553    5.8829    4.7376 C   0  0  0  0  0  0  0  0  0  0  0  0
    3.9354    5.0333    5.7814 C   0  0  0  0  0  0  0  0  0  0  0  0
    4.3314    5.6221    6.6013 H   0  0  0  0  0  0  0  0  0  0  0  0
    4.7281    4.4333    5.3421 H   0  0  0  0  0  0  0  0  0  0  0  0
    3.1777    4.3529    6.1659 H   0  0  0  0  0  0  0  0  0  0  0  0
    5.0542    7.6877    4.6630 C   0  0  0  0  0  0  0  0  0  0  0  0
    5.4410    8.6836    3.5571 C   0  0  0  0  0  0  0  0  0  0  0  0
    6.4483    9.0462    3.7453 H   0  0  0  0  0  0  0  0  0  0  0  0
    4.7865    9.5481    3.5253 H   0  0  0  0  0  0  0  0  0  0  0  0
    5.4246    8.1982    2.5847 H   0  0  0  0  0  0  0  0  0  0  0  0
    6.1783    6.6427    4.7078 C   0  0  0  0  0  0  0  0  0  0  0  0
    6.2223    6.1128    5.6517 H   0  0  0  0  0  0  0  0  0  0  0  0
    7.1338    7.1446    4.5786 H   0  0  0  0  0  0  0  0  0  0  0  0
    6.0674    5.9282    3.8959 H   0  0  0  0  0  0  0  0  0  0  0  0
    4.9472    8.4334    5.9977 C   0  0  0  0  0  0  0  0  0  0  0  0
    4.6790    7.7616    6.8087 H   0  0  0  0  0  0  0  0  0  0  0  0
    5.8990    8.8995    6.2381 H   0  0  0  0  0  0  0  0  0  0  0  0
    4.1883    9.2100    5.9387 H   0  0  0  0  0  0  0  0  0  0  0  0
    2.6985    6.1403    0.2312 C   0  0  0  0  0  0  0  0  0  0  0  0
    3.7613    5.2412   -0.4052 C   0  0  0  0  0  0  0  0  0  0  0  0
    3.3868    4.8165   -1.3320 H   0  0  0  0  0  0  0  0  0  0  0  0
    4.0234    4.4225    0.2623 H   0  0  0  0  0  0  0  0  0  0  0  0
    4.6601    5.8135   -0.6226 H   0  0  0  0  0  0  0  0  0  0  0  0
    2.3663    7.3004   -0.7061 C   0  0  0  0  0  0  0  0  0  0  0  0
    1.5050    7.8588   -0.3490 H   0  0  0  0  0  0  0  0  0  0  0  0
    3.2168    7.9722   -0.7974 H   0  0  0  0  0  0  0  0  0  0  0  0
    2.1285    6.9099   -1.6916 H   0  0  0  0  0  0  0  0  0  0  0  0
    1.4334    5.3344    0.5432 C   0  0  0  0  0  0  0  0  0  0  0  0
    1.6693    4.4666    1.1572 H   0  0  0  0  0  0  0  0  0  0  0  0
    0.9587    4.9923   -0.3722 H   0  0  0  0  0  0  0  0  0  0  0  0
    0.7155    5.9622    1.0882 H   0  0  0  0  0  0  0  0  0  0  0  0
   -0.1066    8.7413    2.6833 C   0  0  0  0  0  0  0  0  0  0  0  0
   -1.0139    9.3689    3.7032 C   0  0  0  0  0  0  0  0  0  0  0  0
   -1.2896   10.3770    3.3962 H   0  0  0  0  0  0  0  0  0  0  0  0
   -1.9069    8.7458    3.7640 H   0  0  0  0  0  0  0  0  0  0  0  0
   -0.5508    9.3784    4.6888 H   0  0  0  0  0  0  0  0  0  0  0  0
    2.2026    5.4523    4.2635 O   0  0  0  0  0  0  0  0  0  0  0  0
    0.0555    9.1617    1.5677 O   0  0  0  0  0  0  0  0  0  0  0  0
   -1.1156    6.1007    3.5631 Cl  0  0  0  0  0 15  0  0  0  0  0  0
    3.7485    7.0739    4.3297 N   0  0  0  0  0  0  0  0  0  0  0  0
    3.2775    6.6481    1.4807 N   0  0  0  0  0  4  0  0  0  0  0  0
    3.5910    5.8869    2.0729 H   0  0  0  0  0  0  0  0  0  0  0  0
    0.8644    7.1348    3.2951 Pt  0  0  0  0  0  0  0  0  0  0  0  0
  1  3  1  0  0  0  0
  2  1  1  0  0  0  0
  3  4  1  1  0  0  0
  3 44  1  0  0  0  0
  5  6  1  0  0  0  0
  6  9  1  0  0  0  0
  6  7  1  0  0  0  0
  8  6  1  0  0  0  0
 10 15  1  0  0  0  0
 10 19  1  0  0  0  0
 11 12  1  0  0  0  0
 11 10  1  0  0  0  0
 13 11  1  0  0  0  0
 14 11  1  0  0  0  0
 15 16  1  0  0  0  0
 17 15  1  0  0  0  0
 18 15  1  0  0  0  0
 19 21  1  0  0  0  0
 19 20  1  0  0  0  0
 22 19  1  0  0  0  0
 23 32  1  0  0  0  0
 23 45  1  0  0  0  0
 24 23  1  0  0  0  0
 24 26  1  0  0  0  0
 25 24  1  0  0  0  0
 27 24  1  0  0  0  0
 28 29  1  0  0  0  0
 28 23  1  0  0  0  0
 30 28  1  0  0  0  0
 31 28  1  0  0  0  0
 32 35  1  0  0  0  0
 32 33  1  0  0  0  0
 34 32  1  0  0  0  0
 36 47  1  0  0  0  0
 36 37  1  0  0  0  0
 37 39  1  0  0  0  0
 37 40  1  0  0  0  0
 38 37  1  0  0  0  0
 41  5  2  0  0  0  0
 42 36  2  0  0  0  0
 44 10  1  0  0  0  0
 44  5  1  0  0  0  0
 45 46  1  0  0  0  0
 45  1  2  0  0  0  0
 47  3  1  0  0  0  0
M  END
$$$$
