CSD_code = XUHRID | q = 0 | S = 0 | Stoichiometry = C23H29ClHfN2O2 | MND = 10
 OpenBabel04212202123D

 58 60  0  0  1  0  0  0  0  0999 V2000
    9.7131    2.8335    1.9113 Hf  0  0  0  0  0  0  0  0  0  0  0  0
   10.6068    2.6340   -0.2554 Cl  0  0  0  0  0  0  0  0  0  0  0  0
    7.8002    2.7137    3.3132 O   0  0  0  0  0  0  0  0  0  0  0  0
    5.6958    4.2494    0.3369 C   0  0  0  0  0  0  0  0  0  0  0  0
    5.1336    3.4713   -0.1554 H   0  0  0  0  0  0  0  0  0  0  0  0
    5.8013    6.4709    1.2349 C   0  0  0  0  0  0  0  0  0  0  0  0
    5.3343    7.4233    1.4379 H   0  0  0  0  0  0  0  0  0  0  0  0
    7.0105    4.0429    0.6932 C   0  0  0  0  0  0  0  0  0  0  0  0
    9.0426    4.7696    1.7280 N   0  0  0  0  0  0  0  0  0  0  0  0
    9.4657    5.6028    2.1371 H   0  0  0  0  0  0  0  0  0  0  0  0
    7.0797    1.5434    3.0217 C   0  0  0  0  0  0  0  0  0  0  0  0
    5.0823    5.4671    0.6136 C   0  0  0  0  0  0  0  0  0  0  0  0
    4.0528    5.6217    0.3321 H   0  0  0  0  0  0  0  0  0  0  0  0
    9.9459    1.6876    5.3017 C   0  0  0  0  0  0  0  0  0  0  0  0
    9.2465    0.9270    4.9502 H   0  0  0  0  0  0  0  0  0  0  0  0
    9.3942    2.4306    5.8746 H   0  0  0  0  0  0  0  0  0  0  0  0
   10.6516    1.1989    5.9761 H   0  0  0  0  0  0  0  0  0  0  0  0
    9.0700    0.8917    1.8701 N   0  0  0  0  0  0  0  0  0  0  0  0
    9.4502    0.1607    1.2675 H   0  0  0  0  0  0  0  0  0  0  0  0
    7.7229    2.8687    0.4553 O   0  0  0  0  0  0  0  0  0  0  0  0
   11.8401    0.2010    3.2556 C   0  0  0  0  0  0  0  0  0  0  0  0
   12.6783   -0.0035    3.9261 H   0  0  0  0  0  0  0  0  0  0  0  0
   12.1173   -0.1491    2.2626 H   0  0  0  0  0  0  0  0  0  0  0  0
   10.9841   -0.3743    3.6034 H   0  0  0  0  0  0  0  0  0  0  0  0
    5.1634    0.1000    3.0886 C   0  0  0  0  0  0  0  0  0  0  0  0
    4.1504   -0.0814    3.4102 H   0  0  0  0  0  0  0  0  0  0  0  0
    5.8483   -0.8437    2.3459 C   0  0  0  0  0  0  0  0  0  0  0  0
    5.3700   -1.7756    2.0833 H   0  0  0  0  0  0  0  0  0  0  0  0
    5.7858    1.2978    3.4258 C   0  0  0  0  0  0  0  0  0  0  0  0
    5.2359    2.0262    3.9998 H   0  0  0  0  0  0  0  0  0  0  0  0
    7.8006    0.5968    2.2482 C   0  0  0  0  0  0  0  0  0  0  0  0
    7.2385    2.0248   -0.5772 C   0  0  0  0  0  0  0  0  0  0  0  0
    6.3850    1.4300   -0.2340 H   0  0  0  0  0  0  0  0  0  0  0  0
    8.0642    1.3626   -0.8401 H   0  0  0  0  0  0  0  0  0  0  0  0
    6.9566    2.6108   -1.4560 H   0  0  0  0  0  0  0  0  0  0  0  0
   10.6833    2.3376    4.1654 C   0  0  0  0  0  0  0  0  0  0  0  0
   11.5309    1.6714    3.2450 C   0  0  0  0  0  0  0  0  0  0  0  0
    7.1421   -0.6013    1.9297 C   0  0  0  0  0  0  0  0  0  0  0  0
    7.6729   -1.3383    1.3432 H   0  0  0  0  0  0  0  0  0  0  0  0
   10.7947    3.7308    3.9250 C   0  0  1  0  0  0  0  0  0  0  0  0
   10.3975    4.5100    4.5633 H   0  0  0  0  0  0  0  0  0  0  0  0
    7.1172    6.2662    1.6039 C   0  0  0  0  0  0  0  0  0  0  0  0
    7.6750    7.0583    2.0854 H   0  0  0  0  0  0  0  0  0  0  0  0
    7.7606    5.0446    1.3588 C   0  0  0  0  0  0  0  0  0  0  0  0
   11.7300    3.9277    2.8704 C   0  0  0  0  0  0  0  0  0  0  0  0
   12.1832    2.6530    2.4533 C   0  0  0  0  0  0  0  0  0  0  0  0
    7.1555    3.6607    4.1457 C   0  0  0  0  0  0  0  0  0  0  0  0
    6.2625    4.0741    3.6660 H   0  0  0  0  0  0  0  0  0  0  0  0
    7.8726    4.4647    4.3084 H   0  0  0  0  0  0  0  0  0  0  0  0
    6.8852    3.2138    5.1078 H   0  0  0  0  0  0  0  0  0  0  0  0
   12.2702    5.2464    2.3873 C   0  0  0  0  0  0  0  0  0  0  0  0
   11.8267    6.0714    2.9429 H   0  0  0  0  0  0  0  0  0  0  0  0
   12.0748    5.3948    1.3227 H   0  0  0  0  0  0  0  0  0  0  0  0
   13.3508    5.2862    2.5339 H   0  0  0  0  0  0  0  0  0  0  0  0
   13.3018    2.4030    1.4835 C   0  0  0  0  0  0  0  0  0  0  0  0
   14.2567    2.3622    2.0131 H   0  0  0  0  0  0  0  0  0  0  0  0
   13.3566    3.1955    0.7407 H   0  0  0  0  0  0  0  0  0  0  0  0
   13.1662    1.4593    0.9589 H   0  0  0  0  0  0  0  0  0  0  0  0
  1 40  1  0  0  0  0
  2  1  1  0  0  0  0
  3 47  1  0  0  0  0
  4 12  2  0  0  0  0
  4  8  1  0  0  0  0
  5  4  1  0  0  0  0
  6  7  1  0  0  0  0
  6 42  2  0  0  0  0
  8 44  2  0  0  0  0
  9  1  1  0  0  0  0
  9 10  1  0  0  0  0
 11  3  1  0  0  0  0
 11 29  1  0  0  0  0
 12  6  1  0  0  0  0
 13 12  1  0  0  0  0
 14 16  1  0  0  0  0
 14 17  1  0  0  0  0
 15 14  1  0  0  0  0
 18  1  1  0  0  0  0
 18 31  1  0  0  0  0
 19 18  1  0  0  0  0
 20  8  1  0  0  0  0
 21 24  1  0  0  0  0
 21 22  1  0  0  0  0
 23 21  1  0  0  0  0
 25 26  1  0  0  0  0
 25 29  2  0  0  0  0
 27 25  1  0  0  0  0
 28 27  1  0  0  0  0
 29 30  1  0  0  0  0
 31 11  2  0  0  0  0
 32 33  1  0  0  0  0
 32 20  1  0  0  0  0
 34 32  1  0  0  0  0
 35 32  1  0  0  0  0
 36 14  1  0  0  0  0
 37 21  1  0  0  0  0
 37 36  2  0  0  0  0
 38 31  1  0  0  0  0
 38 27  2  0  0  0  0
 39 38  1  0  0  0  0
 40 36  1  0  0  0  0
 40 41  1  1  0  0  0
 42 43  1  0  0  0  0
 44 42  1  0  0  0  0
 44  9  1  0  0  0  0
 45 40  1  0  0  0  0
 46 45  2  0  0  0  0
 46 37  1  0  0  0  0
 47 49  1  0  0  0  0
 47 50  1  0  0  0  0
 48 47  1  0  0  0  0
 51 54  1  0  0  0  0
 51 45  1  0  0  0  0
 51 52  1  0  0  0  0
 53 51  1  0  0  0  0
 55 56  1  0  0  0  0
 55 46  1  0  0  0  0
 57 55  1  0  0  0  0
 58 55  1  0  0  0  0
M  END
$$$$
