CSD_code = XUHRUO | q = 0 | S = 0 | Stoichiometry = C6H9FeI2O6P | MND = 6
 OpenBabel04212202123D

 25 24  0  0  0  0  0  0  0  0999 V2000
   12.7136    4.0228    5.1008 C   0  0  0  0  0  2  0  0  0  0  0  0
   12.7192    6.0359    6.5217 C   0  0  0  0  0  2  0  0  0  0  0  0
   13.7898    4.8229    8.4004 C   0  0  0  0  0  2  0  0  0  0  0  0
   10.2490    2.1118    5.8200 C   0  0  0  0  0  0  0  0  0  0  0  0
   11.1763    1.6230    5.5131 H   0  0  0  0  0  0  0  0  0  0  0  0
    9.9947    2.9085    5.1186 H   0  0  0  0  0  0  0  0  0  0  0  0
    9.4492    1.3720    5.8365 H   0  0  0  0  0  0  0  0  0  0  0  0
    9.0152    5.2409    7.8536 C   0  0  0  0  0  0  0  0  0  0  0  0
    8.5211    5.9777    7.2220 H   0  0  0  0  0  0  0  0  0  0  0  0
    9.0085    5.5751    8.8905 H   0  0  0  0  0  0  0  0  0  0  0  0
    8.5048    4.2797    7.7783 H   0  0  0  0  0  0  0  0  0  0  0  0
   11.4469    2.5404    9.9808 C   0  0  0  0  0  0  0  0  0  0  0  0
   12.5028    2.5918   10.2499 H   0  0  0  0  0  0  0  0  0  0  0  0
   11.2503    1.6075    9.4530 H   0  0  0  0  0  0  0  0  0  0  0  0
   10.8399    2.5894   10.8841 H   0  0  0  0  0  0  0  0  0  0  0  0
   13.1869    4.3676    6.7841 Fe  0  0  0  0  0  0  0  0  0  0  0  0
   15.5153    5.0057    5.8510 I   0  0  0  0  0  0  0  0  0  0  0  0
   13.7353    1.9113    7.2779 I   0  0  0  0  0  0  0  0  0  0  0  0
   12.4430    3.8911    4.0057 O   0  0  0  0  0  1  0  0  0  0  0  0
   12.4352    7.1206    6.3468 O   0  0  0  0  0  1  0  0  0  0  0  0
   14.1700    5.1422    9.4198 O   0  0  0  0  0  1  0  0  0  0  0  0
   10.3540    2.6018    7.1480 O   0  0  0  0  0  0  0  0  0  0  0  0
   10.3630    5.1414    7.3834 O   0  0  0  0  0  0  0  0  0  0  0  0
   11.0721    3.6696    9.1932 O   0  0  0  0  0  0  0  0  0  0  0  0
   11.2583    3.8374    7.6289 P   0  0  0  0  0  4  0  0  0  0  0  0
  1 16  1  0  0  0  0
  2 16  1  0  0  0  0
  3 21  1  0  0  0  0
  4  7  1  0  0  0  0
  4 22  1  0  0  0  0
  5  4  1  0  0  0  0
  6  4  1  0  0  0  0
  8 10  1  0  0  0  0
  9  8  1  0  0  0  0
 11  8  1  0  0  0  0
 12 13  1  0  0  0  0
 12 15  1  0  0  0  0
 14 12  1  0  0  0  0
 16 18  1  0  0  0  0
 16 25  1  0  0  0  0
 16  3  1  0  0  0  0
 17 16  1  0  0  0  0
 19  1  1  0  0  0  0
 20  2  1  0  0  0  0
 22 25  1  0  0  0  0
 23 25  1  0  0  0  0
 23  8  1  0  0  0  0
 24 12  1  0  0  0  0
 25 24  1  0  0  0  0
M  END
$$$$
