CSD_code = XUJBOT | q = 0 | S = 0 | Stoichiometry = C15H20Cl3N2ORhS | MND = 6
 OpenBabel04212202123D

 43 45  0  0  0  0  0  0  0  0999 V2000
    1.2271    3.3723    3.2937 Rh  0  0  0  0  0  0  0  0  0  0  0  0
    1.1068    3.9391    5.5004 Cl  0  0  0  0  0  0  0  0  0  0  0  0
   -1.0321    4.0278    2.7914 Cl  0  0  0  0  0  0  0  0  0  0  0  0
    3.2057    2.8115    3.6059 C   0  0  0  0  0  0  0  0  0  0  0  0
    3.5544    1.2671    2.7996 Cl  0  0  0  0  0  0  0  0  0  0  0  0
    0.4189    1.4051    4.1093 S   0  0  0  0  0  0  0  0  0  0  0  0
    0.2108    0.3209    3.1568 O   0  0  0  0  0  1  0  0  0  0  0  0
    1.3717    0.6633    5.4739 C   0  0  0  0  0  0  0  0  0  0  0  0
   -1.1532    1.6037    4.9873 C   0  0  0  0  0  0  0  0  0  0  0  0
    1.7746    5.1522    2.6429 N   0  0  0  0  0  0  0  0  0  0  0  0
    1.8317    5.2869    1.3037 C   0  0  0  0  0  0  0  0  0  0  0  0
    2.0506    6.5282    0.7169 C   0  0  0  0  0  0  0  0  0  0  0  0
    2.2089    7.6592    1.5060 C   0  0  0  0  0  0  0  0  0  0  0  0
    2.4513    9.0030    0.9046 C   0  0  0  0  0  0  0  0  0  0  0  0
    2.1476    7.4853    2.8867 C   0  0  0  0  0  0  0  0  0  0  0  0
    1.9304    6.2269    3.4106 C   0  0  0  0  0  0  0  0  0  0  0  0
    1.3449    2.9746    1.3298 N   0  0  0  0  0  0  0  0  0  0  0  0
    1.6188    4.0451    0.5609 C   0  0  0  0  0  0  0  0  0  0  0  0
    1.6709    3.9410   -0.8242 C   0  0  0  0  0  0  0  0  0  0  0  0
    1.4272    2.7219   -1.4428 C   0  0  0  0  0  0  0  0  0  0  0  0
    1.4958    2.5708   -2.9259 C   0  0  0  0  0  0  0  0  0  0  0  0
    1.1286    1.6400   -0.6196 C   0  0  0  0  0  0  0  0  0  0  0  0
    1.0982    1.8068    0.7520 C   0  0  0  0  0  0  0  0  0  0  0  0
    3.9227    3.5280    3.1917 H   0  0  0  0  0  0  0  0  0  0  0  0
    3.4355    2.6628    4.6623 H   0  0  0  0  0  0  0  0  0  0  0  0
    0.7963   -0.1703    5.8589 H   0  0  0  0  0  0  0  0  0  0  0  0
    1.5348    1.4211    6.2309 H   0  0  0  0  0  0  0  0  0  0  0  0
    2.3126    0.3068    5.0698 H   0  0  0  0  0  0  0  0  0  0  0  0
   -1.8476    2.0880    4.3074 H   0  0  0  0  0  0  0  0  0  0  0  0
   -0.9846    2.2309    5.8548 H   0  0  0  0  0  0  0  0  0  0  0  0
   -1.5048    0.6146    5.2569 H   0  0  0  0  0  0  0  0  0  0  0  0
    2.0816    6.6192   -0.3569 H   0  0  0  0  0  0  0  0  0  0  0  0
    3.5180    9.2276    0.9275 H   0  0  0  0  0  0  0  0  0  0  0  0
    1.9370    9.7744    1.4723 H   0  0  0  0  0  0  0  0  0  0  0  0
    2.1177    9.0363   -0.1290 H   0  0  0  0  0  0  0  0  0  0  0  0
    2.2592    8.3268    3.5518 H   0  0  0  0  0  0  0  0  0  0  0  0
    1.8674    6.0703    4.4803 H   0  0  0  0  0  0  0  0  0  0  0  0
    1.8971    4.8079   -1.4241 H   0  0  0  0  0  0  0  0  0  0  0  0
    1.4144    3.5332   -3.4242 H   0  0  0  0  0  0  0  0  0  0  0  0
    0.7036    1.9157   -3.2802 H   0  0  0  0  0  0  0  0  0  0  0  0
    2.4489    2.1200   -3.2032 H   0  0  0  0  0  0  0  0  0  0  0  0
    0.9176    0.6701   -1.0408 H   0  0  0  0  0  0  0  0  0  0  0  0
    0.8538    0.9790    1.4076 H   0  0  0  0  0  0  0  0  0  0  0  0
  1  4  1  0  0  0  0
  1  6  1  0  0  0  0
  1  2  1  0  0  0  0
  3  1  1  0  0  0  0
  4 25  1  0  0  0  0
  5  4  1  0  0  0  0
  6  9  1  0  0  0  0
  6  8  1  0  0  0  0
  7  6  1  0  0  0  0
  8 26  1  0  0  0  0
  8 27  1  0  0  0  0
  9 31  1  0  0  0  0
  9 30  1  0  0  0  0
 10  1  1  0  0  0  0
 10 16  1  0  0  0  0
 11 10  1  0  0  0  0
 12 11  1  0  0  0  0
 12 13  2  0  0  0  0
 13 15  1  0  0  0  0
 14 33  1  0  0  0  0
 14 34  1  0  0  0  0
 14 13  1  0  0  0  0
 15 16  2  0  0  0  0
 15 36  1  0  0  0  0
 16 37  1  0  0  0  0
 17  1  1  0  0  0  0
 18 11  2  0  0  0  0
 18 17  1  0  0  0  0
 19 18  1  0  0  0  0
 20 19  2  0  0  0  0
 20 22  1  0  0  0  0
 21 20  1  0  0  0  0
 22 23  2  0  0  0  0
 23 17  1  0  0  0  0
 23 43  1  0  0  0  0
 24  4  1  0  0  0  0
 28  8  1  0  0  0  0
 29  9  1  0  0  0  0
 32 12  1  0  0  0  0
 35 14  1  0  0  0  0
 38 19  1  0  0  0  0
 39 21  1  0  0  0  0
 40 21  1  0  0  0  0
 41 21  1  0  0  0  0
 42 22  1  0  0  0  0
M  END
$$$$
