CSD_code = XUJCAG | q = 0 | S = 0 | Stoichiometry = C18H30Cl2N2Pd | MND = 4
 OpenBabel04212202123D

 53 54  0  0  0  0  0  0  0  0999 V2000
    0.4796   -0.0034    4.3705 Pd  0  0  0  0  0  0  0  0  0  0  0  0
   -0.5748    1.8837    3.8872 Cl  0  0  0  0  0  0  0  0  0  0  0  0
    2.1724    1.1774    5.1583 Cl  0  0  0  0  0  0  0  0  0  0  0  0
    1.3480   -1.7864    4.7653 N   0  0  0  0  0  0  0  0  0  0  0  0
   -0.9735   -1.1954    3.6951 N   0  0  0  0  0  0  0  0  0  0  0  0
   -9.9294   -2.9996   -0.6095 C   0  0  0  0  0  0  0  0  0  0  0  0
    0.5596   -2.8230    4.3967 C   0  0  0  0  0  0  0  0  0  0  0  0
   -4.4512   -1.0876    2.0597 C   0  0  0  0  0  0  0  0  0  0  0  0
   -5.4612   -2.1225    1.5694 C   0  0  0  0  0  0  0  0  0  0  0  0
   -2.2072   -0.7140    3.1260 C   0  0  0  0  0  0  0  0  0  0  0  0
   -8.9573   -1.9247   -0.1293 C   0  0  0  0  0  0  0  0  0  0  0  0
   -7.6997   -2.5368    0.4819 C   0  0  0  0  0  0  0  0  0  0  0  0
    2.9994   -3.3234    5.5146 C   0  0  0  0  0  0  0  0  0  0  0  0
   -6.7124   -1.4817    0.9743 C   0  0  0  0  0  0  0  0  0  0  0  0
    2.5364   -2.0356    5.3102 C   0  0  0  0  0  0  0  0  0  0  0  0
    0.9670   -4.1476    4.5761 C   0  0  0  0  0  0  0  0  0  0  0  0
   -0.7040   -2.4495    3.8153 C   0  0  0  0  0  0  0  0  0  0  0  0
    2.2009   -4.4004    5.1410 C   0  0  0  0  0  0  0  0  0  0  0  0
   -3.2087   -1.7597    2.6421 C   0  0  0  0  0  0  0  0  0  0  0  0
  -12.1465   -3.4952   -1.7204 C   0  0  0  0  0  0  0  0  0  0  0  0
  -11.1886   -2.4087   -1.2378 C   0  0  0  0  0  0  0  0  0  0  0  0
  -13.4091   -2.9162   -2.3535 C   0  0  0  0  0  0  0  0  0  0  0  0
  -14.3587   -4.0100   -2.8262 C   0  0  0  0  0  0  0  0  0  0  0  0
  -10.2120   -3.6316    0.2359 H   0  0  0  0  0  0  0  0  0  0  0  0
   -9.4278   -3.6364   -1.3424 H   0  0  0  0  0  0  0  0  0  0  0  0
   -4.9155   -0.4578    2.8208 H   0  0  0  0  0  0  0  0  0  0  0  0
   -4.1601   -0.4422    1.2289 H   0  0  0  0  0  0  0  0  0  0  0  0
   -5.7521   -2.7665    2.4030 H   0  0  0  0  0  0  0  0  0  0  0  0
   -4.9907   -2.7555    0.8129 H   0  0  0  0  0  0  0  0  0  0  0  0
   -1.9304   -0.0471    2.2993 H   0  0  0  0  0  0  0  0  0  0  0  0
   -2.6713   -0.0694    3.8836 H   0  0  0  0  0  0  0  0  0  0  0  0
   -8.6775   -1.2876   -0.9714 H   0  0  0  0  0  0  0  0  0  0  0  0
   -9.4514   -1.2929    0.6124 H   0  0  0  0  0  0  0  0  0  0  0  0
   -7.9842   -3.1803    1.3180 H   0  0  0  0  0  0  0  0  0  0  0  0
   -7.2089   -3.1661   -0.2646 H   0  0  0  0  0  0  0  0  0  0  0  0
    3.9686   -3.4814    5.9587 H   0  0  0  0  0  0  0  0  0  0  0  0
   -7.1948   -0.8565    1.7286 H   0  0  0  0  0  0  0  0  0  0  0  0
   -6.4276   -0.8345    0.1420 H   0  0  0  0  0  0  0  0  0  0  0  0
    3.1210   -1.1646    5.5853 H   0  0  0  0  0  0  0  0  0  0  0  0
    0.3145   -4.9509    4.2713 H   0  0  0  0  0  0  0  0  0  0  0  0
   -1.3827   -3.2360    3.4995 H   0  0  0  0  0  0  0  0  0  0  0  0
    2.5395   -5.4141    5.2898 H   0  0  0  0  0  0  0  0  0  0  0  0
   -3.5119   -2.4012    3.4737 H   0  0  0  0  0  0  0  0  0  0  0  0
   -2.7521   -2.3855    1.8706 H   0  0  0  0  0  0  0  0  0  0  0  0
  -12.4266   -4.1299   -0.8761 H   0  0  0  0  0  0  0  0  0  0  0  0
  -11.6354   -4.1266   -2.4513 H   0  0  0  0  0  0  0  0  0  0  0  0
  -11.6969   -1.7778   -0.5048 H   0  0  0  0  0  0  0  0  0  0  0  0
  -10.9079   -1.7732   -2.0810 H   0  0  0  0  0  0  0  0  0  0  0  0
  -13.9196   -2.2822   -1.6249 H   0  0  0  0  0  0  0  0  0  0  0  0
  -13.1302   -2.2862   -3.2012 H   0  0  0  0  0  0  0  0  0  0  0  0
  -13.8713   -4.6453   -3.5628 H   0  0  0  0  0  0  0  0  0  0  0  0
  -15.2477   -3.5780   -3.2799 H   0  0  0  0  0  0  0  0  0  0  0  0
  -14.6683   -4.6333   -1.9899 H   0  0  0  0  0  0  0  0  0  0  0  0
  1  4  1  0  0  0  0
  1  3  1  0  0  0  0
  2  1  1  0  0  0  0
  4 15  1  0  0  0  0
  5 17  1  0  0  0  0
  5  1  1  0  0  0  0
  6 11  1  0  0  0  0
  6 24  1  0  0  0  0
  7 16  1  0  0  0  0
  7  4  1  0  0  0  0
  8 19  1  0  0  0  0
  8 26  1  0  0  0  0
  9  8  1  0  0  0  0
  9 28  1  0  0  0  0
 10  5  1  0  0  0  0
 10 31  1  0  0  0  0
 11 12  1  0  0  0  0
 11 33  1  0  0  0  0
 12 14  1  0  0  0  0
 12 34  1  0  0  0  0
 13 36  1  0  0  0  0
 14  9  1  0  0  0  0
 14 37  1  0  0  0  0
 15 13  2  0  0  0  0
 15 39  1  0  0  0  0
 16 18  2  0  0  0  0
 17  7  2  0  0  0  0
 18 42  1  0  0  0  0
 18 13  1  0  0  0  0
 19 10  1  0  0  0  0
 19 43  1  0  0  0  0
 20 21  1  0  0  0  0
 20 45  1  0  0  0  0
 21  6  1  0  0  0  0
 21 47  1  0  0  0  0
 22 20  1  0  0  0  0
 22 49  1  0  0  0  0
 23 22  1  0  0  0  0
 23 53  1  0  0  0  0
 25  6  1  0  0  0  0
 27  8  1  0  0  0  0
 29  9  1  0  0  0  0
 30 10  1  0  0  0  0
 32 11  1  0  0  0  0
 35 12  1  0  0  0  0
 38 14  1  0  0  0  0
 40 16  1  0  0  0  0
 41 17  1  0  0  0  0
 44 19  1  0  0  0  0
 46 20  1  0  0  0  0
 48 21  1  0  0  0  0
 50 22  1  0  0  0  0
 51 23  1  0  0  0  0
 52 23  1  0  0  0  0
M  END
$$$$
