CSD_code = XUJDOW | q = 0 | S = 0 | Stoichiometry = C11H21CdCl2N3 | MND = 4
 OpenBabel04212202123D

 38 39  0  0  1  0  0  0  0  0999 V2000
   -0.8648    7.3371   10.1523 Cd  0  0  0  0  0  0  0  0  0  0  0  0
   -1.2742    8.1657   12.3344 Cl  0  0  0  0  0  0  0  0  0  0  0  0
   -2.3849    6.1241    8.8568 Cl  0  0  0  0  0  0  0  0  0  0  0  0
    0.5295    8.7497    9.0584 N   0  0  1  0  0  0  0  0  0  0  0  0
    1.7011    9.0741    9.6220 N   0  0  0  0  0  0  0  0  0  0  0  0
    1.1481    6.3894   11.1665 N   0  0  0  0  0  4  0  0  0  0  0  0
    0.7452    6.5514   12.0931 H   0  0  0  0  0  0  0  0  0  0  0  0
    0.5586    9.1758    7.8014 C   0  0  2  0  0  3  0  0  0  0  0  0
    1.7918    9.7937    7.5544 C   0  0  0  0  0  0  0  0  0  0  0  0
    2.1185   10.2422    6.6389 H   0  0  0  0  0  0  0  0  0  0  0  0
    2.5002    9.7069    8.7372 C   0  0  0  0  0  0  0  0  0  0  0  0
   -0.5958    8.9945    6.8846 C   0  0  0  0  0  0  0  0  0  0  0  0
   -1.2240    8.1720    7.2285 H   0  0  0  0  0  0  0  0  0  0  0  0
   -0.2485    8.7871    5.8752 H   0  0  0  0  0  0  0  0  0  0  0  0
   -1.1985    9.9028    6.8573 H   0  0  0  0  0  0  0  0  0  0  0  0
    3.8647   10.1924    9.0667 C   0  0  0  0  0  0  0  0  0  0  0  0
    4.5003    9.3762    9.4079 H   0  0  0  0  0  0  0  0  0  0  0  0
    3.8277   10.9494    9.8499 H   0  0  0  0  0  0  0  0  0  0  0  0
    4.3130   10.6355    8.1822 H   0  0  0  0  0  0  0  0  0  0  0  0
    1.9962    8.6945   10.9781 C   0  0  0  0  0  0  0  0  0  0  0  0
    1.1118    8.8872   11.5971 H   0  0  0  0  0  0  0  0  0  0  0  0
    2.8254    9.3082   11.3318 H   0  0  0  0  0  0  0  0  0  0  0  0
    2.3579    7.2026   11.0825 C   0  0  0  0  0  0  0  0  0  0  0  0
    2.9268    6.9111   10.1945 H   0  0  0  0  0  0  0  0  0  0  0  0
    2.9991    7.0678   11.9648 H   0  0  0  0  0  0  0  0  0  0  0  0
    1.3052    4.9342   10.9787 C   0  0  0  0  0  0  0  0  0  0  0  0
    2.4876    4.3694   11.7799 C   0  0  0  0  0  0  0  0  0  0  0  0
    3.4399    4.7173   11.3873 H   0  0  0  0  0  0  0  0  0  0  0  0
    2.4806    3.2843   11.7274 H   0  0  0  0  0  0  0  0  0  0  0  0
    2.4119    4.6582   12.8264 H   0  0  0  0  0  0  0  0  0  0  0  0
    1.4780    4.6442    9.4855 C   0  0  0  0  0  0  0  0  0  0  0  0
    2.4017    5.0700    9.0995 H   0  0  0  0  0  0  0  0  0  0  0  0
    0.6367    5.0624    8.9290 H   0  0  0  0  0  0  0  0  0  0  0  0
    1.5066    3.5714    9.3158 H   0  0  0  0  0  0  0  0  0  0  0  0
    0.0113    4.2836   11.4744 C   0  0  0  0  0  0  0  0  0  0  0  0
   -0.1305    4.4717   12.5381 H   0  0  0  0  0  0  0  0  0  0  0  0
    0.0445    3.2084   11.3179 H   0  0  0  0  0  0  0  0  0  0  0  0
   -0.8496    4.6816   10.9297 H   0  0  0  0  0  0  0  0  0  0  0  0
  1  6  1  0  0  0  0
  1  2  1  0  0  0  0
  3  1  1  0  0  0  0
  4  5  1  6  0  0  0
  4  1  1  0  0  0  0
  5 20  1  0  0  0  0
  6  7  1  0  0  0  0
  8 12  1  1  0  0  0
  8  4  1  0  0  0  0
  9  8  1  0  0  0  0
  9 11  2  0  0  0  0
 10  9  1  0  0  0  0
 11 16  1  0  0  0  0
 11  5  1  0  0  0  0
 12 13  1  0  0  0  0
 14 12  1  0  0  0  0
 15 12  1  0  0  0  0
 16 17  1  0  0  0  0
 16 18  1  0  0  0  0
 19 16  1  0  0  0  0
 20 23  1  0  0  0  0
 20 22  1  0  0  0  0
 20 21  1  0  0  0  0
 23  6  1  0  0  0  0
 23 25  1  0  0  0  0
 24 23  1  0  0  0  0
 26  6  1  0  0  0  0
 26 35  1  0  0  0  0
 26 27  1  0  0  0  0
 27 30  1  0  0  0  0
 28 27  1  0  0  0  0
 29 27  1  0  0  0  0
 31 26  1  0  0  0  0
 32 31  1  0  0  0  0
 33 31  1  0  0  0  0
 34 31  1  0  0  0  0
 35 36  1  0  0  0  0
 37 35  1  0  0  0  0
 38 35  1  0  0  0  0
M  END
$$$$
