CSD_code = XUJFUE | q = 0 | S = 0 | Stoichiometry = C17H31Cl2FeN3S | MND = 5
 OpenBabel04212202123D

 55 58  0  0  1  0  0  0  0  0999 V2000
   -0.0433    4.9970   13.9990 Fe  0  0  0  0  0  0  0  0  0  0  0  0
    0.7581    4.1472   15.8368 Cl  0  0  0  0  0  0  0  0  0  0  0  0
    1.2312    3.6520   12.8299 Cl  0  0  0  0  0  0  0  0  0  0  0  0
    4.4866    7.5554   12.6561 S   0  0  0  0  0  0  0  0  0  0  0  0
   -1.2154    6.3635   15.0904 N   0  0  1  0  0  4  0  0  0  0  0  0
    1.2980    6.5560   13.8109 N   0  0  1  0  0  4  0  0  0  0  0  0
   -0.9903    5.8207   12.3088 N   0  0  1  0  0  4  0  0  0  0  0  0
   -0.1308    6.9086   11.8153 C   0  0  0  0  0  0  0  0  0  0  0  0
   -0.5753    7.8677   12.0884 H   0  0  0  0  0  0  0  0  0  0  0  0
   -0.0594    6.8894   10.7249 H   0  0  0  0  0  0  0  0  0  0  0  0
   -1.2126    4.7869   11.2736 C   0  0  0  0  0  0  0  0  0  0  0  0
   -0.2106    4.5218   10.9285 H   0  0  0  0  0  0  0  0  0  0  0  0
   -2.2567    6.3287   12.8340 C   0  0  0  0  0  0  0  0  0  0  0  0
   -2.9019    5.4697   13.0006 H   0  0  0  0  0  0  0  0  0  0  0  0
   -2.7515    6.9957   12.1136 H   0  0  0  0  0  0  0  0  0  0  0  0
   -0.1794    7.2339   15.6557 C   0  0  0  0  0  0  0  0  0  0  0  0
    0.3643    6.6287   16.3824 H   0  0  0  0  0  0  0  0  0  0  0  0
   -0.6081    8.1093   16.1622 H   0  0  0  0  0  0  0  0  0  0  0  0
    2.6437    6.1425   14.2683 C   0  0  0  0  0  0  0  0  0  0  0  0
    2.9137    5.2555   13.6913 H   0  0  0  0  0  0  0  0  0  0  0  0
    2.5459    5.8364   15.3116 H   0  0  0  0  0  0  0  0  0  0  0  0
    4.2172    7.9464   15.1686 C   0  0  0  0  0  0  0  0  0  0  0  0
    3.8976    7.8610   16.1927 H   0  0  0  0  0  0  0  0  0  0  0  0
    1.2915    6.8058   12.3670 C   0  0  0  0  0  0  0  0  0  0  0  0
    1.7806    5.9478   11.9034 H   0  0  0  0  0  0  0  0  0  0  0  0
    1.8444    7.7180   12.1068 H   0  0  0  0  0  0  0  0  0  0  0  0
   -2.8416    6.5360   17.0375 C   0  0  0  0  0  0  0  0  0  0  0  0
   -3.7291    6.8819   16.5105 H   0  0  0  0  0  0  0  0  0  0  0  0
   -2.3026    7.3989   17.4184 H   0  0  0  0  0  0  0  0  0  0  0  0
   -3.1746    5.9494   17.8891 H   0  0  0  0  0  0  0  0  0  0  0  0
    5.2310    8.8340   14.7430 C   0  0  0  0  0  0  0  0  0  0  0  0
    5.7496    9.5084   15.4005 H   0  0  0  0  0  0  0  0  0  0  0  0
   -2.0920    7.0780   14.1582 C   0  0  0  0  0  0  0  0  0  0  0  0
   -1.6881    8.0738   13.9730 H   0  0  0  0  0  0  0  0  0  0  0  0
   -3.0877    7.2212   14.5855 H   0  0  0  0  0  0  0  0  0  0  0  0
   -2.7316    4.4878   15.5792 C   0  0  0  0  0  0  0  0  0  0  0  0
   -3.5906    4.8177   14.9993 H   0  0  0  0  0  0  0  0  0  0  0  0
   -3.0895    3.8549   16.3864 H   0  0  0  0  0  0  0  0  0  0  0  0
   -2.0677    3.8865   14.9517 H   0  0  0  0  0  0  0  0  0  0  0  0
   -1.8278    3.5244   11.8768 C   0  0  0  0  0  0  0  0  0  0  0  0
   -1.3389    3.2842   12.8233 H   0  0  0  0  0  0  0  0  0  0  0  0
   -1.6536    2.6911   11.2028 H   0  0  0  0  0  0  0  0  0  0  0  0
   -2.9009    3.6156   12.0321 H   0  0  0  0  0  0  0  0  0  0  0  0
   -1.9453    5.6568   16.1628 C   0  0  0  0  0  0  0  0  0  0  0  0
   -1.1631    5.2265   16.7935 H   0  0  0  0  0  0  0  0  0  0  0  0
    0.8097    7.7030   14.5891 C   0  0  0  0  0  0  0  0  0  0  0  0
    0.3447    8.4277   13.9193 H   0  0  0  0  0  0  0  0  0  0  0  0
    1.6407    8.2162   15.0836 H   0  0  0  0  0  0  0  0  0  0  0  0
    3.7028    7.1844   14.1621 C   0  0  0  0  0  0  0  0  0  0  0  0
   -2.0617    5.2501   10.0871 C   0  0  0  0  0  0  0  0  0  0  0  0
   -3.1024    5.3863   10.3739 H   0  0  0  0  0  0  0  0  0  0  0  0
   -2.0252    4.4879    9.3138 H   0  0  0  0  0  0  0  0  0  0  0  0
   -1.6986    6.1795    9.6547 H   0  0  0  0  0  0  0  0  0  0  0  0
    5.4798    8.7366   13.4137 C   0  0  0  0  0  0  0  0  0  0  0  0
    6.1879    9.2835   12.8235 H   0  0  0  0  0  0  0  0  0  0  0  0
  1  5  1  0  0  0  0
  1  2  1  0  0  0  0
  3  1  1  0  0  0  0
  4 54  1  0  0  0  0
  4 49  1  0  0  0  0
  5 16  1  0  0  0  0
  5 44  1  1  0  0  0
  6  1  1  0  0  0  0
  6 19  1  1  0  0  0
  6 46  1  0  0  0  0
  7 11  1  6  0  0  0
  7 13  1  0  0  0  0
  7  1  1  0  0  0  0
  8  9  1  0  0  0  0
  8  7  1  0  0  0  0
  8 24  1  0  0  0  0
 10  8  1  0  0  0  0
 11 40  1  0  0  0  0
 12 11  1  0  0  0  0
 13 14  1  0  0  0  0
 13 33  1  0  0  0  0
 15 13  1  0  0  0  0
 16 18  1  0  0  0  0
 16 17  1  0  0  0  0
 19 21  1  0  0  0  0
 20 19  1  0  0  0  0
 22 23  1  0  0  0  0
 24  6  1  0  0  0  0
 25 24  1  0  0  0  0
 26 24  1  0  0  0  0
 27 29  1  0  0  0  0
 27 30  1  0  0  0  0
 28 27  1  0  0  0  0
 31 22  1  0  0  0  0
 31 32  1  0  0  0  0
 33 35  1  0  0  0  0
 33  5  1  0  0  0  0
 34 33  1  0  0  0  0
 36 44  1  0  0  0  0
 36 38  1  0  0  0  0
 37 36  1  0  0  0  0
 39 36  1  0  0  0  0
 40 43  1  0  0  0  0
 40 41  1  0  0  0  0
 42 40  1  0  0  0  0
 44 45  1  0  0  0  0
 44 27  1  0  0  0  0
 46 48  1  0  0  0  0
 46 16  1  0  0  0  0
 47 46  1  0  0  0  0
 49 19  1  0  0  0  0
 49 22  2  0  0  0  0
 50 51  1  0  0  0  0
 50 11  1  0  0  0  0
 52 50  1  0  0  0  0
 53 50  1  0  0  0  0
 54 31  2  0  0  0  0
 55 54  1  0  0  0  0
M  END
$$$$
