CSD_code = XUJKIX | q = 0 | S = 0 | Stoichiometry = C12H12Cl2N3O2Re | MND = 6
 OpenBabel04212202123D

 32 35  0  0  1  0  0  0  0  0999 V2000
    6.8828   15.3728    3.7874 Re  0  0  0  0  0  0  0  0  0  0  0  0
    6.9616   14.2563    1.8003 Cl  0  0  0  0  0  0  0  0  0  0  0  0
    4.6698   15.3423    3.7777 Cl  0  0  0  0  0  0  0  0  0  0  0  0
    8.5006   15.7376    3.9417 O   0  0  0  0  0  1  0  0  0  0  0  0
    6.8485   13.5556    4.7559 O   0  0  0  0  0  0  0  0  0  0  0  0
    7.0307   17.5770    1.5056 C   0  0  0  0  0  3  0  0  0  0  0  0
    7.4233   16.8230    0.8513 H   0  0  0  0  0  0  0  0  0  0  0  0
    6.8053   18.9341    1.2855 C   0  0  0  0  0  0  0  0  0  0  0  0
    6.9964   19.4893    0.3916 H   0  0  0  0  0  0  0  0  0  0  0  0
    6.2838   19.4047    2.4719 C   0  0  0  0  0  0  0  0  0  0  0  0
    5.9616   20.3891    2.7466 H   0  0  0  0  0  0  0  0  0  0  0  0
    5.6819   18.3825    4.6635 C   0  0  0  0  0  0  0  0  0  0  0  0
    4.7623   17.7856    4.6808 H   0  0  0  0  0  0  0  0  0  0  0  0
    5.4499   19.4188    4.9144 H   0  0  0  0  0  0  0  0  0  0  0  0
    6.6591   17.8034    5.7026 C   0  0  0  0  0  0  0  0  0  0  0  0
    7.6798   18.1106    5.4481 H   0  0  0  0  0  0  0  0  0  0  0  0
    6.4016   18.2044    6.6908 H   0  0  0  0  0  0  0  0  0  0  0  0
    6.4407   15.7299    6.8142 C   0  0  0  0  0  3  0  0  0  0  0  0
    6.2938   16.3227    7.7231 H   0  0  0  0  0  0  0  0  0  0  0  0
    6.4098   14.3234    7.0196 C   0  0  0  0  0  0  0  0  0  0  0  0
    6.1584   13.8893    8.3406 C   0  0  0  0  0  0  0  0  0  0  0  0
    6.0059   14.6419    9.1021 H   0  0  0  0  0  0  0  0  0  0  0  0
    6.1016   12.5653    8.6776 C   0  0  0  0  0  0  0  0  0  0  0  0
    5.9051   12.2656    9.6951 H   0  0  0  0  0  0  0  0  0  0  0  0
    6.3022   11.5990    7.6856 C   0  0  0  0  0  0  0  0  0  0  0  0
    6.2588   10.5507    7.9420 H   0  0  0  0  0  0  0  0  0  0  0  0
    6.5516   11.9742    6.3953 C   0  0  0  0  0  0  0  0  0  0  0  0
    6.7089   11.2421    5.6184 H   0  0  0  0  0  0  0  0  0  0  0  0
    6.6165   13.3372    6.0014 C   0  0  0  0  0  0  0  0  0  0  0  0
    6.6641   17.2607    2.7386 N   0  0  2  0  0  0  0  0  0  0  0  0
    6.2157   18.3716    3.3251 N   0  0  0  0  0  0  0  0  0  0  0  0
    6.6224   16.3640    5.7124 N   0  0  1  0  0  0  0  0  0  0  0  0
  1  4  1  0  0  0  0
  1  5  1  0  0  0  0
  1 32  1  0  0  0  0
  2  1  1  0  0  0  0
  3  1  1  0  0  0  0
  5 29  1  0  0  0  0
  7  6  1  0  0  0  0
  8  6  1  0  0  0  0
  8 10  2  0  0  0  0
  9  8  1  0  0  0  0
 10 11  1  0  0  0  0
 10 31  1  0  0  0  0
 12 13  1  0  0  0  0
 12 14  1  0  0  0  0
 12 15  1  0  0  0  0
 15 32  1  0  0  0  0
 15 17  1  0  0  0  0
 16 15  1  0  0  0  0
 18 20  1  0  0  0  0
 18 19  1  0  0  0  0
 20 21  1  0  0  0  0
 21 23  2  0  0  0  0
 21 22  1  0  0  0  0
 23 24  1  0  0  0  0
 25 26  1  0  0  0  0
 25 23  1  0  0  0  0
 27 25  2  0  0  0  0
 28 27  1  0  0  0  0
 29 27  1  0  0  0  0
 29 20  2  0  0  0  0
 30  6  1  1  0  0  0
 30 31  1  0  0  0  0
 30  1  1  0  0  0  0
 31 12  1  0  0  0  0
 32 18  1  6  0  0  0
M  END
$$$$
