CSD_code = XUJLIZ | q = 0 | S = 0 | Stoichiometry = C20H14Cl2N6O2Zn | MND = 4
 OpenBabel04212202123D

 45 48  0  0  0  0  0  0  0  0999 V2000
   -1.6510    4.1788    3.2399 Zn  0  0  0  0  0  0  0  0  0  0  0  0
   -0.0988    2.8036    2.6988 N   0  0  0  0  0  0  0  0  0  0  0  0
    1.8713    2.6212    5.9731 N   0  0  0  0  0  0  0  0  0  0  0  0
    2.2999    1.1955    8.3012 N   0  0  0  0  0  0  0  0  0  0  0  0
    0.4847    2.1313    3.6809 C   0  0  0  0  0  3  0  0  0  0  0  0
    0.0023    2.1987    4.6438 H   0  0  0  0  0  0  0  0  0  0  0  0
    1.6411    1.3806    3.4909 C   0  0  0  0  0  0  0  0  0  0  0  0
    2.1713    1.3044    2.2035 C   0  0  0  0  0  0  0  0  0  0  0  0
    3.0611    0.7165    2.0319 H   0  0  0  0  0  0  0  0  0  0  0  0
    1.5483    1.9987    1.1815 C   0  0  0  0  0  0  0  0  0  0  0  0
    1.9311    1.9696    0.1739 H   0  0  0  0  0  0  0  0  0  0  0  0
    0.4229    2.7510    1.4769 C   0  0  0  0  0  0  0  0  0  0  0  0
   -0.0913    3.3309    0.7224 H   0  0  0  0  0  0  0  0  0  0  0  0
    2.3251    0.6761    4.6091 C   0  0  0  0  0  0  0  0  0  0  0  0
    2.1969    1.3290    5.9382 C   0  0  0  0  0  0  0  0  0  0  0  0
    1.7384    3.1928    7.1521 C   0  0  0  0  0  0  0  0  0  0  0  0
    1.4371    4.2302    7.1459 H   0  0  0  0  0  0  0  0  0  0  0  0
    1.9822    2.4795    8.3260 C   0  0  0  0  0  0  0  0  0  0  0  0
    1.9272    2.9417    9.3014 H   0  0  0  0  0  0  0  0  0  0  0  0
    2.3915    0.6102    7.1199 C   0  0  0  0  0  0  0  0  0  0  0  0
    2.6179   -0.4466    7.1040 H   0  0  0  0  0  0  0  0  0  0  0  0
    2.9433   -0.3524    4.4457 O   0  0  0  0  0  0  0  0  0  0  0  0
   -1.0281    4.9284    5.2252 Cl  0  0  0  0  0  0  0  0  0  0  0  0
   -3.2005    2.8021    3.7844 N   0  0  0  0  0  0  0  0  0  0  0  0
   -5.1832    2.6207    0.5175 N   0  0  0  0  0  0  0  0  0  0  0  0
   -5.6186    1.1973   -1.8108 N   0  0  0  0  0  0  0  0  0  0  0  0
   -3.7865    2.1299    2.8037 C   0  0  0  0  0  3  0  0  0  0  0  0
   -3.3076    2.1989    1.8392 H   0  0  0  0  0  0  0  0  0  0  0  0
   -4.9411    1.3773    2.9971 C   0  0  0  0  0  0  0  0  0  0  0  0
   -5.4667    1.2991    4.2863 C   0  0  0  0  0  0  0  0  0  0  0  0
   -6.3550    0.7097    4.4606 H   0  0  0  0  0  0  0  0  0  0  0  0
   -4.8411    1.9935    5.3067 C   0  0  0  0  0  0  0  0  0  0  0  0
   -5.2204    1.9629    6.3157 H   0  0  0  0  0  0  0  0  0  0  0  0
   -3.7178    2.7477    5.0081 C   0  0  0  0  0  0  0  0  0  0  0  0
   -3.2019    3.3279    5.7612 H   0  0  0  0  0  0  0  0  0  0  0  0
   -5.6281    0.6729    1.8806 C   0  0  0  0  0  0  0  0  0  0  0  0
   -5.5062    1.3278    0.5520 C   0  0  0  0  0  0  0  0  0  0  0  0
   -5.0561    3.1940   -0.6613 C   0  0  0  0  0  0  0  0  0  0  0  0
   -4.7567    4.2319   -0.6551 H   0  0  0  0  0  0  0  0  0  0  0  0
   -5.3033    2.4819   -1.8351 C   0  0  0  0  0  0  0  0  0  0  0  0
   -5.2532    2.9454   -2.8101 H   0  0  0  0  0  0  0  0  0  0  0  0
   -5.7042    0.6102   -0.6299 C   0  0  0  0  0  0  0  0  0  0  0  0
   -5.9287   -0.4471   -0.6144 H   0  0  0  0  0  0  0  0  0  0  0  0
   -6.2437   -0.3569    2.0451 O   0  0  0  0  0  0  0  0  0  0  0  0
   -2.2750    4.9232    1.2531 Cl  0  0  0  0  0  0  0  0  0  0  0  0
  1 24  1  0  0  0  0
  1 23  1  0  0  0  0
  2  1  1  0  0  0  0
  2  5  1  0  0  0  0
  3 16  1  0  0  0  0
  4 18  1  0  0  0  0
  5  6  1  0  0  0  0
  7  5  1  0  0  0  0
  7 14  1  0  0  0  0
  8  7  2  0  0  0  0
  9  8  1  0  0  0  0
 10 12  2  0  0  0  0
 10  8  1  0  0  0  0
 11 10  1  0  0  0  0
 12  2  1  0  0  0  0
 13 12  1  0  0  0  0
 14 15  1  0  0  0  0
 15  3  2  0  0  0  0
 15 20  1  0  0  0  0
 16 18  2  0  0  0  0
 17 16  1  0  0  0  0
 18 19  1  0  0  0  0
 20  4  2  0  0  0  0
 21 20  1  0  0  0  0
 22 14  2  0  0  0  0
 24 34  1  0  0  0  0
 25 37  1  0  0  0  0
 26 42  1  0  0  0  0
 27 29  1  0  0  0  0
 27 24  1  0  0  0  0
 28 27  1  0  0  0  0
 29 30  2  0  0  0  0
 30 31  1  0  0  0  0
 30 32  1  0  0  0  0
 32 33  1  0  0  0  0
 34 32  2  0  0  0  0
 34 35  1  0  0  0  0
 36 44  2  0  0  0  0
 36 29  1  0  0  0  0
 37 36  1  0  0  0  0
 38 39  1  0  0  0  0
 38 25  2  0  0  0  0
 40 26  2  0  0  0  0
 40 38  1  0  0  0  0
 41 40  1  0  0  0  0
 42 43  1  0  0  0  0
 42 37  2  0  0  0  0
 45  1  1  0  0  0  0
M  END
$$$$
