CSD_code = XUJTOL | q = 0 | S = 0 | Stoichiometry = C26H30Cl3LaN6 | MND = 9
 OpenBabel04212202123D

 66 75  0  0  1  0  0  0  0  0999 V2000
    5.2453    9.8407    5.6618 C   0  0  0  0  0  0  0  0  0  0  0  0
    5.9647    9.5513    4.8903 H   0  0  0  0  0  0  0  0  0  0  0  0
    3.8639    9.8901    5.1892 C   0  0  0  0  0  0  0  0  0  0  0  0
    3.5885    9.5795    3.8524 C   0  0  0  0  0  0  0  0  0  0  0  0
    4.3798    9.2387    3.2025 H   0  0  0  0  0  0  0  0  0  0  0  0
    2.2983    9.7269    3.3779 C   0  0  0  0  0  0  0  0  0  0  0  0
    2.0594    9.5009    2.3494 H   0  0  0  0  0  0  0  0  0  0  0  0
    1.3205   10.1811    4.2461 C   0  0  0  0  0  0  0  0  0  0  0  0
    0.3036   10.3234    3.9134 H   0  0  0  0  0  0  0  0  0  0  0  0
    1.6717   10.4495    5.5709 C   0  0  0  0  0  0  0  0  0  0  0  0
    0.6583   10.8928    6.5273 C   0  0  0  0  0  3  0  0  0  0  0  0
   -0.3360   11.0650    6.1069 H   0  0  0  0  0  0  0  0  0  0  0  0
    7.0164   11.3799    8.3408 C   0  0  1  0  0  0  0  0  0  0  0  0
    6.6258   12.2898    7.8549 H   0  0  0  0  0  0  0  0  0  0  0  0
    8.4516   11.6073    8.8166 C   0  0  0  0  0  0  0  0  0  0  0  0
    8.4668   12.4352    9.5288 H   0  0  0  0  0  0  0  0  0  0  0  0
    8.8217   10.7073    9.3170 H   0  0  0  0  0  0  0  0  0  0  0  0
    9.3634   11.9258    7.6388 C   0  0  0  0  0  0  0  0  0  0  0  0
    9.0093   12.8260    7.1340 H   0  0  0  0  0  0  0  0  0  0  0  0
   10.3774   12.1134    7.9967 H   0  0  0  0  0  0  0  0  0  0  0  0
    9.3574   10.7559    6.6659 C   0  0  0  0  0  0  0  0  0  0  0  0
    9.7225    9.8582    7.1710 H   0  0  0  0  0  0  0  0  0  0  0  0
   10.0234   10.9603    5.8258 H   0  0  0  0  0  0  0  0  0  0  0  0
    7.9477   10.5117    6.1404 C   0  0  0  0  0  0  0  0  0  0  0  0
    7.6077   11.3861    5.5804 H   0  0  0  0  0  0  0  0  0  0  0  0
    7.9737    9.6527    5.4672 H   0  0  0  0  0  0  0  0  0  0  0  0
    6.9404   10.2517    7.2684 C   0  0  2  0  0  0  0  0  0  0  0  0
    7.1749    9.3014    7.7718 H   0  0  0  0  0  0  0  0  0  0  0  0
    5.5669   10.1680    6.8395 N   0  0  0  0  0  0  0  0  0  0  0  0
    2.9155   10.3022    6.0249 N   0  0  0  0  0  0  0  0  0  0  0  0
    0.9528   11.0363    7.7509 N   0  0  1  0  0  0  0  0  0  0  0  0
    3.5072    8.2475    8.5540 Cl  0  0  0  0  0  0  0  0  0  0  0  0
    2.6473   12.8822   10.2120 Cl  0  0  0  0  0  0  0  0  0  0  0  0
    3.5073   10.9311    8.5541 La  0  0  0  0  0  0  0  0  0  0  0  0
   -0.0018   11.3798    8.7673 C   0  0  1  0  0  0  0  0  0  0  0  0
    0.3888   12.2898    9.2531 H   0  0  0  0  0  0  0  0  0  0  0  0
   -1.4370   11.6072    8.2914 C   0  0  0  0  0  0  0  0  0  0  0  0
   -1.4522   12.4351    7.5792 H   0  0  0  0  0  0  0  0  0  0  0  0
   -1.8070   10.7071    7.7912 H   0  0  0  0  0  0  0  0  0  0  0  0
   -2.3487   11.9258    9.4693 C   0  0  0  0  0  0  0  0  0  0  0  0
   -1.9946   12.8260    9.9740 H   0  0  0  0  0  0  0  0  0  0  0  0
   -3.3627   12.1133    9.1113 H   0  0  0  0  0  0  0  0  0  0  0  0
   -2.3428   10.7559   10.4422 C   0  0  0  0  0  0  0  0  0  0  0  0
   -2.7078    9.8582    9.9372 H   0  0  0  0  0  0  0  0  0  0  0  0
   -3.0088   10.9604   11.2824 H   0  0  0  0  0  0  0  0  0  0  0  0
   -0.9330   10.5117   10.9678 C   0  0  0  0  0  0  0  0  0  0  0  0
   -0.5931   11.3862   11.5277 H   0  0  0  0  0  0  0  0  0  0  0  0
   -0.9590    9.6528   11.6410 H   0  0  0  0  0  0  0  0  0  0  0  0
    0.0742   10.2518    9.8397 C   0  0  2  0  0  0  0  0  0  0  0  0
   -0.1602    9.3014    9.3364 H   0  0  0  0  0  0  0  0  0  0  0  0
    1.4477   10.1680   10.2686 N   0  0  0  0  0  0  0  0  0  0  0  0
    1.7694    9.8407   11.4463 C   0  0  0  0  0  0  0  0  0  0  0  0
    1.0500    9.5514   12.2178 H   0  0  0  0  0  0  0  0  0  0  0  0
    3.1508    9.8901   11.9189 C   0  0  0  0  0  0  0  0  0  0  0  0
    3.4262    9.5795   13.2556 C   0  0  0  0  0  0  0  0  0  0  0  0
    2.6349    9.2386   13.9055 H   0  0  0  0  0  0  0  0  0  0  0  0
    4.7164    9.7268   13.7301 C   0  0  0  0  0  0  0  0  0  0  0  0
    4.9553    9.5007   14.7587 H   0  0  0  0  0  0  0  0  0  0  0  0
    5.6942   10.1810   12.8619 C   0  0  0  0  0  0  0  0  0  0  0  0
    6.7111   10.3233   13.1947 H   0  0  0  0  0  0  0  0  0  0  0  0
    5.3430   10.4495   11.5372 C   0  0  0  0  0  0  0  0  0  0  0  0
    6.3563   10.8929   10.5808 C   0  0  0  0  0  3  0  0  0  0  0  0
    7.3506   11.0651   11.0013 H   0  0  0  0  0  0  0  0  0  0  0  0
    6.0619   11.0364    9.3572 N   0  0  2  0  0  0  0  0  0  0  0  0
    4.0992   10.3022   11.0832 N   0  0  0  0  0  0  0  0  0  0  0  0
    4.3673   12.8823    6.8961 Cl  0  0  0  0  0  0  0  0  0  0  0  0
  1 29  1  0  0  0  0
  2  1  1  0  0  0  0
  3  1  2  0  0  0  0
  3 30  1  0  0  0  0
  4  3  1  0  0  0  0
  5  4  1  0  0  0  0
  6  4  2  0  0  0  0
  6  8  1  0  0  0  0
  7  6  1  0  0  0  0
  8 10  2  0  0  0  0
  9  8  1  0  0  0  0
 10 30  1  0  0  0  0
 10 11  1  0  0  0  0
 12 11  1  0  0  0  0
 13 14  1  6  0  0  0
 13 15  1  0  0  0  0
 13 64  1  0  0  0  0
 15 17  1  0  0  0  0
 15 16  1  0  0  0  0
 18 20  1  0  0  0  0
 18 15  1  0  0  0  0
 19 18  1  0  0  0  0
 21 22  1  0  0  0  0
 21 18  1  0  0  0  0
 23 21  1  0  0  0  0
 24 21  1  0  0  0  0
 24 27  1  0  0  0  0
 25 24  1  0  0  0  0
 26 24  1  0  0  0  0
 27 28  1  1  0  0  0
 27 13  1  0  0  0  0
 29 27  1  0  0  0  0
 29 34  1  0  0  0  0
 30 34  1  0  0  0  0
 31 11  1  6  0  0  0
 31 34  1  0  0  0  0
 31 35  1  0  0  0  0
 32 34  1  0  0  0  0
 34 64  1  0  0  0  0
 34 33  1  0  0  0  0
 34 51  1  0  0  0  0
 34 65  1  0  0  0  0
 35 36  1  1  0  0  0
 35 49  1  0  0  0  0
 37 35  1  0  0  0  0
 37 40  1  0  0  0  0
 38 37  1  0  0  0  0
 39 37  1  0  0  0  0
 40 41  1  0  0  0  0
 40 43  1  0  0  0  0
 42 40  1  0  0  0  0
 43 46  1  0  0  0  0
 43 45  1  0  0  0  0
 44 43  1  0  0  0  0
 46 47  1  0  0  0  0
 46 48  1  0  0  0  0
 49 50  1  6  0  0  0
 49 51  1  0  0  0  0
 49 46  1  0  0  0  0
 51 52  1  0  0  0  0
 52 54  2  0  0  0  0
 52 53  1  0  0  0  0
 54 55  1  0  0  0  0
 55 57  2  0  0  0  0
 55 56  1  0  0  0  0
 57 58  1  0  0  0  0
 59 60  1  0  0  0  0
 59 57  1  0  0  0  0
 61 59  2  0  0  0  0
 62 63  1  0  0  0  0
 62 61  1  0  0  0  0
 64 62  1  1  0  0  0
 65 61  1  0  0  0  0
 65 54  1  0  0  0  0
 66 34  1  0  0  0  0
M  END
$$$$
