CSD_code = XUJWEF | q = 0 | S = 0 | Stoichiometry = C21H21ClN2OPRh | MND = 4
 OpenBabel04212202123D

 48 51  0  0  0  0  0  0  0  0999 V2000
    6.6529    3.6304    5.0929 Rh  0  0  2  0  0  0  0  0  0  0  0  0
    5.3921    1.8735    5.8023 Cl  0  0  0  0  0  0  0  0  0  0  0  0
    7.6081    5.2418    3.8406 P   0  0  1  0  0  4  0  0  0  0  0  0
    6.5631    5.0708    7.6943 O   0  0  0  0  0  1  0  0  0  0  0  0
    6.8694    2.4992    3.3401 N   0  0  0  0  0  4  0  0  0  0  0  0
    6.0900    1.8312    3.3122 H   0  0  0  0  0  0  0  0  0  0  0  0
    4.6556    5.5077    3.7176 N   0  0  0  0  0  0  0  0  0  0  0  0
    5.1915    4.7737    4.2387 H   0  0  0  0  0  0  0  0  0  0  0  0
    6.5764    4.5225    6.6866 C   0  0  0  0  0  2  0  0  0  0  0  0
    7.3786    4.5541    2.1591 C   0  0  0  0  0  0  0  0  0  0  0  0
    6.9389    3.2324    2.1078 C   0  0  0  0  0  0  0  0  0  0  0  0
    6.6075    2.6571    0.8898 C   0  0  0  0  0  0  0  0  0  0  0  0
    6.2488    1.6378    0.8512 H   0  0  0  0  0  0  0  0  0  0  0  0
    6.7208    3.4018   -0.2722 C   0  0  0  0  0  0  0  0  0  0  0  0
    6.4546    2.9576   -1.2195 H   0  0  0  0  0  0  0  0  0  0  0  0
    7.1673    4.7135   -0.2240 C   0  0  0  0  0  0  0  0  0  0  0  0
    7.2482    5.2879   -1.1345 H   0  0  0  0  0  0  0  0  0  0  0  0
    7.4880    5.2948    0.9896 C   0  0  0  0  0  0  0  0  0  0  0  0
    7.8058    6.3265    1.0420 H   0  0  0  0  0  0  0  0  0  0  0  0
    8.1002    1.7172    3.5539 C   0  0  0  0  0  0  0  0  0  0  0  0
    8.2738    1.0151    2.7300 H   0  0  0  0  0  0  0  0  0  0  0  0
    8.0108    1.1559    4.4871 H   0  0  0  0  0  0  0  0  0  0  0  0
    8.9571    2.3942    3.6199 H   0  0  0  0  0  0  0  0  0  0  0  0
    6.6906    6.7965    3.6688 C   0  0  0  0  0  0  0  0  0  0  0  0
    5.2769    6.7213    3.6425 C   0  0  0  0  0  0  0  0  0  0  0  0
    4.5647    7.9152    3.4696 C   0  0  0  0  0  0  0  0  0  0  0  0
    3.4873    7.8934    3.4390 H   0  0  0  0  0  0  0  0  0  0  0  0
    5.2191    9.1222    3.3412 C   0  0  0  0  0  0  0  0  0  0  0  0
    4.6418   10.0260    3.2109 H   0  0  0  0  0  0  0  0  0  0  0  0
    6.6032    9.1882    3.3853 C   0  0  0  0  0  0  0  0  0  0  0  0
    7.1107   10.1358    3.2898 H   0  0  0  0  0  0  0  0  0  0  0  0
    7.3294    8.0243    3.5488 C   0  0  0  0  0  0  0  0  0  0  0  0
    8.4094    8.0657    3.5797 H   0  0  0  0  0  0  0  0  0  0  0  0
    3.2245    5.3826    3.8486 C   0  0  0  0  0  0  0  0  0  0  0  0
    2.8323    5.9237    4.7173 H   0  0  0  0  0  0  0  0  0  0  0  0
    2.9870    4.3273    3.9643 H   0  0  0  0  0  0  0  0  0  0  0  0
    2.7302    5.7534    2.9483 H   0  0  0  0  0  0  0  0  0  0  0  0
    9.3513    5.7439    3.9139 C   0  0  0  0  0  0  0  0  0  0  0  0
   10.2791    5.4643    2.9180 C   0  0  0  0  0  0  0  0  0  0  0  0
    9.9663    4.9722    2.0072 H   0  0  0  0  0  0  0  0  0  0  0  0
   11.6054    5.8212    3.0936 C   0  0  0  0  0  0  0  0  0  0  0  0
   12.3246    5.6072    2.3164 H   0  0  0  0  0  0  0  0  0  0  0  0
   12.0117    6.4475    4.2596 C   0  0  0  0  0  0  0  0  0  0  0  0
   13.0473    6.7239    4.3904 H   0  0  0  0  0  0  0  0  0  0  0  0
   11.0921    6.7116    5.2640 C   0  0  0  0  0  0  0  0  0  0  0  0
   11.4109    7.1913    6.1774 H   0  0  0  0  0  0  0  0  0  0  0  0
    9.7694    6.3526    5.0968 C   0  0  0  0  0  0  0  0  0  0  0  0
    9.0400    6.5389    5.8751 H   0  0  0  0  0  0  0  0  0  0  0  0
  1  2  1  6  0  0  0
  1  9  1  0  0  0  0
  3 24  1  1  0  0  0
  3 38  1  0  0  0  0
  3  1  1  0  0  0  0
  5 20  1  0  0  0  0
  5  1  1  0  0  0  0
  6  5  1  0  0  0  0
  7 34  1  0  0  0  0
  7  8  1  0  0  0  0
  9  4  1  0  0  0  0
 10  3  1  0  0  0  0
 11 10  1  0  0  0  0
 11  5  1  0  0  0  0
 12 11  2  0  0  0  0
 13 12  1  0  0  0  0
 14 16  2  0  0  0  0
 14 12  1  0  0  0  0
 15 14  1  0  0  0  0
 16 18  1  0  0  0  0
 17 16  1  0  0  0  0
 18 19  1  0  0  0  0
 18 10  2  0  0  0  0
 20 23  1  0  0  0  0
 20 22  1  0  0  0  0
 21 20  1  0  0  0  0
 25 24  1  0  0  0  0
 25  7  1  0  0  0  0
 26 25  2  0  0  0  0
 27 26  1  0  0  0  0
 28 30  2  0  0  0  0
 28 26  1  0  0  0  0
 29 28  1  0  0  0  0
 30 32  1  0  0  0  0
 31 30  1  0  0  0  0
 32 33  1  0  0  0  0
 32 24  2  0  0  0  0
 34 36  1  0  0  0  0
 34 35  1  0  0  0  0
 37 34  1  0  0  0  0
 38 47  1  0  0  0  0
 39 41  1  0  0  0  0
 39 38  2  0  0  0  0
 40 39  1  0  0  0  0
 41 43  2  0  0  0  0
 42 41  1  0  0  0  0
 43 44  1  0  0  0  0
 43 45  1  0  0  0  0
 45 46  1  0  0  0  0
 47 45  2  0  0  0  0
 47 48  1  0  0  0  0
M  END
$$$$
