CSD_code = XUJWIJ | q = 0 | S = 0 | Stoichiometry = C22H24ClN3OPRh | MND = 4
 OpenBabel04212202123D

 53 56  0  0  0  0  0  0  0  0999 V2000
    3.2055    1.2643    3.6529 Rh  0  0  2  0  0  0  0  0  0  0  0  0
    2.8501   -0.0051    5.5149 Cl  0  0  0  0  0  0  0  0  0  0  0  0
    3.0690    2.8613    2.0498 P   0  0  0  0  0  4  0  0  0  0  0  0
    6.1252    0.6938    3.6122 O   0  0  0  0  0  1  0  0  0  0  0  0
    1.1240    1.4683    3.6525 N   0  0  0  0  0  4  0  0  0  0  0  0
    0.8029    1.2330    4.5993 H   0  0  0  0  0  0  0  0  0  0  0  0
    5.4064    2.0499    0.4286 N   0  0  0  0  0  0  0  0  0  0  0  0
    5.2381    2.0475    1.4274 H   0  0  0  0  0  0  0  0  0  0  0  0
    3.6302    4.1189    4.6956 N   0  0  0  0  0  0  0  0  0  0  0  0
    3.4682    3.1016    4.5085 H   0  0  0  0  0  0  0  0  0  0  0  0
    5.0001    0.9329    3.6328 C   0  0  0  0  0  2  0  0  0  0  0  0
    1.3969    3.5209    2.4006 C   0  0  0  0  0  0  0  0  0  0  0  0
    0.6167    2.7520    3.2618 C   0  0  0  0  0  0  0  0  0  0  0  0
   -0.6136    3.2234    3.6952 C   0  0  0  0  0  0  0  0  0  0  0  0
   -1.2108    2.6341    4.3774 H   0  0  0  0  0  0  0  0  0  0  0  0
   -1.0615    4.4605    3.2634 C   0  0  0  0  0  0  0  0  0  0  0  0
   -2.0149    4.8330    3.6066 H   0  0  0  0  0  0  0  0  0  0  0  0
   -0.2911    5.2230    2.3990 C   0  0  0  0  0  0  0  0  0  0  0  0
   -0.6470    6.1877    2.0703 H   0  0  0  0  0  0  0  0  0  0  0  0
    0.9411    4.7608    1.9726 C   0  0  0  0  0  0  0  0  0  0  0  0
    1.5622    5.3589    1.3213 H   0  0  0  0  0  0  0  0  0  0  0  0
    0.6309    0.4120    2.7517 C   0  0  0  0  0  0  0  0  0  0  0  0
    1.0259   -0.5531    3.0786 H   0  0  0  0  0  0  0  0  0  0  0  0
    0.9684    0.6140    1.7309 H   0  0  0  0  0  0  0  0  0  0  0  0
   -0.4645    0.3678    2.7533 H   0  0  0  0  0  0  0  0  0  0  0  0
    3.0830    2.5938    0.2579 C   0  0  0  0  0  0  0  0  0  0  0  0
    4.2795    2.1305   -0.3347 C   0  0  0  0  0  0  0  0  0  0  0  0
    4.2732    1.8360   -1.7019 C   0  0  0  0  0  0  0  0  0  0  0  0
    5.1757    1.4880   -2.1780 H   0  0  0  0  0  0  0  0  0  0  0  0
    3.1210    1.9798   -2.4476 C   0  0  0  0  0  0  0  0  0  0  0  0
    3.1394    1.7453   -3.5018 H   0  0  0  0  0  0  0  0  0  0  0  0
    1.9423    2.4091   -1.8570 C   0  0  0  0  0  0  0  0  0  0  0  0
    1.0415    2.5086   -2.4429 H   0  0  0  0  0  0  0  0  0  0  0  0
    1.9278    2.7048   -0.5069 C   0  0  0  0  0  0  0  0  0  0  0  0
    1.0091    3.0326   -0.0398 H   0  0  0  0  0  0  0  0  0  0  0  0
    6.6080    1.3814   -0.0002 C   0  0  0  0  0  0  0  0  0  0  0  0
    6.4281    0.3365   -0.2779 H   0  0  0  0  0  0  0  0  0  0  0  0
    7.3261    1.4056    0.8156 H   0  0  0  0  0  0  0  0  0  0  0  0
    7.0412    1.9034   -0.8555 H   0  0  0  0  0  0  0  0  0  0  0  0
    4.0426    4.3672    2.3344 C   0  0  0  0  0  0  0  0  0  0  0  0
    4.2135    4.8054    3.6691 C   0  0  0  0  0  0  0  0  0  0  0  0
    4.9347    5.9881    3.8776 C   0  0  0  0  0  0  0  0  0  0  0  0
    5.0808    6.3536    4.8813 H   0  0  0  0  0  0  0  0  0  0  0  0
    5.4633    6.6954    2.8182 C   0  0  0  0  0  0  0  0  0  0  0  0
    6.0146    7.6041    3.0120 H   0  0  0  0  0  0  0  0  0  0  0  0
    5.2998    6.2521    1.5147 C   0  0  0  0  0  0  0  0  0  0  0  0
    5.7176    6.8083    0.6898 H   0  0  0  0  0  0  0  0  0  0  0  0
    4.5905    5.0898    1.2820 C   0  0  0  0  0  0  0  0  0  0  0  0
    4.4504    4.7362    0.2704 H   0  0  0  0  0  0  0  0  0  0  0  0
    3.9063    4.4194    6.0789 C   0  0  0  0  0  0  0  0  0  0  0  0
    4.9760    4.3715    6.3139 H   0  0  0  0  0  0  0  0  0  0  0  0
    3.3853    3.6890    6.6943 H   0  0  0  0  0  0  0  0  0  0  0  0
    3.5336    5.4145    6.3305 H   0  0  0  0  0  0  0  0  0  0  0  0
  1  2  1  1  0  0  0
  3 40  1  0  0  0  0
  3 12  1  0  0  0  0
  3  1  1  0  0  0  0
  4 11  1  0  0  0  0
  5  1  1  0  0  0  0
  5  6  1  0  0  0  0
  7  8  1  0  0  0  0
  9 50  1  0  0  0  0
 10  9  1  0  0  0  0
 11  1  1  0  0  0  0
 12 13  1  0  0  0  0
 13  5  1  0  0  0  0
 13 14  2  0  0  0  0
 14 15  1  0  0  0  0
 16 17  1  0  0  0  0
 16 14  1  0  0  0  0
 18 16  2  0  0  0  0
 19 18  1  0  0  0  0
 20 18  1  0  0  0  0
 20 12  2  0  0  0  0
 21 20  1  0  0  0  0
 22 25  1  0  0  0  0
 22 23  1  0  0  0  0
 22  5  1  0  0  0  0
 24 22  1  0  0  0  0
 26  3  1  0  0  0  0
 27 26  1  0  0  0  0
 27  7  1  0  0  0  0
 28 27  2  0  0  0  0
 29 28  1  0  0  0  0
 30 32  2  0  0  0  0
 30 28  1  0  0  0  0
 31 30  1  0  0  0  0
 32 34  1  0  0  0  0
 33 32  1  0  0  0  0
 34 35  1  0  0  0  0
 34 26  2  0  0  0  0
 36  7  1  0  0  0  0
 36 38  1  0  0  0  0
 37 36  1  0  0  0  0
 39 36  1  0  0  0  0
 40 41  1  0  0  0  0
 41 42  2  0  0  0  0
 41  9  1  0  0  0  0
 42 43  1  0  0  0  0
 44 45  1  0  0  0  0
 44 42  1  0  0  0  0
 46 44  2  0  0  0  0
 47 46  1  0  0  0  0
 48 46  1  0  0  0  0
 48 40  2  0  0  0  0
 49 48  1  0  0  0  0
 50 51  1  0  0  0  0
 50 53  1  0  0  0  0
 50 52  1  0  0  0  0
M  END
$$$$
