CSD_code = XUJXIJ | q = 0 | S = 0 | Stoichiometry = C17H15Cl2NPdS | MND = 4
 OpenBabel04212202123D

 37 40  0  0  0  0  0  0  0  0999 V2000
    2.5698    1.2576    2.5893 Pd  0  0  0  0  0  0  0  0  0  0  0  0
    2.5128    0.7718    4.7741 Cl  0  0  0  0  0  0  0  0  0  0  0  0
    0.4504    1.9145    2.7078 Cl  0  0  0  0  0  0  0  0  0  0  0  0
    2.7124    1.9204    0.3371 S   0  0  2  0  0  3  0  0  0  0  0  0
    4.5215    0.6938    2.3892 N   0  0  0  0  0  0  0  0  0  0  0  0
    5.1796   -0.0094    3.2886 C   0  0  0  0  0  0  0  0  0  0  0  0
    6.5602   -0.2373    3.2176 C   0  0  0  0  0  0  0  0  0  0  0  0
    7.2811    0.3067    2.1889 C   0  0  0  0  0  0  0  0  0  0  0  0
    6.6067    1.0491    1.1961 C   0  0  0  0  0  0  0  0  0  0  0  0
    7.2703    1.6420    0.1034 C   0  0  0  0  0  3  0  0  0  0  0  0
    6.5714    2.3330   -0.8492 C   0  0  0  0  0  0  0  0  0  0  0  0
    5.1775    2.4305   -0.7679 C   0  0  0  0  0  0  0  0  0  0  0  0
    4.5029    1.8783    0.2926 C   0  0  0  0  0  0  0  0  0  0  0  0
    5.1974    1.1954    1.3175 C   0  0  0  0  0  0  0  0  0  0  0  0
    2.4256    3.7092    0.6069 C   0  0  0  0  0  0  0  0  0  0  0  0
    2.6249    5.6280    2.1435 C   0  0  0  0  0  0  0  0  0  0  0  0
    1.4386    5.7302    2.8606 C   0  0  0  0  0  0  0  0  0  0  0  0
    0.9019    6.9729    3.1423 C   0  0  0  0  0  0  0  0  0  0  0  0
    1.5445    8.1220    2.7102 C   0  0  0  0  0  0  0  0  0  0  0  0
    2.7256    8.0249    1.9954 C   0  0  0  0  0  0  0  0  0  0  0  0
    3.2628    6.7812    1.7100 C   0  0  0  0  0  0  0  0  0  0  0  0
    3.1724    4.2644    1.8188 C   0  0  0  0  0  0  0  0  0  0  0  0
    4.5963   -0.3843    4.1222 H   0  0  0  0  0  0  0  0  0  0  0  0
    7.0349   -0.8229    3.9882 H   0  0  0  0  0  0  0  0  0  0  0  0
    8.3509    0.1791    2.1176 H   0  0  0  0  0  0  0  0  0  0  0  0
    8.3419    1.5329    0.0316 H   0  0  0  0  0  0  0  0  0  0  0  0
    7.0843    2.7861   -1.6832 H   0  0  0  0  0  0  0  0  0  0  0  0
    4.6256    2.9345   -1.5464 H   0  0  0  0  0  0  0  0  0  0  0  0
    1.3470    3.7694    0.7681 H   0  0  0  0  0  0  0  0  0  0  0  0
    2.6939    4.2389   -0.3077 H   0  0  0  0  0  0  0  0  0  0  0  0
    0.9447    4.8298    3.1990 H   0  0  0  0  0  0  0  0  0  0  0  0
   -0.0182    7.0462    3.7022 H   0  0  0  0  0  0  0  0  0  0  0  0
    1.1264    9.0924    2.9327 H   0  0  0  0  0  0  0  0  0  0  0  0
    3.2310    8.9184    1.6591 H   0  0  0  0  0  0  0  0  0  0  0  0
    4.1871    6.7077    1.1532 H   0  0  0  0  0  0  0  0  0  0  0  0
    3.0029    3.5941    2.6934 H   0  0  0  0  0  0  0  0  0  0  0  0
    4.2450    4.3190    1.6092 H   0  0  0  0  0  0  0  0  0  0  0  0
  1  3  1  0  0  0  0
  1  2  1  0  0  0  0
  4 15  1  1  0  0  0
  4  1  1  0  0  0  0
  5  1  1  0  0  0  0
  5  6  1  0  0  0  0
  6 23  1  0  0  0  0
  7  6  2  0  0  0  0
  7 24  1  0  0  0  0
  8  7  1  0  0  0  0
  9 14  1  0  0  0  0
  9  8  2  0  0  0  0
 10  9  1  0  0  0  0
 11 12  2  0  0  0  0
 11 10  1  0  0  0  0
 12 13  1  0  0  0  0
 13  4  1  0  0  0  0
 13 14  2  0  0  0  0
 14  5  1  0  0  0  0
 15 29  1  0  0  0  0
 15 22  1  0  0  0  0
 16 17  1  0  0  0  0
 17 18  2  0  0  0  0
 17 31  1  0  0  0  0
 18 32  1  0  0  0  0
 19 33  1  0  0  0  0
 19 18  1  0  0  0  0
 20 19  2  0  0  0  0
 21 20  1  0  0  0  0
 21 16  2  0  0  0  0
 22 16  1  0  0  0  0
 22 36  1  0  0  0  0
 25  8  1  0  0  0  0
 26 10  1  0  0  0  0
 27 11  1  0  0  0  0
 28 12  1  0  0  0  0
 30 15  1  0  0  0  0
 34 20  1  0  0  0  0
 35 21  1  0  0  0  0
 37 22  1  0  0  0  0
M  END
$$$$
