CSD_code = XUKREA | q = 0 | S = 0 | Stoichiometry = C11H17Br2Ir | MND = 9
 OpenBabel04212202123D

 31 28  0  0  1  0  0  0  0  0999 V2000
   -6.6166   -2.5284   -2.7740 Ir  0  0  0  0  0  0  0  0  0  0  0  0
   -6.3912   -1.9178   -5.1914 Br  0  0  0  0  0 15  0  0  0  0  0  0
   -6.2146   -4.9022   -3.5756 Br  0  0  0  0  0 15  0  0  0  0  0  0
   -5.0699   -1.0488   -2.3367 C   0  0  2  0  0  0  0  0  0  0  0  0
   -5.0810   -0.3155   -3.1406 H   0  0  0  0  0  0  0  0  0  0  0  0
   -4.4407   -2.2690   -2.6059 C   0  0  0  0  0  3  0  0  0  0  0  0
   -4.0299   -2.3927   -3.6078 H   0  0  0  0  0  0  0  0  0  0  0  0
   -3.6980   -3.0742   -1.5560 C   0  0  0  0  0  0  0  0  0  0  0  0
   -3.2149   -2.3697   -0.8757 H   0  0  0  0  0  0  0  0  0  0  0  0
   -2.9063   -3.6348   -2.0542 H   0  0  0  0  0  0  0  0  0  0  0  0
   -4.5573   -4.0811   -0.7703 C   0  0  0  0  0  0  0  0  0  0  0  0
   -4.5524   -5.0322   -1.3023 H   0  0  0  0  0  0  0  0  0  0  0  0
   -4.1088   -4.2558    0.2135 H   0  0  0  0  0  0  0  0  0  0  0  0
   -5.9877   -3.6735   -0.5655 C   0  0  0  0  0  0  0  0  0  0  0  0
   -6.6942   -4.4959   -0.5732 H   0  0  0  0  0  0  0  0  0  0  0  0
   -6.4060   -2.4601   -0.1511 C   0  0  0  0  0  0  0  0  0  0  0  0
   -7.4381   -2.3467    0.1584 H   0  0  0  0  0  0  0  0  0  0  0  0
   -5.4871   -1.3243    0.2008 C   0  0  0  0  0  0  0  0  0  0  0  0
   -4.5702   -1.7428    0.6176 H   0  0  0  0  0  0  0  0  0  0  0  0
   -5.9547   -0.7260    0.9859 H   0  0  0  0  0  0  0  0  0  0  0  0
   -5.1505   -0.3942   -0.9789 C   0  0  0  0  0  0  0  0  0  0  0  0
   -5.8968    0.4007   -1.0300 H   0  0  0  0  0  0  0  0  0  0  0  0
   -4.1872    0.0931   -0.7899 H   0  0  0  0  0  0  0  0  0  0  0  0
   -8.7409   -3.1478   -2.6265 C   0  0  0  0  0  3  0  0  0  0  0  0
   -8.8310   -3.3611   -1.5648 H   0  0  0  0  0  0  0  0  0  0  0  0
   -9.1790   -3.9063   -3.2627 H   0  0  0  0  0  0  0  0  0  0  0  0
   -8.7322   -1.8228   -3.0782 C   0  0  0  0  0  3  0  0  0  0  0  0
   -9.0252   -1.6170   -4.1031 H   0  0  0  0  0  0  0  0  0  0  0  0
   -8.0688   -0.8329   -2.3471 C   0  0  0  0  0  3  0  0  0  0  0  0
   -8.1431   -0.8165   -1.2699 H   0  0  0  0  0  0  0  0  0  0  0  0
   -7.9610    0.1444   -2.7964 H   0  0  0  0  0  0  0  0  0  0  0  0
  1  4  1  0  0  0  0
  4  5  1  6  0  0  0
  4 21  1  0  0  0  0
  6  4  1  0  0  0  0
  6  8  1  0  0  0  0
  7  6  1  0  0  0  0
  8  9  1  0  0  0  0
  8 11  1  0  0  0  0
 10  8  1  0  0  0  0
 11 14  1  0  0  0  0
 11 13  1  0  0  0  0
 12 11  1  0  0  0  0
 14 16  2  0  0  0  0
 15 14  1  0  0  0  0
 16 17  1  0  0  0  0
 16 18  1  0  0  0  0
 18 19  1  0  0  0  0
 18 20  1  0  0  0  0
 21 23  1  0  0  0  0
 21 18  1  0  0  0  0
 22 21  1  0  0  0  0
 24 25  1  0  0  0  0
 26 24  1  0  0  0  0
 27 24  1  0  0  0  0
 27 29  1  0  0  0  0
 28 27  1  0  0  0  0
 29 30  1  0  0  0  0
 31 29  1  0  0  0  0
M  END
$$$$
