CSD_code = XULCEM | q = 0 | S = 0 | Stoichiometry = C18H24Cl3N2O2Rh | MND = 6
 OpenBabel04212202123D

 50 53  0  0  1  0  0  0  0  0999 V2000
    0.6131    5.2986    7.9238 Rh  0  0  0  0  0  0  0  0  0  0  0  0
    0.0037    6.8310    6.3672 Cl  0  0  0  0  0  0  0  0  0  0  0  0
    2.6995    6.1149    7.8228 Cl  0  0  0  0  0  0  0  0  0  0  0  0
   -0.0729    6.7884    9.4833 Cl  0  0  0  0  0  0  0  0  0  0  0  0
   -1.4162    4.3037    8.0923 O   0  0  0  0  0  0  0  0  0  0  0  0
    3.6729    4.0783   11.1725 O   0  0  0  0  0  0  0  0  0  0  0  0
    1.2863    3.7279    6.6945 N   0  0  0  0  0  0  0  0  0  0  0  0
    1.0843    3.7930    9.4020 N   0  0  1  0  0  4  0  0  0  0  0  0
    1.1044    3.5300    5.3610 C   0  0  0  0  0  0  0  0  0  0  0  0
    0.0512    4.1698    4.6822 C   0  0  0  0  0  0  0  0  0  0  0  0
   -0.1135    3.9950    3.3344 C   0  0  0  0  0  0  0  0  0  0  0  0
    0.7523    3.1684    2.6045 C   0  0  0  0  0  0  0  0  0  0  0  0
    1.7534    2.4923    3.2448 C   0  0  0  0  0  3  0  0  0  0  0  0
    1.9419    2.6378    4.6332 C   0  0  0  0  0  0  0  0  0  0  0  0
    2.9191    1.9138    5.3436 C   0  0  0  0  0  0  0  0  0  0  0  0
    2.9863    2.0466    6.7012 C   0  0  0  0  0  0  0  0  0  0  0  0
    2.1513    2.9744    7.3491 C   0  0  0  0  0  0  0  0  0  0  0  0
    2.2645    3.1295    8.8372 C   0  0  0  0  0  0  0  0  0  0  0  0
    1.2678    4.1876   10.8177 C   0  0  1  0  0  0  0  0  0  0  0  0
    1.0841    2.8874   11.6069 C   0  0  0  0  0  0  0  0  0  0  0  0
    0.0474    2.1045   10.7922 C   0  0  0  0  0  0  0  0  0  0  0  0
   -0.0616    2.8593    9.4491 C   0  0  1  0  0  0  0  0  0  0  0  0
   -1.3861    3.6221    9.3348 C   0  0  0  0  0  0  0  0  0  0  0  0
   -2.5671    5.1205    7.9455 C   0  0  0  0  0  0  0  0  0  0  0  0
    2.5545    4.9453   11.1220 C   0  0  0  0  0  0  0  0  0  0  0  0
    4.8808    4.7819   11.3228 C   0  0  0  0  0  0  0  0  0  0  0  0
   -0.6111    4.8089    5.2435 H   0  0  0  0  0  0  0  0  0  0  0  0
   -0.9222    4.4970    2.8260 H   0  0  0  0  0  0  0  0  0  0  0  0
    0.6128    3.0559    1.5399 H   0  0  0  0  0  0  0  0  0  0  0  0
    2.4096    1.8259    2.7041 H   0  0  0  0  0  0  0  0  0  0  0  0
    3.5832    1.2491    4.8110 H   0  0  0  0  0  0  0  0  0  0  0  0
    3.6906    1.4799    7.2899 H   0  0  0  0  0  0  0  0  0  0  0  0
    3.1376    3.7540    9.0442 H   0  0  0  0  0  0  0  0  0  0  0  0
    2.4337    2.1513    9.3027 H   0  0  0  0  0  0  0  0  0  0  0  0
    0.4526    4.8823   11.0467 H   0  0  0  0  0  0  0  0  0  0  0  0
    0.7463    3.0904   12.6204 H   0  0  0  0  0  0  0  0  0  0  0  0
    2.0363    2.3622   11.6652 H   0  0  0  0  0  0  0  0  0  0  0  0
   -0.9195    2.0884   11.2934 H   0  0  0  0  0  0  0  0  0  0  0  0
    0.3560    1.0718   10.6353 H   0  0  0  0  0  0  0  0  0  0  0  0
   -0.0018    2.1831    8.5898 H   0  0  0  0  0  0  0  0  0  0  0  0
   -1.4923    4.3406   10.1585 H   0  0  0  0  0  0  0  0  0  0  0  0
   -2.2243    2.9099    9.3724 H   0  0  0  0  0  0  0  0  0  0  0  0
   -2.6269    5.8598    8.7494 H   0  0  0  0  0  0  0  0  0  0  0  0
   -3.4665    4.4952    7.9434 H   0  0  0  0  0  0  0  0  0  0  0  0
   -2.4643    5.6404    6.9943 H   0  0  0  0  0  0  0  0  0  0  0  0
    2.4350    5.4447   12.0948 H   0  0  0  0  0  0  0  0  0  0  0  0
    2.7035    5.7215   10.3586 H   0  0  0  0  0  0  0  0  0  0  0  0
    4.8931    5.3490   12.2608 H   0  0  0  0  0  0  0  0  0  0  0  0
    5.0372    5.4756   10.4890 H   0  0  0  0  0  0  0  0  0  0  0  0
    5.6753    4.0383   11.3373 H   0  0  0  0  0  0  0  0  0  0  0  0
  1  8  1  0  0  0  0
  1  4  1  0  0  0  0
  2  1  1  0  0  0  0
  3  1  1  0  0  0  0
  5 23  1  0  0  0  0
  6 26  1  0  0  0  0
  7 17  1  0  0  0  0
  7  1  1  0  0  0  0
  8 18  1  6  0  0  0
  8 22  1  0  0  0  0
  8 19  1  0  0  0  0
  9  7  1  0  0  0  0
 10 27  1  0  0  0  0
 10  9  2  0  0  0  0
 11 10  1  0  0  0  0
 12 13  1  0  0  0  0
 12 11  2  0  0  0  0
 13 14  1  0  0  0  0
 14 15  2  0  0  0  0
 14  9  1  0  0  0  0
 15 16  1  0  0  0  0
 16 32  1  0  0  0  0
 16 17  2  0  0  0  0
 17 18  1  0  0  0  0
 18 33  1  0  0  0  0
 18 34  1  0  0  0  0
 19 35  1  1  0  0  0
 19 25  1  0  0  0  0
 19 20  1  0  0  0  0
 20 37  1  0  0  0  0
 20 36  1  0  0  0  0
 21 38  1  0  0  0  0
 21 20  1  0  0  0  0
 22 40  1  6  0  0  0
 22 21  1  0  0  0  0
 23 42  1  0  0  0  0
 23 22  1  0  0  0  0
 23 41  1  0  0  0  0
 24  5  1  0  0  0  0
 24 43  1  0  0  0  0
 25  6  1  0  0  0  0
 25 46  1  0  0  0  0
 26 50  1  0  0  0  0
 26 48  1  0  0  0  0
 28 11  1  0  0  0  0
 29 12  1  0  0  0  0
 30 13  1  0  0  0  0
 31 15  1  0  0  0  0
 39 21  1  0  0  0  0
 44 24  1  0  0  0  0
 45 24  1  0  0  0  0
 47 25  1  0  0  0  0
 49 26  1  0  0  0  0
M  END
$$$$
