CSD_code = XULPEA | q = 0 | S = 0 | Stoichiometry = C23H33BClN6PRu | MND = 6
 OpenBabel04212202123D

 66 71  0  0  1  0  0  0  0  0999 V2000
    0.5438    2.8109   18.6876 Ru  0  0  0  0  0  0  0  0  0  0  0  0
   -1.6288    1.8637   18.7628 Cl  0  0  0  0  0  0  0  0  0  0  0  0
    0.0255    4.0115   20.6522 P   0  0  0  0  0  4  0  0  0  0  0  0
    0.9952    1.5469   17.1507 N   0  0  0  0  0  0  0  0  0  0  0  0
    2.1753    0.9250   17.1141 N   0  0  2  0  0  0  0  0  0  0  0  0
    1.1944    1.0927   19.8166 N   0  0  0  0  0  0  0  0  0  0  0  0
    2.3875    0.5684   19.5149 N   0  0  1  0  0  0  0  0  0  0  0  0
    2.4744    3.4510   18.6015 N   0  0  0  0  0  0  0  0  0  0  0  0
    3.4559    2.5604   18.4512 N   0  0  2  0  0  0  0  0  0  0  0  0
   -0.1312    4.0995   17.4248 C   0  0  0  0  0  3  0  0  0  0  0  0
   -1.1910    4.3826   17.4918 H   0  0  0  0  0  0  0  0  0  0  0  0
    0.4531    4.7044   16.2658 C   0  0  0  0  0  0  0  0  0  0  0  0
    1.6908    4.3171   15.7200 C   0  0  0  0  0  0  0  0  0  0  0  0
    2.2357    3.4946   16.1550 H   0  0  0  0  0  0  0  0  0  0  0  0
    2.2104    4.9476   14.6094 C   0  0  0  0  0  0  0  0  0  0  0  0
    3.1585    4.6224   14.2052 H   0  0  0  0  0  0  0  0  0  0  0  0
    1.5288    5.9958   14.0096 C   0  0  0  0  0  0  0  0  0  0  0  0
    1.9440    6.4907   13.1443 H   0  0  0  0  0  0  0  0  0  0  0  0
    0.3046    6.3974   14.5241 C   0  0  0  0  0  0  0  0  0  0  0  0
   -0.2369    7.2076   14.0569 H   0  0  0  0  0  0  0  0  0  0  0  0
   -0.2285    5.7571   15.6212 C   0  0  0  0  0  0  0  0  0  0  0  0
   -1.1859    6.0740   16.0120 H   0  0  0  0  0  0  0  0  0  0  0  0
    2.2396    0.1505   16.0199 C   0  0  0  0  0  3  0  0  0  0  0  0
    3.1089   -0.4388   15.8089 H   0  0  0  0  0  0  0  0  0  0  0  0
    1.0560    0.2851   15.3269 C   0  0  0  0  0  0  0  0  0  0  0  0
    0.7747   -0.1916   14.4109 H   0  0  0  0  0  0  0  0  0  0  0  0
    0.3006    1.1799   16.0852 C   0  0  0  0  0  0  0  0  0  0  0  0
   -0.6892    1.5600   15.9095 H   0  0  0  0  0  0  0  0  0  0  0  0
    2.5952   -0.5356   20.2480 C   0  0  0  0  0  3  0  0  0  0  0  0
    3.4977   -1.1043   20.1494 H   0  0  0  0  0  0  0  0  0  0  0  0
    1.4934   -0.7319   21.0522 C   0  0  0  0  0  0  0  0  0  0  0  0
    1.3273   -1.5192   21.7583 H   0  0  0  0  0  0  0  0  0  0  0  0
    0.6347    0.3200   20.7326 C   0  0  0  0  0  0  0  0  0  0  0  0
   -0.3536    0.5189   21.0972 H   0  0  0  0  0  0  0  0  0  0  0  0
    4.6385    3.1946   18.3926 C   0  0  0  0  0  3  0  0  0  0  0  0
    5.5538    2.6515   18.2754 H   0  0  0  0  0  0  0  0  0  0  0  0
    4.4064    4.5478   18.5066 C   0  0  0  0  0  0  0  0  0  0  0  0
    5.1265    5.3395   18.4978 H   0  0  0  0  0  0  0  0  0  0  0  0
    3.0217    4.6581   18.6331 C   0  0  0  0  0  0  0  0  0  0  0  0
    2.4159    5.5397   18.7199 H   0  0  0  0  0  0  0  0  0  0  0  0
    1.4709    4.5462   21.7266 C   0  0  0  0  0  0  0  0  0  0  0  0
    2.0421    5.2576   21.1178 H   0  0  0  0  0  0  0  0  0  0  0  0
    2.3689    3.3431   22.0087 C   0  0  0  0  0  0  0  0  0  0  0  0
    3.2741    3.6602   22.5254 H   0  0  0  0  0  0  0  0  0  0  0  0
    2.6644    2.8518   21.0841 H   0  0  0  0  0  0  0  0  0  0  0  0
    1.8599    2.6144   22.6375 H   0  0  0  0  0  0  0  0  0  0  0  0
    1.0880    5.2244   23.0387 C   0  0  0  0  0  0  0  0  0  0  0  0
    0.4996    4.5601   23.6666 H   0  0  0  0  0  0  0  0  0  0  0  0
    0.5284    6.1412   22.8742 H   0  0  0  0  0  0  0  0  0  0  0  0
    1.9938    5.4847   23.5853 H   0  0  0  0  0  0  0  0  0  0  0  0
   -0.9723    5.5804   20.5029 C   0  0  0  0  0  0  0  0  0  0  0  0
   -1.0601    6.0127   21.5065 H   0  0  0  0  0  0  0  0  0  0  0  0
   -2.3730    5.2223   19.9984 C   0  0  0  0  0  0  0  0  0  0  0  0
   -2.8224    6.0702   19.4852 H   0  0  0  0  0  0  0  0  0  0  0  0
   -3.0242    4.9460   20.8237 H   0  0  0  0  0  0  0  0  0  0  0  0
   -2.3357    4.3773   19.3125 H   0  0  0  0  0  0  0  0  0  0  0  0
   -0.2680    6.5858   19.5999 C   0  0  0  0  0  0  0  0  0  0  0  0
   -0.0371    6.1265   18.6386 H   0  0  0  0  0  0  0  0  0  0  0  0
    0.6595    6.9316   20.0542 H   0  0  0  0  0  0  0  0  0  0  0  0
   -0.9026    7.4537   19.4271 H   0  0  0  0  0  0  0  0  0  0  0  0
   -1.0348    3.1230   21.8531 C   0  0  0  0  0  0  0  0  0  0  0  0
   -1.4984    3.8242   22.5456 H   0  0  0  0  0  0  0  0  0  0  0  0
   -0.4437    2.3973   22.4077 H   0  0  0  0  0  0  0  0  0  0  0  0
   -1.8027    2.6013   21.2820 H   0  0  0  0  0  0  0  0  0  0  0  0
    3.1618    1.0642   18.2864 B   0  0  2  0  0  0  0  0  0  0  0  0
    4.1522    0.4441   18.1093 H   0  0  0  0  0  0  0  0  0  0  0  0
  1  2  1  0  0  0  0
  1  6  1  0  0  0  0
  1  3  1  0  0  0  0
  3 41  1  0  0  0  0
  3 61  1  0  0  0  0
  4  1  1  0  0  0  0
  5 23  1  1  0  0  0
  5  4  1  0  0  0  0
  5 65  1  0  0  0  0
  6 33  1  0  0  0  0
  7  6  1  0  0  0  0
  7 29  1  6  0  0  0
  8 39  1  0  0  0  0
  8  1  1  0  0  0  0
  9 35  1  6  0  0  0
  9  8  1  0  0  0  0
 10 11  1  0  0  0  0
 10  1  1  0  0  0  0
 12 10  1  0  0  0  0
 13 14  1  0  0  0  0
 13 12  1  0  0  0  0
 15 13  2  0  0  0  0
 16 15  1  0  0  0  0
 17 19  2  0  0  0  0
 17 15  1  0  0  0  0
 18 17  1  0  0  0  0
 19 21  1  0  0  0  0
 20 19  1  0  0  0  0
 21 22  1  0  0  0  0
 21 12  2  0  0  0  0
 24 23  1  0  0  0  0
 25 23  1  0  0  0  0
 25 27  2  0  0  0  0
 26 25  1  0  0  0  0
 27  4  1  0  0  0  0
 28 27  1  0  0  0  0
 29 31  1  0  0  0  0
 30 29  1  0  0  0  0
 31 32  1  0  0  0  0
 33 31  2  0  0  0  0
 33 34  1  0  0  0  0
 35 37  1  0  0  0  0
 36 35  1  0  0  0  0
 37 39  2  0  0  0  0
 38 37  1  0  0  0  0
 39 40  1  0  0  0  0
 41 43  1  0  0  0  0
 41 47  1  0  0  0  0
 42 41  1  0  0  0  0
 43 44  1  0  0  0  0
 43 46  1  0  0  0  0
 45 43  1  0  0  0  0
 47 50  1  0  0  0  0
 47 48  1  0  0  0  0
 49 47  1  0  0  0  0
 51  3  1  0  0  0  0
 51 52  1  0  0  0  0
 53 51  1  0  0  0  0
 53 55  1  0  0  0  0
 54 53  1  0  0  0  0
 56 53  1  0  0  0  0
 57 59  1  0  0  0  0
 57 51  1  0  0  0  0
 58 57  1  0  0  0  0
 60 57  1  0  0  0  0
 61 63  1  0  0  0  0
 61 62  1  0  0  0  0
 64 61  1  0  0  0  0
 65 66  1  6  0  0  0
 65  9  1  0  0  0  0
 65  7  1  0  0  0  0
M  END
$$$$
