CSD_code = XUNCUF | q = 0 | S = 0 | Stoichiometry = C8H18Cl2ORuS4 | MND = 6
 OpenBabel04212202123D

 34 36  0  0  0  0  0  0  0  0999 V2000
    1.6029    3.0287    2.2339 Ru  0  0  0  0  0  0  0  0  0  0  0  0
    0.6678    4.6324    3.6683 Cl  0  0  0  0  0  0  0  0  0  0  0  0
    2.7560    4.6678    1.0133 Cl  0  0  0  0  0  0  0  0  0  0  0  0
    2.5893    1.3806    0.9354 S   0  0  1  0  0  3  0  0  0  0  0  0
    3.3729    2.9081    3.7370 S   0  0  2  0  0  3  0  0  0  0  0  0
    0.4754    1.3873    3.4325 S   0  0  2  0  0  3  0  0  0  0  0  0
   -0.1066    3.2945    0.8031 S   0  0  0  0  0  0  0  0  0  0  0  0
   -0.9748    2.1183    0.7784 O   0  0  0  0  0  1  0  0  0  0  0  0
    4.3115    1.4599    1.5628 C   0  0  0  0  0  0  0  0  0  0  0  0
    4.8495    0.5988    1.1651 H   0  0  0  0  0  0  0  0  0  0  0  0
    4.6807    2.3772    1.0985 H   0  0  0  0  0  0  0  0  0  0  0  0
    4.4369    1.5506    3.0684 C   0  0  0  0  0  0  0  0  0  0  0  0
    5.4615    1.8093    3.3360 H   0  0  0  0  0  0  0  0  0  0  0  0
    4.1640    0.6228    3.5683 H   0  0  0  0  0  0  0  0  0  0  0  0
    2.5479    2.0972    5.1553 C   0  0  0  0  0  0  0  0  0  0  0  0
    3.3207    1.8021    5.8656 H   0  0  0  0  0  0  0  0  0  0  0  0
    1.9536    2.9159    5.5683 H   0  0  0  0  0  0  0  0  0  0  0  0
    1.6512    0.9347    4.7899 C   0  0  0  0  0  0  0  0  0  0  0  0
    1.0318    0.6671    5.6459 H   0  0  0  0  0  0  0  0  0  0  0  0
    2.2140    0.0583    4.4730 H   0  0  0  0  0  0  0  0  0  0  0  0
    0.6407   -0.0570    2.3193 C   0  0  0  0  0  0  0  0  0  0  0  0
    0.3667   -0.9450    2.8891 H   0  0  0  0  0  0  0  0  0  0  0  0
   -0.1239    0.1518    1.5675 H   0  0  0  0  0  0  0  0  0  0  0  0
    1.9988   -0.2127    1.6708 C   0  0  0  0  0  0  0  0  0  0  0  0
    1.9346   -0.9178    0.8420 H   0  0  0  0  0  0  0  0  0  0  0  0
    2.7572   -0.5601    2.3703 H   0  0  0  0  0  0  0  0  0  0  0  0
    0.3804    3.5969   -0.9206 C   0  0  0  0  0  0  0  0  0  0  0  0
    0.9184    2.7203   -1.2677 H   0  0  0  0  0  0  0  0  0  0  0  0
    1.0346    4.4616   -0.9267 H   0  0  0  0  0  0  0  0  0  0  0  0
   -0.5146    3.7531   -1.5108 H   0  0  0  0  0  0  0  0  0  0  0  0
   -1.1543    4.7491    1.0353 C   0  0  0  0  0  0  0  0  0  0  0  0
   -1.9327    4.7427    0.2814 H   0  0  0  0  0  0  0  0  0  0  0  0
   -0.5092    5.6173    0.9550 H   0  0  0  0  0  0  0  0  0  0  0  0
   -1.5760    4.6925    2.0339 H   0  0  0  0  0  0  0  0  0  0  0  0
  1  6  1  0  0  0  0
  1  2  1  0  0  0  0
  1  5  1  0  0  0  0
  3  1  1  0  0  0  0
  4  9  1  1  0  0  0
  4 24  1  0  0  0  0
  4  1  1  0  0  0  0
  5 12  1  6  0  0  0
  5 15  1  0  0  0  0
  6 21  1  6  0  0  0
  6 18  1  0  0  0  0
  7 31  1  0  0  0  0
  7  1  1  0  0  0  0
  8  7  1  0  0  0  0
  9 12  1  0  0  0  0
 10  9  1  0  0  0  0
 11  9  1  0  0  0  0
 12 13  1  0  0  0  0
 12 14  1  0  0  0  0
 15 17  1  0  0  0  0
 15 16  1  0  0  0  0
 18 15  1  0  0  0  0
 18 19  1  0  0  0  0
 20 18  1  0  0  0  0
 21 22  1  0  0  0  0
 23 21  1  0  0  0  0
 24 21  1  0  0  0  0
 24 26  1  0  0  0  0
 25 24  1  0  0  0  0
 27  7  1  0  0  0  0
 28 27  1  0  0  0  0
 29 27  1  0  0  0  0
 30 27  1  0  0  0  0
 31 34  1  0  0  0  0
 32 31  1  0  0  0  0
 33 31  1  0  0  0  0
M  END
$$$$
