CSD_code = XUPBIT | q = 0 | S = 0 | Stoichiometry = C15H17ClN2Pt | MND = 4
 OpenBabel04212202123D

 36 39  0  0  0  0  0  0  0  0999 V2000
    0.8696    3.7391   -1.0752 Pt  0  0  2  0  0  0  0  0  0  0  0  0
   -0.9295    2.5501   -0.5372 Cl  0  0  0  0  0  0  0  0  0  0  0  0
    2.1770    2.5594    0.1141 N   0  0  0  0  0  0  0  0  0  0  0  0
    2.5796    4.6472   -1.4635 N   0  0  0  0  0  0  0  0  0  0  0  0
    1.8647    1.5303    0.8875 C   0  0  0  0  0  0  0  0  0  0  0  0
    2.8206    0.6820    1.4168 C   0  0  0  0  0  0  0  0  0  0  0  0
    4.1546    0.9199    1.1131 C   0  0  0  0  0  0  0  0  0  0  0  0
    4.4800    1.9928    0.3049 C   0  0  0  0  0  0  0  0  0  0  0  0
    3.4623    2.8139   -0.1858 C   0  0  0  0  0  0  0  0  0  0  0  0
    3.6869    3.9949   -1.0212 C   0  0  0  0  0  0  0  0  0  0  0  0
    4.9662    4.4547   -1.3250 C   0  0  0  0  0  0  0  0  0  0  0  0
    5.1204    5.5967   -2.0847 C   0  0  0  0  0  0  0  0  0  0  0  0
    3.9811    6.2724   -2.4946 C   0  0  0  0  0  0  0  0  0  0  0  0
    2.7261    5.7851   -2.1614 C   0  0  0  0  0  0  0  0  0  0  0  0
    1.5060    6.5542   -2.5568 C   0  0  0  0  0  0  0  0  0  0  0  0
    0.4482    5.7223   -3.3132 C   0  0  0  0  0  0  0  0  0  0  0  0
   -0.3099    4.8391   -2.3242 C   0  0  0  0  0  0  0  0  0  0  0  0
   -0.5252    6.7003   -3.9841 C   0  0  0  0  0  0  0  0  0  0  0  0
    1.1165    4.8656   -4.3933 C   0  0  0  0  0  0  0  0  0  0  0  0
    0.8081    1.3887    1.0757 H   0  0  0  0  0  0  0  0  0  0  0  0
    2.5288   -0.1439    2.0448 H   0  0  0  0  0  0  0  0  0  0  0  0
    4.9307    0.2759    1.4987 H   0  0  0  0  0  0  0  0  0  0  0  0
    5.5113    2.1800    0.0551 H   0  0  0  0  0  0  0  0  0  0  0  0
    5.8336    3.9253   -0.9688 H   0  0  0  0  0  0  0  0  0  0  0  0
    6.1029    5.9605   -2.3413 H   0  0  0  0  0  0  0  0  0  0  0  0
    4.0636    7.1811   -3.0694 H   0  0  0  0  0  0  0  0  0  0  0  0
    1.8132    7.4040   -3.1692 H   0  0  0  0  0  0  0  0  0  0  0  0
    1.0374    6.9420   -1.6468 H   0  0  0  0  0  0  0  0  0  0  0  0
   -0.9574    5.4742   -1.6992 H   0  0  0  0  0  0  0  0  0  0  0  0
   -0.9756    4.1727   -2.8880 H   0  0  0  0  0  0  0  0  0  0  0  0
   -0.9508    7.3816   -3.2511 H   0  0  0  0  0  0  0  0  0  0  0  0
   -0.0203    7.2866   -4.7500 H   0  0  0  0  0  0  0  0  0  0  0  0
   -1.3389    6.1529   -4.4527 H   0  0  0  0  0  0  0  0  0  0  0  0
    1.6696    4.0419   -3.9401 H   0  0  0  0  0  0  0  0  0  0  0  0
    0.3598    4.4384   -5.0461 H   0  0  0  0  0  0  0  0  0  0  0  0
    1.7997    5.4597   -4.9982 H   0  0  0  0  0  0  0  0  0  0  0  0
  1  2  1  1  0  0  0
  1  3  1  0  0  0  0
  3  5  1  0  0  0  0
  4  1  1  0  0  0  0
  4 10  1  0  0  0  0
  5 20  1  0  0  0  0
  5  6  2  0  0  0  0
  6 21  1  0  0  0  0
  7  6  1  0  0  0  0
  7 22  1  0  0  0  0
  8  7  2  0  0  0  0
  9  3  1  0  0  0  0
  9  8  1  0  0  0  0
 10  9  2  0  0  0  0
 11 10  1  0  0  0  0
 11 24  1  0  0  0  0
 12 11  2  0  0  0  0
 13 14  2  0  0  0  0
 13 12  1  0  0  0  0
 14  4  1  0  0  0  0
 15 14  1  0  0  0  0
 15 28  1  0  0  0  0
 16 15  1  0  0  0  0
 16 17  1  0  0  0  0
 17 29  1  0  0  0  0
 17  1  1  0  0  0  0
 18 16  1  0  0  0  0
 18 31  1  0  0  0  0
 19 34  1  0  0  0  0
 19 16  1  0  0  0  0
 23  8  1  0  0  0  0
 25 12  1  0  0  0  0
 26 13  1  0  0  0  0
 27 15  1  0  0  0  0
 30 17  1  0  0  0  0
 32 18  1  0  0  0  0
 33 18  1  0  0  0  0
 35 19  1  0  0  0  0
 36 19  1  0  0  0  0
M  END
$$$$
