CSD_code = XUPBEP | q = 0 | S = 0 | Stoichiometry = C12H12Cl2N2Pt | MND = 4
 OpenBabel04212202123D

 29 31  0  0  0  0  0  0  0  0999 V2000
    5.3400   -0.4970   -1.9474 Pt  0  0  0  0  0  0  0  0  0  0  0  0
    6.0772    0.2729   -3.9163 Cl  0  0  0  0  0  0  0  0  0  0  0  0
    5.0299   -2.4540   -3.0014 Cl  0  0  0  0  0  0  0  0  0  0  0  0
    5.0264   -1.2906   -0.1585 N   0  0  0  0  0  0  0  0  0  0  0  0
    5.6135    1.1822   -0.7849 N   0  0  0  0  0  0  0  0  0  0  0  0
    4.5704   -2.5159    0.1011 C   0  0  0  0  0  0  0  0  0  0  0  0
    4.6893   -3.1025    1.3449 C   0  0  0  0  0  0  0  0  0  0  0  0
    5.3176   -2.3959    2.3636 C   0  0  0  0  0  0  0  0  0  0  0  0
    5.7722   -1.1175    2.1028 C   0  0  0  0  0  0  0  0  0  0  0  0
    5.6036   -0.5709    0.8309 C   0  0  0  0  0  0  0  0  0  0  0  0
    5.9341    0.8089    0.4804 C   0  0  0  0  0  0  0  0  0  0  0  0
    6.4459    1.7217    1.3975 C   0  0  0  0  0  0  0  0  0  0  0  0
    6.5809    3.0475    1.0281 C   0  0  0  0  0  0  0  0  0  0  0  0
    6.1248    3.4315   -0.2190 C   0  0  0  0  0  0  0  0  0  0  0  0
    5.6362    2.4787   -1.1101 C   0  0  0  0  0  0  0  0  0  0  0  0
    5.0719    2.9355   -2.4179 C   0  0  0  0  0  0  0  0  0  0  0  0
    6.1377    3.5377   -3.3345 C   0  0  0  0  0  0  0  0  0  0  0  0
    4.1177   -3.0365   -0.7322 H   0  0  0  0  0  0  0  0  0  0  0  0
    4.3060   -4.0960    1.5099 H   0  0  0  0  0  0  0  0  0  0  0  0
    5.4462   -2.8320    3.3420 H   0  0  0  0  0  0  0  0  0  0  0  0
    6.2573   -0.5509    2.8801 H   0  0  0  0  0  0  0  0  0  0  0  0
    6.7315    1.4036    2.3857 H   0  0  0  0  0  0  0  0  0  0  0  0
    6.9955    3.7697    1.7142 H   0  0  0  0  0  0  0  0  0  0  0  0
    6.1395    4.4680   -0.5154 H   0  0  0  0  0  0  0  0  0  0  0  0
    4.3105    3.6915   -2.2046 H   0  0  0  0  0  0  0  0  0  0  0  0
    4.5981    2.0919   -2.9245 H   0  0  0  0  0  0  0  0  0  0  0  0
    5.6666    3.9205   -4.2348 H   0  0  0  0  0  0  0  0  0  0  0  0
    6.6697    4.3502   -2.8451 H   0  0  0  0  0  0  0  0  0  0  0  0
    6.8455    2.7669   -3.6232 H   0  0  0  0  0  0  0  0  0  0  0  0
  1  5  1  0  0  0  0
  1  4  1  0  0  0  0
  2  1  1  0  0  0  0
  3  1  1  0  0  0  0
  4  6  1  0  0  0  0
  4 10  1  0  0  0  0
  5 11  1  0  0  0  0
  6  7  2  0  0  0  0
  7 19  1  0  0  0  0
  7  8  1  0  0  0  0
  8 20  1  0  0  0  0
  9  8  2  0  0  0  0
  9 21  1  0  0  0  0
 10  9  1  0  0  0  0
 11 10  2  0  0  0  0
 11 12  1  0  0  0  0
 12 22  1  0  0  0  0
 13 12  2  0  0  0  0
 13 23  1  0  0  0  0
 14 13  1  0  0  0  0
 15  5  1  0  0  0  0
 15 14  2  0  0  0  0
 16 25  1  0  0  0  0
 16 15  1  0  0  0  0
 17 28  1  0  0  0  0
 17 16  1  0  0  0  0
 18  6  1  0  0  0  0
 24 14  1  0  0  0  0
 26 16  1  0  0  0  0
 27 17  1  0  0  0  0
 29 17  1  0  0  0  0
M  END
$$$$
