CSD_code = XUQXUC | q = 0 | S = 0 | Stoichiometry = C9H22Cl2MoO8P2 | MND = 6
 OpenBabel04212202123D

 44 44  0  0  0  0  0  0  0  0999 V2000
   10.9675    7.4628   -0.0053 Mo  0  0  0  0  0  0  0  0  0  0  0  0
   10.4242    9.3428   -1.3795 Cl  0  0  0  0  0  0  0  0  0  0  0  0
   11.9522    6.5267    1.7997 Cl  0  0  0  0  0  0  0  0  0  0  0  0
   10.4129   10.4976    1.4490 P   0  0  0  0  0  4  0  0  0  0  0  0
   13.0350   10.2059    0.1213 P   0  0  0  0  0  4  0  0  0  0  0  0
    9.4205    6.9693    0.2131 O   0  0  0  0  0  1  0  0  0  0  0  0
   11.6601    6.5659   -1.1872 O   0  0  0  0  0  1  0  0  0  0  0  0
   10.6312    9.0295    1.5563 O   0  0  0  0  0  0  0  0  0  0  0  0
    9.0342   10.9632    0.8624 O   0  0  0  0  0  0  0  0  0  0  0  0
   10.4357   11.1442    2.8999 O   0  0  0  0  0  0  0  0  0  0  0  0
   12.7760    8.7411    0.1157 O   0  0  0  0  0  0  0  0  0  0  0  0
   13.8150   10.6586   -1.1757 O   0  0  0  0  0  0  0  0  0  0  0  0
   14.0020   10.6200    1.3094 O   0  0  0  0  0  0  0  0  0  0  0  0
   11.6768   11.3825    0.4624 C   0  0  0  0  0  0  0  0  0  0  0  0
   11.2347   11.7509   -0.4605 H   0  0  0  0  0  0  0  0  0  0  0  0
   12.0891   12.2116    1.0334 H   0  0  0  0  0  0  0  0  0  0  0  0
    7.8988   10.0742    0.8879 C   0  0  0  0  0  0  0  0  0  0  0  0
    8.1705    9.1221    0.4147 H   0  0  0  0  0  0  0  0  0  0  0  0
    7.1491   10.5835    0.2791 H   0  0  0  0  0  0  0  0  0  0  0  0
    7.4081    9.8311    2.3011 C   0  0  0  0  0  0  0  0  0  0  0  0
    8.1659    9.2855    2.8606 H   0  0  0  0  0  0  0  0  0  0  0  0
    6.4995    9.2359    2.2712 H   0  0  0  0  0  0  0  0  0  0  0  0
    7.2058   10.7757    2.8008 H   0  0  0  0  0  0  0  0  0  0  0  0
   11.1973   10.5880    3.9797 C   0  0  0  0  0  0  0  0  0  0  0  0
   11.4521    9.5491    3.7473 H   0  0  0  0  0  0  0  0  0  0  0  0
   10.5337   10.6093    4.8484 H   0  0  0  0  0  0  0  0  0  0  0  0
   12.4432   11.4164    4.2402 C   0  0  0  0  0  0  0  0  0  0  0  0
   13.1165   11.3711    3.3883 H   0  0  0  0  0  0  0  0  0  0  0  0
   12.9534   11.0326    5.1197 H   0  0  0  0  0  0  0  0  0  0  0  0
   12.1681   12.4531    4.4191 H   0  0  0  0  0  0  0  0  0  0  0  0
   13.6936    9.9966   -2.4493 C   0  0  0  0  0  0  0  0  0  0  0  0
   13.2553    9.0028   -2.3065 H   0  0  0  0  0  0  0  0  0  0  0  0
   14.7183    9.8918   -2.8156 H   0  0  0  0  0  0  0  0  0  0  0  0
   12.8586   10.8273   -3.4048 C   0  0  0  0  0  0  0  0  0  0  0  0
   11.8238   10.8536   -3.0736 H   0  0  0  0  0  0  0  0  0  0  0  0
   12.8963   10.3774   -4.3926 H   0  0  0  0  0  0  0  0  0  0  0  0
   13.2510   11.8397   -3.4601 H   0  0  0  0  0  0  0  0  0  0  0  0
   15.1508    9.7924    1.5828 C   0  0  0  0  0  0  0  0  0  0  0  0
   15.9249   10.4855    1.9239 H   0  0  0  0  0  0  0  0  0  0  0  0
   15.4783    9.3156    0.6551 H   0  0  0  0  0  0  0  0  0  0  0  0
   14.8401    8.7460    2.6374 C   0  0  0  0  0  0  0  0  0  0  0  0
   14.5432    9.2209    3.5687 H   0  0  0  0  0  0  0  0  0  0  0  0
   15.7260    8.1428    2.8164 H   0  0  0  0  0  0  0  0  0  0  0  0
   14.0356    8.0916    2.3031 H   0  0  0  0  0  0  0  0  0  0  0  0
  1 11  1  0  0  0  0
  1  6  1  0  0  0  0
  1  8  1  0  0  0  0
  1  3  1  0  0  0  0
  2  1  1  0  0  0  0
  4  8  1  0  0  0  0
  4 10  1  0  0  0  0
  5 14  1  0  0  0  0
  5 13  1  0  0  0  0
  7  1  1  0  0  0  0
  9 17  1  0  0  0  0
  9  4  1  0  0  0  0
 10 24  1  0  0  0  0
 11  5  1  0  0  0  0
 12  5  1  0  0  0  0
 13 38  1  0  0  0  0
 14 16  1  0  0  0  0
 14  4  1  0  0  0  0
 15 14  1  0  0  0  0
 17 20  1  0  0  0  0
 18 17  1  0  0  0  0
 19 17  1  0  0  0  0
 20 23  1  0  0  0  0
 20 21  1  0  0  0  0
 22 20  1  0  0  0  0
 24 27  1  0  0  0  0
 24 26  1  0  0  0  0
 25 24  1  0  0  0  0
 27 30  1  0  0  0  0
 27 29  1  0  0  0  0
 28 27  1  0  0  0  0
 31 32  1  0  0  0  0
 31 12  1  0  0  0  0
 33 31  1  0  0  0  0
 34 35  1  0  0  0  0
 34 31  1  0  0  0  0
 36 34  1  0  0  0  0
 37 34  1  0  0  0  0
 38 39  1  0  0  0  0
 38 41  1  0  0  0  0
 40 38  1  0  0  0  0
 41 43  1  0  0  0  0
 41 42  1  0  0  0  0
 44 41  1  0  0  0  0
M  END
$$$$
