CSD_code = XURKAX | q = 1 | S = 0 | Stoichiometry = C8H24F4NbS4(1+) | MND = 8
 OpenBabel04212202123D

 41 38  0  0  0  0  0  0  0  0999 V2000
    3.0708    9.2123    3.4650 Nb  0  0  0  0  0  0  0  0  0  0  0  0
    1.8541    9.7596    2.1878 F   0  0  0  0  0  0  0  0  0  0  0  0
    0.5313    8.3651    4.5639 S   0  0  0  0  0  3  0  0  0  0  0  0
   -0.4424    9.8920    4.4460 C   0  0  0  0  0  0  0  0  0  0  0  0
   -0.6225   10.0669    3.3887 H   0  0  0  0  0  0  0  0  0  0  0  0
    0.1121   10.7203    4.8780 H   0  0  0  0  0  0  0  0  0  0  0  0
   -1.3858    9.7453    4.9642 H   0  0  0  0  0  0  0  0  0  0  0  0
    0.9127    8.3671    6.3373 C   0  0  0  0  0  0  0  0  0  0  0  0
    1.5945    7.5388    6.5108 H   0  0  0  0  0  0  0  0  0  0  0  0
   -0.0077    8.2139    6.8936 H   0  0  0  0  0  0  0  0  0  0  0  0
    1.3816    9.3077    6.6136 H   0  0  0  0  0  0  0  0  0  0  0  0
    4.2874    8.6648    2.1877 F   0  0  0  0  0  0  0  0  0  0  0  0
    3.6181    7.9956    4.7422 F   0  0  0  0  0  0  0  0  0  0  0  0
    2.5234   10.4290    4.7422 F   0  0  0  0  0  0  0  0  0  0  0  0
    5.6102   10.0594    4.5640 S   0  0  0  0  0  0  0  0  0  0  0  0
    2.2235    6.6726    2.3660 S   0  0  0  0  0  0  0  0  0  0  0  0
    3.9179   11.7517    2.3660 S   0  0  0  0  0  3  0  0  0  0  0  0
    6.5839    8.5325    4.4461 C   0  0  0  0  0  0  0  0  0  0  0  0
    3.7505    5.6991    2.4840 C   0  0  0  0  0  0  0  0  0  0  0  0
    2.3911   12.7255    2.4841 C   0  0  0  0  0  0  0  0  0  0  0  0
    6.7638    8.3575    3.3887 H   0  0  0  0  0  0  0  0  0  0  0  0
    3.9254    5.5191    3.5413 H   0  0  0  0  0  0  0  0  0  0  0  0
    2.2163   12.9055    3.5414 H   0  0  0  0  0  0  0  0  0  0  0  0
    6.0294    7.7042    4.8783 H   0  0  0  0  0  0  0  0  0  0  0  0
    4.5788    6.2536    2.0519 H   0  0  0  0  0  0  0  0  0  0  0  0
    1.5627   12.1710    2.0521 H   0  0  0  0  0  0  0  0  0  0  0  0
    7.5274    8.6793    4.9641 H   0  0  0  0  0  0  0  0  0  0  0  0
    3.6039    4.7556    1.9659 H   0  0  0  0  0  0  0  0  0  0  0  0
    2.5378   13.6689    1.9659 H   0  0  0  0  0  0  0  0  0  0  0  0
    5.2288   10.0574    6.3374 C   0  0  0  0  0  0  0  0  0  0  0  0
    2.2257    7.0541    0.5927 C   0  0  0  0  0  0  0  0  0  0  0  0
    3.9158   11.3703    0.5926 C   0  0  0  0  0  0  0  0  0  0  0  0
    4.5468   10.8856    6.5109 H   0  0  0  0  0  0  0  0  0  0  0  0
    1.3974    7.7359    0.4191 H   0  0  0  0  0  0  0  0  0  0  0  0
    4.7440   10.6884    0.4190 H   0  0  0  0  0  0  0  0  0  0  0  0
    6.1492   10.2108    6.8936 H   0  0  0  0  0  0  0  0  0  0  0  0
    2.0725    6.1337    0.0364 H   0  0  0  0  0  0  0  0  0  0  0  0
    4.0691   12.2907    0.0363 H   0  0  0  0  0  0  0  0  0  0  0  0
    4.7601    9.1167    6.6137 H   0  0  0  0  0  0  0  0  0  0  0  0
    3.1662    7.5230    0.3164 H   0  0  0  0  0  0  0  0  0  0  0  0
    2.9751   10.9016    0.3163 H   0  0  0  0  0  0  0  0  0  0  0  0
  1  3  1  0  0  0  0
  1 14  1  0  0  0  0
  1 13  1  0  0  0  0
  2  1  1  0  0  0  0
  3  8  1  0  0  0  0
  4  3  1  0  0  0  0
  4  6  1  0  0  0  0
  4  7  1  0  0  0  0
  5  4  1  0  0  0  0
  8  9  1  0  0  0  0
  8 11  1  0  0  0  0
  8 10  1  0  0  0  0
 12  1  1  0  0  0  0
 15 30  1  0  0  0  0
 16 19  1  0  0  0  0
 17 20  1  0  0  0  0
 17  1  1  0  0  0  0
 18 15  1  0  0  0  0
 18 24  1  0  0  0  0
 18 27  1  0  0  0  0
 19 22  1  0  0  0  0
 20 23  1  0  0  0  0
 21 18  1  0  0  0  0
 25 19  1  0  0  0  0
 26 20  1  0  0  0  0
 28 19  1  0  0  0  0
 29 20  1  0  0  0  0
 30 33  1  0  0  0  0
 30 39  1  0  0  0  0
 30 36  1  0  0  0  0
 31 16  1  0  0  0  0
 32 17  1  0  0  0  0
 34 31  1  0  0  0  0
 35 32  1  0  0  0  0
 37 31  1  0  0  0  0
 38 32  1  0  0  0  0
 40 31  1  0  0  0  0
 41 32  1  0  0  0  0
M  END
$$$$
