CSD_code = XUSFEW | q = 0 | S = 0 | Stoichiometry = C28H28Cl4N4PtS2 | MND = 6
 OpenBabel04212202123D

 67 70  0  0  0  0  0  0  0  0999 V2000
    3.4127   12.2149    8.1002 C   0  0  0  0  0  0  0  0  0  0  0  0
    4.4652   12.2949    9.1783 C   0  0  0  0  0  0  0  0  0  0  0  0
    5.0576   11.3850    9.2173 H   0  0  0  0  0  0  0  0  0  0  0  0
    3.9929   12.4591   10.1466 H   0  0  0  0  0  0  0  0  0  0  0  0
    5.1265   13.1365    8.9697 H   0  0  0  0  0  0  0  0  0  0  0  0
    3.5910   15.6246    8.3350 C   0  0  0  0  0  0  0  0  0  0  0  0
    4.1074   15.5041    7.0588 C   0  0  0  0  0  0  0  0  0  0  0  0
    3.7852   14.7074    6.4004 H   0  0  0  0  0  0  0  0  0  0  0  0
    5.0440   16.4343    6.6373 C   0  0  0  0  0  0  0  0  0  0  0  0
    5.4540   16.3521    5.6431 H   0  0  0  0  0  0  0  0  0  0  0  0
    5.4493   17.4544    7.4826 C   0  0  0  0  0  0  0  0  0  0  0  0
    6.1818   18.1730    7.1474 H   0  0  0  0  0  0  0  0  0  0  0  0
    4.9209   17.5570    8.7603 C   0  0  0  0  0  0  0  0  0  0  0  0
    5.2389   18.3508    9.4190 H   0  0  0  0  0  0  0  0  0  0  0  0
    3.9859   16.6341    9.1959 C   0  0  0  0  0  0  0  0  0  0  0  0
    3.5675   16.6953   10.1895 H   0  0  0  0  0  0  0  0  0  0  0  0
    0.9248   15.2025    8.2010 C   0  0  0  0  0  0  0  0  0  0  0  0
    0.0692   15.9112    9.0284 C   0  0  0  0  0  0  0  0  0  0  0  0
    0.2755   15.9803   10.0864 H   0  0  0  0  0  0  0  0  0  0  0  0
   -1.0449   16.5242    8.4802 C   0  0  0  0  0  0  0  0  0  0  0  0
   -1.7239   17.0747    9.1136 H   0  0  0  0  0  0  0  0  0  0  0  0
   -1.2840   16.4307    7.1186 C   0  0  0  0  0  0  0  0  0  0  0  0
   -2.1543   16.9090    6.6946 H   0  0  0  0  0  0  0  0  0  0  0  0
   -0.4081   15.7313    6.3035 C   0  0  0  0  0  0  0  0  0  0  0  0
   -0.5752   15.6753    5.2388 H   0  0  0  0  0  0  0  0  0  0  0  0
    0.7055   15.1054    6.8391 C   0  0  0  0  0  0  0  0  0  0  0  0
    1.3876   14.5543    6.2043 H   0  0  0  0  0  0  0  0  0  0  0  0
   -0.6373   11.1653    6.3765 C   0  0  0  0  0  0  0  0  0  0  0  0
   -1.0230    9.9259    5.6431 C   0  0  0  0  0  0  0  0  0  0  0  0
   -0.9289   10.1067    4.5717 H   0  0  0  0  0  0  0  0  0  0  0  0
   -2.0420    9.6219    5.8785 H   0  0  0  0  0  0  0  0  0  0  0  0
   -0.3239    9.1277    5.8906 H   0  0  0  0  0  0  0  0  0  0  0  0
   -3.4558   12.5510    8.6516 C   0  0  0  0  0  0  0  0  0  0  0  0
   -2.4882   13.3541    9.2209 C   0  0  0  0  0  0  0  0  0  0  0  0
   -1.5012   13.3715    8.7860 H   0  0  0  0  0  0  0  0  0  0  0  0
   -2.8128   14.1098   10.3345 C   0  0  0  0  0  0  0  0  0  0  0  0
   -2.0631   14.7380   10.7899 H   0  0  0  0  0  0  0  0  0  0  0  0
   -4.0913   14.0558   10.8643 C   0  0  0  0  0  0  0  0  0  0  0  0
   -4.3404   14.6457   11.7334 H   0  0  0  0  0  0  0  0  0  0  0  0
   -5.0522   13.2409   10.2867 C   0  0  0  0  0  0  0  0  0  0  0  0
   -6.0465   13.1942   10.7037 H   0  0  0  0  0  0  0  0  0  0  0  0
   -4.7351   12.4786    9.1761 C   0  0  0  0  0  0  0  0  0  0  0  0
   -5.4729   11.8344    8.7227 H   0  0  0  0  0  0  0  0  0  0  0  0
   -3.9021   12.6573    6.0247 C   0  0  0  0  0  0  0  0  0  0  0  0
   -3.1963   13.7156    5.4879 C   0  0  0  0  0  0  0  0  0  0  0  0
   -2.1640   13.8559    5.7693 H   0  0  0  0  0  0  0  0  0  0  0  0
   -3.8298   14.5608    4.5940 C   0  0  0  0  0  0  0  0  0  0  0  0
   -3.2887   15.3897    4.1640 H   0  0  0  0  0  0  0  0  0  0  0  0
   -5.1521   14.3361    4.2458 C   0  0  0  0  0  0  0  0  0  0  0  0
   -5.6432   14.9940    3.5450 H   0  0  0  0  0  0  0  0  0  0  0  0
   -5.8450   13.2637    4.7844 C   0  0  0  0  0  0  0  0  0  0  0  0
   -6.8714   13.0845    4.5029 H   0  0  0  0  0  0  0  0  0  0  0  0
   -5.2183   12.4120    5.6789 C   0  0  0  0  0  0  0  0  0  0  0  0
   -5.7436   11.5653    6.0940 H   0  0  0  0  0  0  0  0  0  0  0  0
    3.4162   11.2294    7.2611 N   0  0  0  0  0  0  0  0  0  0  0  0
    2.4838   13.1529    7.9783 N   0  0  0  0  0  0  0  0  0  0  0  0
    0.5927   11.5695    6.3798 N   0  0  0  0  0  0  0  0  0  0  0  0
   -1.5224   11.9256    7.0351 N   0  0  0  0  0  0  0  0  0  0  0  0
    2.3731   14.4218    8.9539 S   0  0  0  0  0  3  0  0  0  0  0  0
   -3.0640   11.5405    7.1964 S   0  0  0  0  0  3  0  0  0  0  0  0
    1.3174   10.6159    3.4623 Cl  0  0  0  0  0  0  0  0  0  0  0  0
    4.4325   10.3903    4.5916 Cl  0  0  0  0  0  0  0  0  0  0  0  0
    2.0948    8.7381    6.1743 Cl  0  0  0  0  0  0  0  0  0  0  0  0
    2.7486   13.2047    4.8444 Cl  0  0  0  0  0  0  0  0  0  0  0  0
    2.3740   10.9699    5.4946 Pt  0  0  0  0  0  0  0  0  0  0  0  0
    4.1601   10.5481    7.3713 H   0  0  0  0  0  0  0  0  0  0  0  0
    0.7540   12.4204    6.9154 H   0  0  0  0  0  0  0  0  0  0  0  0
  1  2  1  0  0  0  0
  2  3  1  0  0  0  0
  2  4  1  0  0  0  0
  5  2  1  0  0  0  0
  6 59  1  0  0  0  0
  6 15  1  0  0  0  0
  7  6  2  0  0  0  0
  8  7  1  0  0  0  0
  9  7  1  0  0  0  0
  9 11  2  0  0  0  0
 10  9  1  0  0  0  0
 11 13  1  0  0  0  0
 12 11  1  0  0  0  0
 13 15  2  0  0  0  0
 13 14  1  0  0  0  0
 15 16  1  0  0  0  0
 17 59  1  0  0  0  0
 17 18  1  0  0  0  0
 18 19  1  0  0  0  0
 20 18  2  0  0  0  0
 20 21  1  0  0  0  0
 22 20  1  0  0  0  0
 23 22  1  0  0  0  0
 24 26  1  0  0  0  0
 24 22  2  0  0  0  0
 25 24  1  0  0  0  0
 26 17  2  0  0  0  0
 27 26  1  0  0  0  0
 28 57  1  0  0  0  0
 28 58  2  0  0  0  0
 29 31  1  0  0  0  0
 29 32  1  0  0  0  0
 29 28  1  0  0  0  0
 30 29  1  0  0  0  0
 33 42  2  0  0  0  0
 33 34  1  0  0  0  0
 34 36  2  0  0  0  0
 35 34  1  0  0  0  0
 36 37  1  0  0  0  0
 36 38  1  0  0  0  0
 38 39  1  0  0  0  0
 40 41  1  0  0  0  0
 40 38  2  0  0  0  0
 42 40  1  0  0  0  0
 43 42  1  0  0  0  0
 44 60  1  0  0  0  0
 45 46  1  0  0  0  0
 45 44  2  0  0  0  0
 47 45  1  0  0  0  0
 48 47  1  0  0  0  0
 49 47  2  0  0  0  0
 49 51  1  0  0  0  0
 50 49  1  0  0  0  0
 51 53  2  0  0  0  0
 52 51  1  0  0  0  0
 53 44  1  0  0  0  0
 53 54  1  0  0  0  0
 55 66  1  0  0  0  0
 55  1  1  0  0  0  0
 56  1  2  0  0  0  0
 56 59  1  0  0  0  0
 57 67  1  0  0  0  0
 58 60  1  0  0  0  0
 60 33  1  0  0  0  0
 61 65  1  0  0  0  0
 62 65  1  0  0  0  0
 64 65  1  0  0  0  0
 65 63  1  0  0  0  0
 65 57  1  0  0  0  0
 65 55  1  0  0  0  0
M  END
$$$$
