CSD_code = XUSFOG | q = 0 | S = 0 | Stoichiometry = C20H18Cl2N2PtS2 | MND = 4
 OpenBabel04212202123D

 45 48  0  0  0  0  0  0  0  0999 V2000
   -1.3005    4.0541    8.3460 Pt  0  0  0  0  0  0  0  0  0  0  0  0
   -2.8034    2.9895    6.9999 Cl  0  0  0  0  0  0  0  0  0  0  0  0
   -0.9261    2.2371    9.6013 Cl  0  0  0  0  0  0  0  0  0  0  0  0
    1.1400    4.5483    6.4602 S   0  0  0  0  0  0  0  0  0  0  0  0
    1.5359    2.9328    5.7840 C   0  0  0  0  0  0  0  0  0  0  0  0
    0.6624    1.8866    6.0231 C   0  0  0  0  0  0  0  0  0  0  0  0
   -0.2330    2.0521    6.6092 H   0  0  0  0  0  0  0  0  0  0  0  0
    0.9576    0.6332    5.5167 C   0  0  0  0  0  0  0  0  0  0  0  0
    0.2805   -0.1863    5.7013 H   0  0  0  0  0  0  0  0  0  0  0  0
    2.1190    0.4343    4.7879 C   0  0  0  0  0  0  0  0  0  0  0  0
    2.3478   -0.5450    4.3948 H   0  0  0  0  0  0  0  0  0  0  0  0
    2.9958    1.4852    4.5708 C   0  0  0  0  0  0  0  0  0  0  0  0
    3.9063    1.3269    4.0117 H   0  0  0  0  0  0  0  0  0  0  0  0
    2.7099    2.7432    5.0732 C   0  0  0  0  0  0  0  0  0  0  0  0
    3.3903    3.5680    4.9205 H   0  0  0  0  0  0  0  0  0  0  0  0
   -1.4775    6.0241    7.2389 S   0  0  1  0  0  0  0  0  0  0  0  0
    0.1170    5.2074    5.1754 C   0  0  0  0  0  0  0  0  0  0  0  0
    0.4182    5.0007    3.8344 C   0  0  0  0  0  0  0  0  0  0  0  0
    1.2484    4.3640    3.5704 H   0  0  0  0  0  0  0  0  0  0  0  0
   -0.3488    5.5956    2.8521 C   0  0  0  0  0  0  0  0  0  0  0  0
   -0.1127    5.4206    1.8137 H   0  0  0  0  0  0  0  0  0  0  0  0
   -1.4096    6.4207    3.1944 C   0  0  0  0  0  0  0  0  0  0  0  0
   -1.9997    6.8964    2.4269 H   0  0  0  0  0  0  0  0  0  0  0  0
   -1.7281    6.6194    4.5257 C   0  0  0  0  0  0  0  0  0  0  0  0
   -2.5695    7.2386    4.7956 H   0  0  0  0  0  0  0  0  0  0  0  0
   -0.9714    6.0121    5.5141 C   0  0  0  0  0  0  0  0  0  0  0  0
   -2.9420    7.0554    7.1925 C   0  0  0  0  0  0  0  0  0  0  0  0
   -2.8417    8.4200    7.3970 C   0  0  0  0  0  0  0  0  0  0  0  0
   -1.8675    8.8583    7.5476 H   0  0  0  0  0  0  0  0  0  0  0  0
   -3.9995    9.1783    7.4115 C   0  0  0  0  0  0  0  0  0  0  0  0
   -3.9397   10.2445    7.5687 H   0  0  0  0  0  0  0  0  0  0  0  0
   -5.2316    8.5683    7.2302 C   0  0  0  0  0  0  0  0  0  0  0  0
   -6.1316    9.1645    7.2476 H   0  0  0  0  0  0  0  0  0  0  0  0
   -5.3167    7.1981    7.0366 C   0  0  0  0  0  0  0  0  0  0  0  0
   -6.2781    6.7264    6.9049 H   0  0  0  0  0  0  0  0  0  0  0  0
   -4.1658    6.4283    7.0206 C   0  0  0  0  0  0  0  0  0  0  0  0
   -4.2056    5.3571    6.8810 H   0  0  0  0  0  0  0  0  0  0  0  0
   -0.4116    6.9536    8.0153 N   0  0  0  0  0  0  0  0  0  0  0  0
    0.1926    6.3951    9.0613 C   0  0  0  0  0  0  0  0  0  0  0  0
    1.1860    7.2642    9.7767 C   0  0  0  0  0  0  0  0  0  0  0  0
    0.9611    7.2900   10.8410 H   0  0  0  0  0  0  0  0  0  0  0  0
    1.1591    8.2704    9.3713 H   0  0  0  0  0  0  0  0  0  0  0  0
    2.1841    6.8508    9.6429 H   0  0  0  0  0  0  0  0  0  0  0  0
   -0.0344    5.1758    9.4589 N   0  0  0  0  0  0  0  0  0  0  0  0
    0.4934    4.8457   10.2585 H   0  0  0  0  0  0  0  0  0  0  0  0
  1 44  1  0  0  0  0
  1  3  1  0  0  0  0
  2  1  1  0  0  0  0
  5  6  1  0  0  0  0
  5  4  1  0  0  0  0
  6  7  1  0  0  0  0
  8  9  1  0  0  0  0
  8  6  2  0  0  0  0
 10  8  1  0  0  0  0
 11 10  1  0  0  0  0
 12 10  2  0  0  0  0
 12 14  1  0  0  0  0
 13 12  1  0  0  0  0
 14  5  2  0  0  0  0
 15 14  1  0  0  0  0
 16 26  1  6  0  0  0
 16 38  1  0  0  0  0
 16  1  1  0  0  0  0
 17 26  1  0  0  0  0
 17  4  1  0  0  0  0
 18 17  2  0  0  0  0
 19 18  1  0  0  0  0
 20 22  2  0  0  0  0
 20 18  1  0  0  0  0
 21 20  1  0  0  0  0
 22 24  1  0  0  0  0
 23 22  1  0  0  0  0
 24 25  1  0  0  0  0
 24 26  2  0  0  0  0
 27 16  1  0  0  0  0
 27 28  1  0  0  0  0
 28 30  2  0  0  0  0
 28 29  1  0  0  0  0
 30 31  1  0  0  0  0
 32 33  1  0  0  0  0
 32 30  1  0  0  0  0
 34 32  2  0  0  0  0
 35 34  1  0  0  0  0
 36 34  1  0  0  0  0
 36 27  2  0  0  0  0
 37 36  1  0  0  0  0
 38 39  2  0  0  0  0
 39 44  1  0  0  0  0
 39 40  1  0  0  0  0
 40 41  1  0  0  0  0
 42 40  1  0  0  0  0
 43 40  1  0  0  0  0
 44 45  1  0  0  0  0
M  END
$$$$
