CSD_code = XUSGEY | q = 0 | S = 0 | Stoichiometry = C16H29ClN6Pd | MND = 4
 OpenBabel04212202123D

 53 57  0  0  1  0  0  0  0  0999 V2000
    2.0995    8.4064    3.3742 Pd  0  0  1  0  0  0  0  0  0  0  0  0
    4.0306    9.4328    2.9450 Cl  0  0  0  0  0  0  0  0  0  0  0  0
    2.4935    6.8183    1.8266 N   0  0  2  0  0  0  0  0  0  0  0  0
    0.6415    7.0725    0.4725 N   0  0  1  0  0  0  0  0  0  0  0  0
    2.0077    5.1798    0.2245 N   0  0  1  0  0  0  0  0  0  0  0  0
   -0.9529    8.0818    1.9832 N   0  0  1  0  0  0  0  0  0  0  0  0
    0.3207    7.2864    3.7387 N   0  0  2  0  0  0  0  0  0  0  0  0
   -2.0075    7.1190    3.8440 N   0  0  2  0  0  0  0  0  0  0  0  0
    1.7572    6.3630    0.8761 C   0  0  2  0  0  3  0  0  0  0  0  0
   -0.2370    6.5143   -0.5282 C   0  0  0  0  0  0  0  0  0  0  0  0
   -0.8665    7.3173   -0.9185 H   0  0  0  0  0  0  0  0  0  0  0  0
   -0.8928    5.7394   -0.1025 H   0  0  0  0  0  0  0  0  0  0  0  0
    0.6084    5.9125   -1.6405 C   0  0  0  0  0  0  0  0  0  0  0  0
   -0.0141    5.5428   -2.4546 H   0  0  0  0  0  0  0  0  0  0  0  0
    1.2799    6.6797   -2.0290 H   0  0  0  0  0  0  0  0  0  0  0  0
    1.4099    4.7782   -1.0292 C   0  0  0  0  0  0  0  0  0  0  0  0
    0.7578    3.9077   -0.8569 H   0  0  0  0  0  0  0  0  0  0  0  0
    2.2077    4.4636   -1.7142 H   0  0  0  0  0  0  0  0  0  0  0  0
    3.0995    4.3242    0.6475 C   0  0  0  0  0  0  0  0  0  0  0  0
    3.9772    4.4901    0.0050 H   0  0  0  0  0  0  0  0  0  0  0  0
    2.7789    3.2831    0.5147 H   0  0  0  0  0  0  0  0  0  0  0  0
    3.4631    4.5918    2.0983 C   0  0  0  0  0  0  0  0  0  0  0  0
    4.3571    4.0331    2.3729 H   0  0  0  0  0  0  0  0  0  0  0  0
    2.6407    4.2839    2.7483 H   0  0  0  0  0  0  0  0  0  0  0  0
    3.6785    6.0936    2.2426 C   0  0  0  0  0  0  0  0  0  0  0  0
    3.8871    6.3697    3.2873 H   0  0  0  0  0  0  0  0  0  0  0  0
    4.5340    6.4192    1.6355 H   0  0  0  0  0  0  0  0  0  0  0  0
    0.2063    8.2797    1.1296 C   0  0  0  0  0  0  0  0  0  0  0  0
   -0.0737    9.0153    0.3683 H   0  0  0  0  0  0  0  0  0  0  0  0
    1.0574    8.6832    1.7398 H   0  0  0  0  0  0  0  0  0  0  0  0
   -0.8458    7.5017    3.2238 C   0  0  2  0  0  3  0  0  0  0  0  0
   -2.2534    8.5098    1.5207 C   0  0  0  0  0  0  0  0  0  0  0  0
   -2.1884    8.7624    0.4620 H   0  0  0  0  0  0  0  0  0  0  0  0
   -2.5748    9.4092    2.0647 H   0  0  0  0  0  0  0  0  0  0  0  0
   -3.2565    7.3888    1.7535 C   0  0  0  0  0  0  0  0  0  0  0  0
   -4.2401    7.6474    1.3633 H   0  0  0  0  0  0  0  0  0  0  0  0
   -2.9077    6.4831    1.2549 H   0  0  0  0  0  0  0  0  0  0  0  0
   -3.3267    7.1718    3.2542 C   0  0  0  0  0  0  0  0  0  0  0  0
   -3.9021    7.9876    3.7185 H   0  0  0  0  0  0  0  0  0  0  0  0
   -3.8434    6.2311    3.4856 H   0  0  0  0  0  0  0  0  0  0  0  0
   -2.0315    6.7323    5.2435 C   0  0  0  0  0  0  0  0  0  0  0  0
   -2.2725    5.6609    5.3089 H   0  0  0  0  0  0  0  0  0  0  0  0
   -2.8404    7.2842    5.7403 H   0  0  0  0  0  0  0  0  0  0  0  0
   -0.7039    7.0096    5.9288 C   0  0  0  0  0  0  0  0  0  0  0  0
   -0.6584    6.4879    6.8840 H   0  0  0  0  0  0  0  0  0  0  0  0
   -0.5846    8.0795    6.1053 H   0  0  0  0  0  0  0  0  0  0  0  0
    0.3989    6.5489    4.9815 C   0  0  0  0  0  0  0  0  0  0  0  0
    1.3930    6.7165    5.4125 H   0  0  0  0  0  0  0  0  0  0  0  0
    0.2861    5.4734    4.7779 H   0  0  0  0  0  0  0  0  0  0  0  0
    1.6730    9.8001    4.8089 C   0  0  0  0  0  0  0  0  0  0  0  0
    2.1640   10.7562    4.6061 H   0  0  0  0  0  0  0  0  0  0  0  0
    2.0172    9.4371    5.7881 H   0  0  0  0  0  0  0  0  0  0  0  0
    0.5852    9.9627    4.8428 H   0  0  0  0  0  0  0  0  0  0  0  0
  1  7  1  0  0  0  0
  1 50  1  0  0  0  0
  2  1  1  0  0  0  0
  3 25  1  1  0  0  0
  3  1  1  0  0  0  0
  4 10  1  1  0  0  0
  4  9  1  0  0  0  0
  4 28  1  0  0  0  0
  5 16  1  6  0  0  0
  5 19  1  0  0  0  0
  5  9  1  0  0  0  0
  6 28  1  1  0  0  0
  6 31  1  0  0  0  0
  7 47  1  1  0  0  0
  8 38  1  1  0  0  0
  8 41  1  0  0  0  0
  9  3  1  0  0  0  0
 10 12  1  0  0  0  0
 11 10  1  0  0  0  0
 13 16  1  0  0  0  0
 13 10  1  0  0  0  0
 14 13  1  0  0  0  0
 15 13  1  0  0  0  0
 16 17  1  0  0  0  0
 18 16  1  0  0  0  0
 19 22  1  0  0  0  0
 20 19  1  0  0  0  0
 21 19  1  0  0  0  0
 22 25  1  0  0  0  0
 22 23  1  0  0  0  0
 22 24  1  0  0  0  0
 25 26  1  0  0  0  0
 27 25  1  0  0  0  0
 28 30  1  0  0  0  0
 29 28  1  0  0  0  0
 31  7  1  0  0  0  0
 31  8  1  0  0  0  0
 32 35  1  0  0  0  0
 32  6  1  0  0  0  0
 32 34  1  0  0  0  0
 33 32  1  0  0  0  0
 35 38  1  0  0  0  0
 36 35  1  0  0  0  0
 37 35  1  0  0  0  0
 38 40  1  0  0  0  0
 38 39  1  0  0  0  0
 41 42  1  0  0  0  0
 41 43  1  0  0  0  0
 41 44  1  0  0  0  0
 44 46  1  0  0  0  0
 44 45  1  0  0  0  0
 47 48  1  0  0  0  0
 47 44  1  0  0  0  0
 49 47  1  0  0  0  0
 50 53  1  0  0  0  0
 50 52  1  0  0  0  0
 51 50  1  0  0  0  0
M  END
$$$$
