CSD_code = XUSKOL | q = 0 | S = 0 | Stoichiometry = C10H20Cl3O2Ta | MND = 7
 OpenBabel04212202123D

 36 31  0  0  0  0  0  0  0  0999 V2000
    1.1548    3.3596    2.9385 Ta  0  0  0  0  0  0  0  0  0  0  0  0
    1.0756    4.1840    5.0832 Cl  0  0  0  0  0 15  0  0  0  0  0  0
    3.4775    3.0702    2.9584 Cl  0  0  0  0  0 15  0  0  0  0  0  0
    0.7588    1.6498    1.4998 Cl  0  0  0  0  0 15  0  0  0  0  0  0
    1.3218    1.1450    4.5907 O   0  0  0  0  0  0  0  0  0  0  0  0
   -1.2578    2.4003    3.8234 O   0  0  0  0  0  0  0  0  0  0  0  0
    2.1736    6.0520    0.9979 C   0  0  0  0  0  0  0  0  0  0  0  0
    1.2538    5.1195    1.6941 C   0  0  0  0  0  3  0  0  0  0  0  0
    0.0057    4.9071    2.0002 C   0  0  0  0  0  0  0  0  0  0  0  0
   -1.3229    5.5269    1.7254 C   0  0  0  0  0  0  0  0  0  0  0  0
   -1.2809    6.6263    0.6658 C   0  0  0  0  0  0  0  0  0  0  0  0
    3.0963    6.7215    2.0199 C   0  0  0  0  0  0  0  0  0  0  0  0
    2.4370    1.0052    5.4478 C   0  0  0  0  0  0  0  0  0  0  0  0
    0.0931    0.9134    5.2523 C   0  0  0  0  0  0  0  0  0  0  0  0
   -1.0440    1.0663    4.2396 C   0  0  0  0  0  0  0  0  0  0  0  0
   -2.0296    3.1763    4.7198 C   0  0  0  0  0  0  0  0  0  0  0  0
   -2.0099    4.7351    1.4122 H   0  0  0  0  0  0  0  0  0  0  0  0
   -1.7069    5.9408    2.6639 H   0  0  0  0  0  0  0  0  0  0  0  0
   -0.6590    7.4517    1.0016 H   0  0  0  0  0  0  0  0  0  0  0  0
   -0.8748    6.2363   -0.2639 H   0  0  0  0  0  0  0  0  0  0  0  0
   -2.2836    7.0040    0.4765 H   0  0  0  0  0  0  0  0  0  0  0  0
    2.7818    5.4798    0.2920 H   0  0  0  0  0  0  0  0  0  0  0  0
    1.6125    6.8068    0.4416 H   0  0  0  0  0  0  0  0  0  0  0  0
    3.6477    5.9612    2.5686 H   0  0  0  0  0  0  0  0  0  0  0  0
    3.8030    7.3802    1.5211 H   0  0  0  0  0  0  0  0  0  0  0  0
    2.5125    7.3044    2.7290 H   0  0  0  0  0  0  0  0  0  0  0  0
    2.4835   -0.0104    5.8551 H   0  0  0  0  0  0  0  0  0  0  0  0
    3.3202    1.2011    4.8424 H   0  0  0  0  0  0  0  0  0  0  0  0
    2.3918    1.7286    6.2697 H   0  0  0  0  0  0  0  0  0  0  0  0
    0.0808   -0.1083    5.6590 H   0  0  0  0  0  0  0  0  0  0  0  0
   -0.0238    1.6270    6.0809 H   0  0  0  0  0  0  0  0  0  0  0  0
   -1.9692    0.6506    4.6574 H   0  0  0  0  0  0  0  0  0  0  0  0
   -0.7702    0.5232    3.3310 H   0  0  0  0  0  0  0  0  0  0  0  0
   -1.5091    3.3496    5.6653 H   0  0  0  0  0  0  0  0  0  0  0  0
   -2.1889    4.1327    4.2278 H   0  0  0  0  0  0  0  0  0  0  0  0
   -2.9931    2.6918    4.9112 H   0  0  0  0  0  0  0  0  0  0  0  0
  5 14  1  0  0  0  0
  5 13  1  0  0  0  0
  6 15  1  0  0  0  0
  6 16  1  0  0  0  0
  7  8  1  0  0  0  0
  7 12  1  0  0  0  0
  8  9  2  0  0  0  0
  9  1  1  0  0  0  0
 10  9  1  0  0  0  0
 10 18  1  0  0  0  0
 11 19  1  0  0  0  0
 11 10  1  0  0  0  0
 12 24  1  0  0  0  0
 12 26  1  0  0  0  0
 13 27  1  0  0  0  0
 13 29  1  0  0  0  0
 14 30  1  0  0  0  0
 14 31  1  0  0  0  0
 15 32  1  0  0  0  0
 15 14  1  0  0  0  0
 16 36  1  0  0  0  0
 16 34  1  0  0  0  0
 17 10  1  0  0  0  0
 20 11  1  0  0  0  0
 21 11  1  0  0  0  0
 22  7  1  0  0  0  0
 23  7  1  0  0  0  0
 25 12  1  0  0  0  0
 28 13  1  0  0  0  0
 33 15  1  0  0  0  0
 35 16  1  0  0  0  0
M  END
$$$$
