CSD_code = XUSKUR | q = 0 | S = 0 | Stoichiometry = C13H18Cl3O2Ta | MND = 7
 OpenBabel04212202123D

 37 33  0  0  0  0  0  0  0  0999 V2000
    0.1532    1.2849    3.5024 Ta  0  0  0  0  0  0  0  0  0  0  0  0
    1.9741    0.4475    2.3852 Cl  0  0  0  0  0 15  0  0  0  0  0  0
   -0.1477   -0.5713    4.8735 Cl  0  0  0  0  0 15  0  0  0  0  0  0
   -0.6835    2.8022    4.9775 Cl  0  0  0  0  0 15  0  0  0  0  0  0
    2.1517    1.5794    5.3299 O   0  0  0  0  0  0  0  0  0  0  0  0
    1.8498    3.4462    3.0673 O   0  0  0  0  0  0  0  0  0  0  0  0
   -2.5960   -0.1387    1.8441 C   0  0  0  0  0  0  0  0  0  0  0  0
   -1.4743    0.7628    2.1934 C   0  0  0  0  0  3  0  0  0  0  0  0
   -1.0002    1.9284    1.8192 C   0  0  0  0  0  0  0  0  0  0  0  0
   -1.3535    2.9123    0.8188 C   0  0  0  0  0  0  0  0  0  0  0  0
   -1.6479    2.5415   -0.4950 C   0  0  0  0  0  0  0  0  0  0  0  0
   -1.9678    3.5036   -1.4343 C   0  0  0  0  0  0  0  0  0  0  0  0
   -2.0087    4.8424   -1.0791 C   0  0  0  0  0  0  0  0  0  0  0  0
   -1.7208    5.2199    0.2235 C   0  0  0  0  0  0  0  0  0  0  0  0
   -1.3852    4.2661    1.1650 C   0  0  0  0  0  0  0  0  0  0  0  0
    3.1353    0.5721    5.4740 C   0  0  0  0  0  0  0  0  0  0  0  0
    2.6580    2.8967    5.2489 C   0  0  0  0  0  0  0  0  0  0  0  0
    3.0391    3.2973    3.8226 C   0  0  0  0  0  0  0  0  0  0  0  0
    2.1082    3.7882    1.7199 C   0  0  0  0  0  0  0  0  0  0  0  0
   -1.6104    1.4975   -0.7678 H   0  0  0  0  0  0  0  0  0  0  0  0
   -2.1925    3.2086   -2.4491 H   0  0  0  0  0  0  0  0  0  0  0  0
   -2.2650    5.5898   -1.8152 H   0  0  0  0  0  0  0  0  0  0  0  0
   -1.7548    6.2631    0.5023 H   0  0  0  0  0  0  0  0  0  0  0  0
   -1.1631    4.5450    2.1863 H   0  0  0  0  0  0  0  0  0  0  0  0
   -3.3178    0.3687    1.2038 H   0  0  0  0  0  0  0  0  0  0  0  0
   -2.2102   -1.0152    1.3229 H   0  0  0  0  0  0  0  0  0  0  0  0
   -3.0908   -0.4837    2.7508 H   0  0  0  0  0  0  0  0  0  0  0  0
    2.5928   -0.3687    5.5574 H   0  0  0  0  0  0  0  0  0  0  0  0
    3.8025    0.5242    4.6082 H   0  0  0  0  0  0  0  0  0  0  0  0
    3.7218    0.7400    6.3832 H   0  0  0  0  0  0  0  0  0  0  0  0
    3.5198    3.0129    5.9161 H   0  0  0  0  0  0  0  0  0  0  0  0
    1.8420    3.5459    5.5798 H   0  0  0  0  0  0  0  0  0  0  0  0
    3.6783    2.5306    3.3620 H   0  0  0  0  0  0  0  0  0  0  0  0
    3.5842    4.2519    3.8428 H   0  0  0  0  0  0  0  0  0  0  0  0
    2.6884    4.7157    1.6656 H   0  0  0  0  0  0  0  0  0  0  0  0
    2.6531    2.9853    1.2124 H   0  0  0  0  0  0  0  0  0  0  0  0
    1.1410    3.9292    1.2429 H   0  0  0  0  0  0  0  0  0  0  0  0
  5 16  1  0  0  0  0
  6 18  1  0  0  0  0
  7  8  1  0  0  0  0
  7 27  1  0  0  0  0
  9  8  2  0  0  0  0
  9  1  1  0  0  0  0
 10 15  1  0  0  0  0
 10  9  1  0  0  0  0
 11 10  2  0  0  0  0
 12 13  2  0  0  0  0
 12 11  1  0  0  0  0
 13 14  1  0  0  0  0
 14 23  1  0  0  0  0
 14 15  2  0  0  0  0
 15 24  1  0  0  0  0
 16 28  1  0  0  0  0
 16 30  1  0  0  0  0
 17  5  1  0  0  0  0
 17 32  1  0  0  0  0
 17 31  1  0  0  0  0
 18 34  1  0  0  0  0
 18 17  1  0  0  0  0
 19  6  1  0  0  0  0
 20 11  1  0  0  0  0
 21 12  1  0  0  0  0
 22 13  1  0  0  0  0
 25  7  1  0  0  0  0
 26  7  1  0  0  0  0
 29 16  1  0  0  0  0
 33 18  1  0  0  0  0
 35 19  1  0  0  0  0
 36 19  1  0  0  0  0
 37 19  1  0  0  0  0
M  END
$$$$
