CSD_code = XUSLAY | q = 0 | S = 0 | Stoichiometry = C16H20Cl3N2Ta | MND = 7
 OpenBabel04212202123D

 42 38  0  0  0  0  0  0  0  0999 V2000
   -0.1060    0.3033    6.3402 Ta  0  0  0  0  0  0  0  0  0  0  0  0
   -1.4917   -0.9528    7.6912 Cl  0  0  0  0  0 15  0  0  0  0  0  0
    1.4005    0.7275    8.1087 Cl  0  0  0  0  0 15  0  0  0  0  0  0
    1.5691    0.8043    4.8093 Cl  0  0  0  0  0 15  0  0  0  0  0  0
    1.2063   -1.9185    6.3690 N   0  0  0  0  0  0  0  0  0  0  0  0
   -1.2485   -0.7149    4.5715 N   0  0  0  0  0  0  0  0  0  0  0  0
   -0.8776    3.3547    7.7607 C   0  0  0  0  0  0  0  0  0  0  0  0
   -0.9395    2.2965    6.7293 C   0  0  0  0  0  0  0  0  0  0  0  0
   -1.4671    1.8832    5.6381 C   0  0  0  0  0  3  0  0  0  0  0  0
   -2.4123    2.2722    4.5624 C   0  0  0  0  0  0  0  0  0  0  0  0
   -3.0264    3.6505    4.8047 C   0  0  0  0  0  0  0  0  0  0  0  0
   -1.5085    2.8488    9.0602 C   0  0  0  0  0  0  0  0  0  0  0  0
    0.5976   -3.0975    6.3437 C   0  0  0  0  0  0  0  0  0  0  0  0
    1.2816   -4.2962    6.4508 C   0  0  0  0  0  0  0  0  0  0  0  0
    2.6604   -4.2639    6.5949 C   0  0  0  0  0  0  0  0  0  0  0  0
    3.2942   -3.0326    6.6210 C   0  0  0  0  0  0  0  0  0  0  0  0
    2.5252   -1.8857    6.5041 C   0  0  0  0  0  0  0  0  0  0  0  0
   -2.4965   -1.1650    4.7257 C   0  0  0  0  0  0  0  0  0  0  0  0
   -3.1930   -1.8280    3.7338 C   0  0  0  0  0  0  0  0  0  0  0  0
   -2.5805   -2.0431    2.5071 C   0  0  0  0  0  0  0  0  0  0  0  0
   -1.2847   -1.5762    2.3411 C   0  0  0  0  0  0  0  0  0  0  0  0
   -0.6642   -0.9241    3.3901 C   0  0  0  0  0  0  0  0  0  0  0  0
   -1.8743    2.2645    3.6086 H   0  0  0  0  0  0  0  0  0  0  0  0
   -3.2046    1.5190    4.4950 H   0  0  0  0  0  0  0  0  0  0  0  0
   -2.2468    4.4071    4.8419 H   0  0  0  0  0  0  0  0  0  0  0  0
   -3.7185    3.9021    4.0038 H   0  0  0  0  0  0  0  0  0  0  0  0
   -3.5658    3.6612    5.7485 H   0  0  0  0  0  0  0  0  0  0  0  0
    0.1711    3.6003    7.9480 H   0  0  0  0  0  0  0  0  0  0  0  0
   -1.3943    4.2532    7.4098 H   0  0  0  0  0  0  0  0  0  0  0  0
   -2.5559    2.5985    8.9025 H   0  0  0  0  0  0  0  0  0  0  0  0
   -0.9858    1.9558    9.3967 H   0  0  0  0  0  0  0  0  0  0  0  0
   -1.4407    3.6084    9.8352 H   0  0  0  0  0  0  0  0  0  0  0  0
   -0.4801   -3.0739    6.2463 H   0  0  0  0  0  0  0  0  0  0  0  0
    0.7440   -5.2310    6.4281 H   0  0  0  0  0  0  0  0  0  0  0  0
    3.2261   -5.1792    6.6880 H   0  0  0  0  0  0  0  0  0  0  0  0
    4.3638   -2.9566    6.7346 H   0  0  0  0  0  0  0  0  0  0  0  0
    2.9770   -0.9035    6.5238 H   0  0  0  0  0  0  0  0  0  0  0  0
   -2.9411   -0.9823    5.6934 H   0  0  0  0  0  0  0  0  0  0  0  0
   -4.2001   -2.1659    3.9209 H   0  0  0  0  0  0  0  0  0  0  0  0
   -3.0965   -2.5537    1.7089 H   0  0  0  0  0  0  0  0  0  0  0  0
   -0.7583   -1.7125    1.4097 H   0  0  0  0  0  0  0  0  0  0  0  0
    0.3393   -0.5358    3.2930 H   0  0  0  0  0  0  0  0  0  0  0  0
  1  8  1  0  0  0  0
  5 17  1  0  0  0  0
  6 18  1  0  0  0  0
  7 28  1  0  0  0  0
  7 12  1  0  0  0  0
  8  7  1  0  0  0  0
  9  8  2  0  0  0  0
 10 11  1  0  0  0  0
 10  9  1  0  0  0  0
 11 25  1  0  0  0  0
 11 27  1  0  0  0  0
 12 31  1  0  0  0  0
 12 32  1  0  0  0  0
 13  5  2  0  0  0  0
 13 14  1  0  0  0  0
 14 15  2  0  0  0  0
 15 16  1  0  0  0  0
 15 35  1  0  0  0  0
 16 36  1  0  0  0  0
 17 37  1  0  0  0  0
 17 16  2  0  0  0  0
 18 38  1  0  0  0  0
 19 39  1  0  0  0  0
 19 18  2  0  0  0  0
 20 19  1  0  0  0  0
 21 20  2  0  0  0  0
 21 22  1  0  0  0  0
 22  6  2  0  0  0  0
 23 10  1  0  0  0  0
 24 10  1  0  0  0  0
 26 11  1  0  0  0  0
 29  7  1  0  0  0  0
 30 12  1  0  0  0  0
 33 13  1  0  0  0  0
 34 14  1  0  0  0  0
 40 20  1  0  0  0  0
 41 21  1  0  0  0  0
 42 22  1  0  0  0  0
M  END
$$$$
