CSD_code = XUSYUH | q = 0 | S = 0 | Stoichiometry = C24H17ClN2OPd | MND = 4
 OpenBabel04212202123D

 46 52  0  0  1  0  0  0  0  0999 V2000
    4.1093    3.3985   14.8672 Pd  0  0  1  0  0  0  0  0  0  0  0  0
    2.1304    2.6152   15.4997 Cl  0  0  0  0  0  0  0  0  0  0  0  0
    5.7032    6.4907   16.8937 O   0  0  0  0  0  0  0  0  0  0  0  0
    5.6565    4.3370   14.0519 N   0  0  0  0  0  0  0  0  0  0  0  0
    4.0339    5.2875   16.0069 N   0  0  2  0  0  0  0  0  0  0  0  0
    4.6284    1.6795   14.0205 C   0  0  0  0  0  0  0  0  0  0  0  0
    4.2696    0.4829   14.6038 C   0  0  0  0  0  0  0  0  0  0  0  0
    3.8115    0.4736   15.5859 H   0  0  0  0  0  0  0  0  0  0  0  0
    4.4278   -0.7368   13.9293 C   0  0  0  0  0  0  0  0  0  0  0  0
    4.1423   -1.6553   14.4210 H   0  0  0  0  0  0  0  0  0  0  0  0
    4.8648   -0.7478   12.6359 C   0  0  0  0  0  3  0  0  0  0  0  0
    4.9022   -1.6669   12.0689 H   0  0  0  0  0  0  0  0  0  0  0  0
    5.2709    0.4471   12.0078 C   0  0  0  0  0  0  0  0  0  0  0  0
    5.2507    1.6720   12.7431 C   0  0  0  0  0  0  0  0  0  0  0  0
    5.8792    2.8134   12.1435 C   0  0  0  0  0  0  0  0  0  0  0  0
    6.2174    2.7631   10.8007 C   0  0  0  0  0  0  0  0  0  0  0  0
    6.5907    3.6453   10.3029 H   0  0  0  0  0  0  0  0  0  0  0  0
    6.0791    1.5970   10.0486 C   0  0  0  0  0  0  0  0  0  0  0  0
    6.3355    1.6081    8.9997 H   0  0  0  0  0  0  0  0  0  0  0  0
    5.6798    0.4412   10.6607 C   0  0  0  0  0  0  0  0  0  0  0  0
    5.6550   -0.4918   10.1163 H   0  0  0  0  0  0  0  0  0  0  0  0
    6.2805    4.0008   12.9107 C   0  0  0  0  0  0  0  0  0  0  0  0
    7.3773    4.7622   12.4771 C   0  0  0  0  0  0  0  0  0  0  0  0
    7.9425    4.4425   11.6178 H   0  0  0  0  0  0  0  0  0  0  0  0
    7.7730    5.8972   13.1591 C   0  0  0  0  0  0  0  0  0  0  0  0
    8.6228    6.4703   12.8225 H   0  0  0  0  0  0  0  0  0  0  0  0
    7.0570    6.2854   14.2800 C   0  0  0  0  0  0  0  0  0  0  0  0
    7.2943    7.1751   14.8397 H   0  0  0  0  0  0  0  0  0  0  0  0
    6.0109    5.4744   14.6896 C   0  0  0  0  0  0  0  0  0  0  0  0
    5.2102    5.7701   15.8676 C   0  0  2  0  0  3  0  0  0  0  0  0
    4.7295    6.4192   17.9379 C   0  0  0  0  0  0  0  0  0  0  0  0
    4.3702    7.4297   18.1489 H   0  0  0  0  0  0  0  0  0  0  0  0
    5.2075    6.0066   18.8302 H   0  0  0  0  0  0  0  0  0  0  0  0
    3.6157    5.4924   17.3769 C   0  0  2  0  0  0  0  0  0  0  0  0
    2.6273    5.9595   17.4083 H   0  0  0  0  0  0  0  0  0  0  0  0
    3.5557    4.1196   18.0206 C   0  0  0  0  0  0  0  0  0  0  0  0
    4.5886    3.2042   17.7983 C   0  0  0  0  0  0  0  0  0  0  0  0
    5.5052    3.5005   17.2827 H   0  0  0  0  0  0  0  0  0  0  0  0
    4.4923    1.9166   18.3030 C   0  0  0  0  0  0  0  0  0  0  0  0
    5.2923    1.2128   18.1238 H   0  0  0  0  0  0  0  0  0  0  0  0
    3.3733    1.5343   19.0239 C   0  0  0  0  0  0  0  0  0  0  0  0
    3.2913    0.5245   19.3968 H   0  0  0  0  0  0  0  0  0  0  0  0
    2.3591    2.4450   19.2593 C   0  0  0  0  0  0  0  0  0  0  0  0
    1.4850    2.1495   19.8193 H   0  0  0  0  0  0  0  0  0  0  0  0
    2.4467    3.7309   18.7552 C   0  0  0  0  0  0  0  0  0  0  0  0
    1.6389    4.4296   18.9151 H   0  0  0  0  0  0  0  0  0  0  0  0
  1  2  1  6  0  0  0
  1  5  1  0  0  0  0
  3 31  1  0  0  0  0
  4 29  1  0  0  0  0
  4  1  1  0  0  0  0
  5 34  1  0  0  0  0
  6  7  1  0  0  0  0
  6  1  1  0  0  0  0
  7  8  1  0  0  0  0
  9 10  1  0  0  0  0
  9  7  2  0  0  0  0
 11  9  1  0  0  0  0
 12 11  1  0  0  0  0
 13 11  1  0  0  0  0
 13 14  1  0  0  0  0
 14  6  2  0  0  0  0
 15 14  1  0  0  0  0
 15 22  2  0  0  0  0
 16 15  1  0  0  0  0
 17 16  1  0  0  0  0
 18 20  1  0  0  0  0
 18 16  2  0  0  0  0
 19 18  1  0  0  0  0
 20 13  2  0  0  0  0
 21 20  1  0  0  0  0
 22  4  1  0  0  0  0
 23 22  1  0  0  0  0
 23 25  2  0  0  0  0
 24 23  1  0  0  0  0
 25 27  1  0  0  0  0
 26 25  1  0  0  0  0
 27 29  2  0  0  0  0
 27 28  1  0  0  0  0
 29 30  1  0  0  0  0
 30  5  1  0  0  0  0
 30  3  1  0  0  0  0
 31 32  1  0  0  0  0
 31 33  1  0  0  0  0
 34 35  1  0  0  0  0
 34 31  1  0  0  0  0
 34 36  1  0  0  0  0
 36 45  1  0  0  0  0
 37 36  2  0  0  0  0
 37 39  1  0  0  0  0
 38 37  1  0  0  0  0
 39 41  2  0  0  0  0
 40 39  1  0  0  0  0
 41 43  1  0  0  0  0
 41 42  1  0  0  0  0
 43 44  1  0  0  0  0
 45 46  1  0  0  0  0
 45 43  2  0  0  0  0
M  END
$$$$
