CSD_code = XUSYER | q = 0 | S = 0 | Stoichiometry = C20H15ClN2OPd | MND = 4
 OpenBabel04212202123D

 40 45  0  0  1  0  0  0  0  0999 V2000
    3.3957    7.3778    5.3776 Pd  0  0  1  0  0  0  0  0  0  0  0  0
    2.2216    7.7453    3.5644 Cl  0  0  0  0  0  0  0  0  0  0  0  0
    6.7771    9.6097    6.2412 O   0  0  0  0  0  0  0  0  0  0  0  0
    4.4913    6.9858    6.9192 N   0  0  0  0  0  0  0  0  0  0  0  0
    5.2559    8.5773    4.9641 N   0  0  0  0  0  0  0  0  0  0  0  0
    2.1475    6.1114    6.2885 C   0  0  0  0  0  0  0  0  0  0  0  0
    0.8777    5.6883    5.9171 C   0  0  0  0  0  3  0  0  0  0  0  0
    0.4207    6.0859    5.0203 H   0  0  0  0  0  0  0  0  0  0  0  0
    0.1916    4.7562    6.6835 C   0  0  0  0  0  0  0  0  0  0  0  0
   -0.7947    4.4367    6.3793 H   0  0  0  0  0  0  0  0  0  0  0  0
    0.7613    4.2282    7.8324 C   0  0  0  0  0  0  0  0  0  0  0  0
    0.2200    3.5013    8.4204 H   0  0  0  0  0  0  0  0  0  0  0  0
    2.0222    4.6300    8.2259 C   0  0  0  0  0  0  0  0  0  0  0  0
    2.4631    4.2163    9.1215 H   0  0  0  0  0  0  0  0  0  0  0  0
    2.7229    5.5670    7.4661 C   0  0  0  0  0  0  0  0  0  0  0  0
    4.0509    6.0667    7.8006 C   0  0  0  0  0  0  0  0  0  0  0  0
    4.8519    5.7146    8.8869 C   0  0  0  0  0  0  0  0  0  0  0  0
    4.5089    4.9765    9.5936 H   0  0  0  0  0  0  0  0  0  0  0  0
    6.0892    6.3187    9.0558 C   0  0  0  0  0  0  0  0  0  0  0  0
    6.7119    6.0521    9.8959 H   0  0  0  0  0  0  0  0  0  0  0  0
    6.5241    7.2691    8.1427 C   0  0  0  0  0  0  0  0  0  0  0  0
    7.4764    7.7639    8.2411 H   0  0  0  0  0  0  0  0  0  0  0  0
    5.6899    7.5724    7.0746 C   0  0  0  0  0  0  0  0  0  0  0  0
    5.9381    8.5770    6.0504 C   0  0  0  0  0  0  0  0  0  0  0  0
    6.5761   10.5048    5.1445 C   0  0  0  0  0  0  0  0  0  0  0  0
    7.5253   10.6293    4.6186 H   0  0  0  0  0  0  0  0  0  0  0  0
    6.2482   11.4699    5.5412 H   0  0  0  0  0  0  0  0  0  0  0  0
    5.4859    9.8218    4.2683 C   0  0  2  0  0  0  0  0  0  0  0  0
    5.8439    9.6206    3.2530 H   0  0  0  0  0  0  0  0  0  0  0  0
    4.1733   10.5768    4.1932 C   0  0  0  0  0  0  0  0  0  0  0  0
    3.2516   10.5016    5.2372 C   0  0  0  0  0  0  0  0  0  0  0  0
    3.4812    9.9606    6.1602 H   0  0  0  0  0  0  0  0  0  0  0  0
    2.0316   11.1497    5.1323 C   0  0  0  0  0  0  0  0  0  0  0  0
    1.3179   11.0752    5.9391 H   0  0  0  0  0  0  0  0  0  0  0  0
    1.7247   11.8773    3.9956 C   0  0  0  0  0  0  0  0  0  0  0  0
    0.7676   12.3692    3.9116 H   0  0  0  0  0  0  0  0  0  0  0  0
    2.6433   11.9653    2.9643 C   0  0  0  0  0  0  0  0  0  0  0  0
    2.4071   12.5288    2.0742 H   0  0  0  0  0  0  0  0  0  0  0  0
    3.8596   11.3133    3.0603 C   0  0  0  0  0  0  0  0  0  0  0  0
    4.5659   11.3646    2.2442 H   0  0  0  0  0  0  0  0  0  0  0  0
  1  2  1  6  0  0  0
  1  6  2  0  0  0  0
  1  4  1  0  0  0  0
  4 23  1  0  0  0  0
  4 16  1  0  0  0  0
  5  1  1  0  0  0  0
  5 24  1  0  0  0  0
  6 15  1  0  0  0  0
  7  6  1  0  0  0  0
  7  9  1  0  0  0  0
  8  7  1  0  0  0  0
  9 11  2  0  0  0  0
 10  9  1  0  0  0  0
 11 13  1  0  0  0  0
 11 12  1  0  0  0  0
 13 14  1  0  0  0  0
 15 16  1  0  0  0  0
 15 13  2  0  0  0  0
 16 17  2  0  0  0  0
 17 19  1  0  0  0  0
 17 18  1  0  0  0  0
 19 20  1  0  0  0  0
 21 22  1  0  0  0  0
 21 19  2  0  0  0  0
 23 21  1  0  0  0  0
 24  3  1  0  0  0  0
 24 23  2  0  0  0  0
 25 27  1  0  0  0  0
 25  3  1  0  0  0  0
 26 25  1  0  0  0  0
 28 29  1  6  0  0  0
 28  5  1  0  0  0  0
 28 25  1  0  0  0  0
 30 28  1  0  0  0  0
 30 31  1  0  0  0  0
 31 32  1  0  0  0  0
 33 31  2  0  0  0  0
 33 34  1  0  0  0  0
 35 33  1  0  0  0  0
 36 35  1  0  0  0  0
 37 39  1  0  0  0  0
 37 35  2  0  0  0  0
 38 37  1  0  0  0  0
 39 30  2  0  0  0  0
 40 39  1  0  0  0  0
M  END
$$$$
