CSD_code = XUSYIV | q = 0 | S = 0 | Stoichiometry = C21H17ClN2OPd | MND = 4
 OpenBabel04212202123D

 43 48  0  0  1  0  0  0  0  0999 V2000
    3.0222   11.2665    2.2753 Pd  0  0  2  0  0  0  0  0  0  0  0  0
    3.6439   11.0166    4.3557 Cl  0  0  0  0  0  0  0  0  0  0  0  0
    2.9328    7.9420   -0.2663 O   0  0  0  0  0  0  0  0  0  0  0  0
    2.4819   11.4294    0.4422 N   0  0  0  0  0  0  0  0  0  0  0  0
    3.3525    9.1931    1.5393 N   0  0  0  0  0  0  0  0  0  0  0  0
    2.5537   13.2103    2.3013 C   0  0  0  0  0  0  0  0  0  0  0  0
    2.6082   14.1336    3.3385 C   0  0  0  0  0  0  0  0  0  0  0  0
    2.9355   13.8202    4.3216 H   0  0  0  0  0  0  0  0  0  0  0  0
    2.2459   15.4573    3.1278 C   0  0  0  0  0  0  0  0  0  0  0  0
    2.2944   16.1611    3.9462 H   0  0  0  0  0  0  0  0  0  0  0  0
    1.8236   15.8842    1.8782 C   0  0  0  0  0  0  0  0  0  0  0  0
    1.5446   16.9163    1.7245 H   0  0  0  0  0  0  0  0  0  0  0  0
    1.7586   14.9899    0.8275 C   0  0  0  0  0  0  0  0  0  0  0  0
    1.4293   15.3266   -0.1449 H   0  0  0  0  0  0  0  0  0  0  0  0
    2.1185   13.6574    1.0247 C   0  0  2  0  0  3  0  0  0  0  0  0
    2.0798   12.6323   -0.0128 C   0  0  0  0  0  0  0  0  0  0  0  0
    1.6837   12.7674   -1.3427 C   0  0  0  0  0  0  0  0  0  0  0  0
    1.3619   13.7259   -1.7162 H   0  0  0  0  0  0  0  0  0  0  0  0
    1.7035   11.6624   -2.1827 C   0  0  0  0  0  0  0  0  0  0  0  0
    1.3968   11.7606   -3.2126 H   0  0  0  0  0  0  0  0  0  0  0  0
    2.1160   10.4310   -1.6957 C   0  0  0  0  0  0  0  0  0  0  0  0
    2.1425    9.5493   -2.3148 H   0  0  0  0  0  0  0  0  0  0  0  0
    2.5038   10.3543   -0.3625 C   0  0  0  0  0  0  0  0  0  0  0  0
    2.9471    9.1486    0.3201 C   0  0  0  0  0  0  0  0  0  0  0  0
    3.3910    7.0045    0.7148 C   0  0  0  0  0  0  0  0  0  0  0  0
    4.2994    6.5283    0.3383 H   0  0  0  0  0  0  0  0  0  0  0  0
    2.6190    6.2444    0.8551 H   0  0  0  0  0  0  0  0  0  0  0  0
    3.6363    7.8500    1.9903 C   0  0  2  0  0  0  0  0  0  0  0  0
    4.6760    7.7924    2.3304 H   0  0  0  0  0  0  0  0  0  0  0  0
    2.7065    7.5134    3.1689 C   0  0  0  0  0  0  0  0  0  0  0  0
    2.8038    8.3292    3.8939 H   0  0  0  0  0  0  0  0  0  0  0  0
    1.6733    7.4875    2.8123 H   0  0  0  0  0  0  0  0  0  0  0  0
    3.0865    6.2065    3.7995 C   0  0  0  0  0  0  0  0  0  0  0  0
    4.1899    6.1405    4.6426 C   0  0  0  0  0  0  0  0  0  0  0  0
    4.7403    7.0431    4.8653 H   0  0  0  0  0  0  0  0  0  0  0  0
    2.3720    5.0459    3.5361 C   0  0  0  0  0  0  0  0  0  0  0  0
    1.5012    5.0835    2.8959 H   0  0  0  0  0  0  0  0  0  0  0  0
    4.5719    4.9376    5.2069 C   0  0  0  0  0  0  0  0  0  0  0  0
    5.4278    4.8995    5.8643 H   0  0  0  0  0  0  0  0  0  0  0  0
    3.8554    3.7835    4.9350 C   0  0  0  0  0  0  0  0  0  0  0  0
    4.1518    2.8440    5.3772 H   0  0  0  0  0  0  0  0  0  0  0  0
    2.7526    3.8408    4.1014 C   0  0  0  0  0  0  0  0  0  0  0  0
    2.1848    2.9460    3.8919 H   0  0  0  0  0  0  0  0  0  0  0  0
  1  6  2  0  0  0  0
  1  2  1  1  0  0  0
  3 24  1  0  0  0  0
  3 25  1  0  0  0  0
  4  1  1  0  0  0  0
  5 28  1  0  0  0  0
  5  1  1  0  0  0  0
  6  7  1  0  0  0  0
  7  8  1  0  0  0  0
  9  7  2  0  0  0  0
  9 10  1  0  0  0  0
 11  9  1  0  0  0  0
 12 11  1  0  0  0  0
 13 15  1  0  0  0  0
 13 11  2  0  0  0  0
 14 13  1  0  0  0  0
 15 16  1  1  0  0  0
 15  6  1  0  0  0  0
 16  4  1  0  0  0  0
 17 16  2  0  0  0  0
 18 17  1  0  0  0  0
 19 21  2  0  0  0  0
 19 17  1  0  0  0  0
 20 19  1  0  0  0  0
 21 23  1  0  0  0  0
 22 21  1  0  0  0  0
 23 24  2  0  0  0  0
 23  4  1  0  0  0  0
 24  5  1  0  0  0  0
 25 27  1  0  0  0  0
 25 28  1  0  0  0  0
 26 25  1  0  0  0  0
 28 29  1  1  0  0  0
 28 30  1  0  0  0  0
 30 33  1  0  0  0  0
 30 31  1  0  0  0  0
 32 30  1  0  0  0  0
 33 34  1  0  0  0  0
 34 35  1  0  0  0  0
 34 38  2  0  0  0  0
 36 33  2  0  0  0  0
 36 42  1  0  0  0  0
 37 36  1  0  0  0  0
 38 39  1  0  0  0  0
 40 38  1  0  0  0  0
 40 41  1  0  0  0  0
 42 40  2  0  0  0  0
 43 42  1  0  0  0  0
M  END
$$$$
