CSD_code = XUTSEK | q = 0 | S = 0 | Stoichiometry = C28H27ClNPPd | MND = 4
 OpenBabel04212202123D

 59 63  0  0  0  0  0  0  0  0999 V2000
    1.9975    1.5353    1.0313 Pd  0  0  1  0  0  0  0  0  0  0  0  0
    0.9859    3.4998    0.8452 P   0  0  0  0  0  4  0  0  0  0  0  0
    3.7111    2.4471   -0.2950 Cl  0  0  0  0  0  0  0  0  0  0  0  0
    3.0834   -0.1587    1.1894 N   0  0  0  0  0  0  0  0  0  0  0  0
    3.0028   -1.0756    2.0772 C   0  0  0  0  0  3  0  0  0  0  0  0
    2.1549   -0.9767    3.2395 C   0  0  0  0  0  0  0  0  0  0  0  0
    2.5061   -1.6603    4.4210 C   0  0  0  0  0  0  0  0  0  0  0  0
    3.6680   -2.6102    4.4644 C   0  0  0  0  0  0  0  0  0  0  0  0
    4.6023   -2.0938    4.2471 H   0  0  0  0  0  0  0  0  0  0  0  0
    3.5442   -3.4148    3.7400 H   0  0  0  0  0  0  0  0  0  0  0  0
    3.7498   -3.0555    5.4529 H   0  0  0  0  0  0  0  0  0  0  0  0
    1.7906   -1.4204    5.5768 C   0  0  0  0  0  0  0  0  0  0  0  0
    0.7291   -0.5145    5.6059 C   0  0  0  0  0  0  0  0  0  0  0  0
    0.0003   -0.2657    6.8899 C   0  0  0  0  0  0  0  0  0  0  0  0
   -0.8218    0.4302    6.7438 H   0  0  0  0  0  0  0  0  0  0  0  0
    0.6797    0.1479    7.6344 H   0  0  0  0  0  0  0  0  0  0  0  0
   -0.3973   -1.1991    7.2868 H   0  0  0  0  0  0  0  0  0  0  0  0
    0.3584    0.1153    4.4356 C   0  0  0  0  0  0  0  0  0  0  0  0
    1.0281   -0.1117    3.2292 C   0  0  0  0  0  0  0  0  0  0  0  0
    0.5123    0.4679    1.9909 C   0  0  0  0  0  0  0  0  0  0  0  0
   -0.4261    1.0025    2.1642 H   0  0  0  0  0  0  0  0  0  0  0  0
    0.3545   -0.3093    1.2209 H   0  0  0  0  0  0  0  0  0  0  0  0
    1.9081    4.8039    1.7081 C   0  0  0  0  0  0  0  0  0  0  0  0
    3.0641    4.4204    2.3820 C   0  0  0  0  0  0  0  0  0  0  0  0
    3.8035    5.3612    3.0756 C   0  0  0  0  0  0  0  0  0  0  0  0
    4.7051    5.0670    3.5923 H   0  0  0  0  0  0  0  0  0  0  0  0
    3.3870    6.6823    3.1055 C   0  0  0  0  0  0  0  0  0  0  0  0
    2.2179    7.0602    2.4636 C   0  0  0  0  0  0  0  0  0  0  0  0
    1.4708    6.1235    1.7732 C   0  0  0  0  0  0  0  0  0  0  0  0
    0.8856    3.8881   -0.9268 C   0  0  0  0  0  0  0  0  0  0  0  0
    1.0046    5.1455   -1.5011 C   0  0  0  0  0  0  0  0  0  0  0  0
   -0.8810    3.7010    2.8363 C   0  0  0  0  0  0  0  0  0  0  0  0
    0.9224    5.2791   -2.8774 C   0  0  0  0  0  0  0  0  0  0  0  0
    0.7209    4.1679   -3.6780 C   0  0  0  0  0  0  0  0  0  0  0  0
    0.6144    2.9079   -3.1080 C   0  0  0  0  0  0  0  0  0  0  0  0
    0.7026    2.7674   -1.7373 C   0  0  0  0  0  0  0  0  0  0  0  0
   -0.6960    3.8326    1.4617 C   0  0  0  0  0  0  0  0  0  0  0  0
   -1.7725    4.1618    0.6497 C   0  0  0  0  0  0  0  0  0  0  0  0
   -3.0198    4.3737    1.2133 C   0  0  0  0  0  0  0  0  0  0  0  0
   -3.8565    4.6340    0.5814 H   0  0  0  0  0  0  0  0  0  0  0  0
   -3.1976    4.2521    2.5809 C   0  0  0  0  0  0  0  0  0  0  0  0
   -2.1260    3.9133    3.3941 C   0  0  0  0  0  0  0  0  0  0  0  0
    3.7688   -0.2943    0.4431 H   0  0  0  0  0  0  0  0  0  0  0  0
    3.6489   -1.9531    2.0084 H   0  0  0  0  0  0  0  0  0  0  0  0
    2.0648   -1.9337    6.4875 H   0  0  0  0  0  0  0  0  0  0  0  0
   -0.4874    0.7894    4.4360 H   0  0  0  0  0  0  0  0  0  0  0  0
    3.3773    3.3730    2.3470 H   0  0  0  0  0  0  0  0  0  0  0  0
    3.9684    7.4198    3.6393 H   0  0  0  0  0  0  0  0  0  0  0  0
    1.8865    8.0877    2.5059 H   0  0  0  0  0  0  0  0  0  0  0  0
    0.5410    6.4083    1.2991 H   0  0  0  0  0  0  0  0  0  0  0  0
    1.1841    6.0122   -0.8825 H   0  0  0  0  0  0  0  0  0  0  0  0
    1.0247    6.2562   -3.3268 H   0  0  0  0  0  0  0  0  0  0  0  0
    0.6624    4.2802   -4.7507 H   0  0  0  0  0  0  0  0  0  0  0  0
    0.4774    2.0399   -3.7363 H   0  0  0  0  0  0  0  0  0  0  0  0
    0.6566    1.7769   -1.2687 H   0  0  0  0  0  0  0  0  0  0  0  0
   -1.6335    4.2531   -0.4188 H   0  0  0  0  0  0  0  0  0  0  0  0
   -4.1725    4.4178    3.0152 H   0  0  0  0  0  0  0  0  0  0  0  0
   -2.2672    3.8143    4.4607 H   0  0  0  0  0  0  0  0  0  0  0  0
   -0.0315    3.4277    3.4524 H   0  0  0  0  0  0  0  0  0  0  0  0
  1  3  1  6  0  0  0
  1  4  1  0  0  0  0
  1 20  1  0  0  0  0
  2  1  1  0  0  0  0
  2 37  1  0  0  0  0
  2 23  1  0  0  0  0
  4  5  1  0  0  0  0
  5  6  1  0  0  0  0
  6  7  1  0  0  0  0
  7  8  1  0  0  0  0
  7 12  2  0  0  0  0
  8 11  1  0  0  0  0
  9  8  1  0  0  0  0
 10  8  1  0  0  0  0
 12 13  1  0  0  0  0
 12 45  1  0  0  0  0
 13 14  1  0  0  0  0
 14 17  1  0  0  0  0
 14 16  1  0  0  0  0
 15 14  1  0  0  0  0
 18 46  1  0  0  0  0
 18 13  2  0  0  0  0
 19  6  2  0  0  0  0
 19 18  1  0  0  0  0
 20 21  1  0  0  0  0
 20 19  1  0  0  0  0
 22 20  1  0  0  0  0
 23 29  2  0  0  0  0
 23 24  1  0  0  0  0
 24 25  2  0  0  0  0
 25 27  1  0  0  0  0
 25 26  1  0  0  0  0
 27 48  1  0  0  0  0
 28 49  1  0  0  0  0
 28 27  2  0  0  0  0
 29 28  1  0  0  0  0
 30  2  1  0  0  0  0
 31 30  1  0  0  0  0
 31 51  1  0  0  0  0
 32 42  1  0  0  0  0
 32 59  1  0  0  0  0
 33 31  2  0  0  0  0
 34 35  2  0  0  0  0
 34 33  1  0  0  0  0
 35 36  1  0  0  0  0
 36 55  1  0  0  0  0
 36 30  2  0  0  0  0
 37 32  2  0  0  0  0
 38 39  2  0  0  0  0
 38 37  1  0  0  0  0
 39 41  1  0  0  0  0
 40 39  1  0  0  0  0
 41 57  1  0  0  0  0
 41 42  2  0  0  0  0
 42 58  1  0  0  0  0
 43  4  1  0  0  0  0
 44  5  1  0  0  0  0
 47 24  1  0  0  0  0
 50 29  1  0  0  0  0
 52 33  1  0  0  0  0
 53 34  1  0  0  0  0
 54 35  1  0  0  0  0
 56 38  1  0  0  0  0
M  END
$$$$
