CSD_code = XUVKEF | q = 0 | S = 0 | Stoichiometry = C18H26Cl2N2Pt | MND = 4
 OpenBabel04212202123D

 49 50  0  0  0  0  0  0  0  0999 V2000
    9.2422    7.1980    4.5583 Pt  0  0  0  0  0  0  0  0  0  0  0  0
   10.9221    6.0737    3.5785 Cl  0  0  0  0  0  0  0  0  0  0  0  0
    7.9157    6.8995    2.7694 Cl  0  0  0  0  0  0  0  0  0  0  0  0
   10.4563    7.4384    6.1481 N   0  0  0  0  0  0  0  0  0  0  0  0
    7.7256    8.2154    5.4106 N   0  0  0  0  0  0  0  0  0  0  0  0
   10.8094    8.6436    6.5999 C   0  0  0  0  0  3  0  0  0  0  0  0
   10.3236    9.4962    6.1408 H   0  0  0  0  0  0  0  0  0  0  0  0
   11.7485    8.8231    7.5922 C   0  0  0  0  0  0  0  0  0  0  0  0
   11.9878    9.8282    7.9007 H   0  0  0  0  0  0  0  0  0  0  0  0
   12.3808    7.7225    8.1746 C   0  0  0  0  0  0  0  0  0  0  0  0
   11.9930    6.4746    7.6957 C   0  0  0  0  0  0  0  0  0  0  0  0
   12.4243    5.5667    8.0812 H   0  0  0  0  0  0  0  0  0  0  0  0
   11.0447    6.3746    6.6951 C   0  0  0  0  0  0  0  0  0  0  0  0
   10.7526    5.4090    6.3037 H   0  0  0  0  0  0  0  0  0  0  0  0
   13.4214    7.9215    9.2580 C   0  0  0  0  0  0  0  0  0  0  0  0
   12.7644    8.6347   10.4489 C   0  0  0  0  0  0  0  0  0  0  0  0
   13.4950    8.7810   11.2407 H   0  0  0  0  0  0  0  0  0  0  0  0
   11.9453    8.0366   10.8431 H   0  0  0  0  0  0  0  0  0  0  0  0
   12.3725    9.6073   10.1642 H   0  0  0  0  0  0  0  0  0  0  0  0
   14.5606    8.7837    8.6957 C   0  0  0  0  0  0  0  0  0  0  0  0
   15.0044    8.3016    7.8276 H   0  0  0  0  0  0  0  0  0  0  0  0
   15.3327    8.9145    9.4500 H   0  0  0  0  0  0  0  0  0  0  0  0
   14.2074    9.7668    8.3974 H   0  0  0  0  0  0  0  0  0  0  0  0
   14.0119    6.5978    9.7488 C   0  0  0  0  0  0  0  0  0  0  0  0
   14.5018    6.0643    8.9380 H   0  0  0  0  0  0  0  0  0  0  0  0
   13.2442    5.9621   10.1839 H   0  0  0  0  0  0  0  0  0  0  0  0
   14.7558    6.7970   10.5167 H   0  0  0  0  0  0  0  0  0  0  0  0
    7.1361    9.2084    4.7404 C   0  0  0  0  0  3  0  0  0  0  0  0
    7.5790    9.4766    3.7904 H   0  0  0  0  0  0  0  0  0  0  0  0
    6.0115    9.8552    5.2080 C   0  0  0  0  0  0  0  0  0  0  0  0
    5.5872   10.6446    4.6093 H   0  0  0  0  0  0  0  0  0  0  0  0
    5.4329    9.4848    6.4223 C   0  0  0  0  0  0  0  0  0  0  0  0
    6.0648    8.4492    7.1071 C   0  0  0  0  0  0  0  0  0  0  0  0
    5.6914    8.0899    8.0509 H   0  0  0  0  0  0  0  0  0  0  0  0
    7.1902    7.8508    6.5752 C   0  0  0  0  0  0  0  0  0  0  0  0
    7.6782    7.0395    7.1020 H   0  0  0  0  0  0  0  0  0  0  0  0
    4.1868   10.1851    6.9247 C   0  0  0  0  0  0  0  0  0  0  0  0
    3.0587    9.9600    5.9079 C   0  0  0  0  0  0  0  0  0  0  0  0
    2.1468   10.4412    6.2533 H   0  0  0  0  0  0  0  0  0  0  0  0
    2.8642    8.8963    5.7894 H   0  0  0  0  0  0  0  0  0  0  0  0
    3.3136   10.3696    4.9346 H   0  0  0  0  0  0  0  0  0  0  0  0
    4.4770   11.6870    7.0585 C   0  0  0  0  0  0  0  0  0  0  0  0
    5.2952   11.8546    7.7561 H   0  0  0  0  0  0  0  0  0  0  0  0
    3.5955   12.2017    7.4326 H   0  0  0  0  0  0  0  0  0  0  0  0
    4.7461   12.1279    6.1028 H   0  0  0  0  0  0  0  0  0  0  0  0
    3.7283    9.6571    8.2863 C   0  0  0  0  0  0  0  0  0  0  0  0
    4.4959    9.8033    9.0432 H   0  0  0  0  0  0  0  0  0  0  0  0
    3.4751    8.6010    8.2320 H   0  0  0  0  0  0  0  0  0  0  0  0
    2.8392   10.1977    8.6020 H   0  0  0  0  0  0  0  0  0  0  0  0
  1  5  1  0  0  0  0
  1  4  1  0  0  0  0
  2  1  1  0  0  0  0
  3  1  1  0  0  0  0
  4  6  1  0  0  0  0
  4 13  1  0  0  0  0
  5 35  1  0  0  0  0
  6  8  1  0  0  0  0
  7  6  1  0  0  0  0
  8  9  1  0  0  0  0
  8 10  2  0  0  0  0
 10 15  1  0  0  0  0
 11 12  1  0  0  0  0
 11 10  1  0  0  0  0
 13 11  2  0  0  0  0
 14 13  1  0  0  0  0
 15 24  1  0  0  0  0
 15 16  1  0  0  0  0
 16 18  1  0  0  0  0
 16 17  1  0  0  0  0
 19 16  1  0  0  0  0
 20 15  1  0  0  0  0
 20 22  1  0  0  0  0
 21 20  1  0  0  0  0
 23 20  1  0  0  0  0
 24 26  1  0  0  0  0
 24 27  1  0  0  0  0
 25 24  1  0  0  0  0
 28 30  1  0  0  0  0
 28  5  1  0  0  0  0
 29 28  1  0  0  0  0
 30 32  2  0  0  0  0
 31 30  1  0  0  0  0
 32 37  1  0  0  0  0
 32 33  1  0  0  0  0
 33 34  1  0  0  0  0
 35 36  1  0  0  0  0
 35 33  2  0  0  0  0
 37 42  1  0  0  0  0
 37 46  1  0  0  0  0
 38 39  1  0  0  0  0
 38 37  1  0  0  0  0
 40 38  1  0  0  0  0
 41 38  1  0  0  0  0
 42 44  1  0  0  0  0
 42 43  1  0  0  0  0
 45 42  1  0  0  0  0
 46 49  1  0  0  0  0
 46 47  1  0  0  0  0
 48 46  1  0  0  0  0
M  END
$$$$
