CSD_code = XUWGAY | q = 0 | S = 0 | Stoichiometry = C7H9Cl2N5SZn | MND = 5
 OpenBabel04212202123D

 25 27  0  0  1  0  0  0  0  0999 V2000
    1.8118    9.5089    2.5860 Zn  0  0  0  0  0  0  0  0  0  0  0  0
    3.8006   10.2697    3.1463 Cl  0  0  0  0  0  0  0  0  0  0  0  0
    0.1867    9.2111    4.1696 Cl  0  0  0  0  0  0  0  0  0  0  0  0
    0.5751   11.4106    1.1307 S   0  0  0  0  0  0  0  0  0  0  0  0
    2.4125    7.4419    2.1070 N   0  0  0  0  0  0  0  0  0  0  0  0
    0.5933    4.3426    1.4383 N   0  0  0  0  0  0  0  0  0  0  0  0
   -0.3627    4.6498    1.4668 H   0  0  0  0  0  0  0  0  0  0  0  0
    0.7453    3.3688    1.6429 H   0  0  0  0  0  0  0  0  0  0  0  0
    0.1561    8.5229    1.3423 N   0  0  2  0  0  0  0  0  0  0  0  0
   -0.9485    9.2417    1.1925 N   0  0  0  0  0  0  0  0  0  0  0  0
   -1.8601    8.8026    1.3406 H   0  0  0  0  0  0  0  0  0  0  0  0
   -2.0380   11.2687    1.1043 N   0  0  0  0  0  0  0  0  0  0  0  0
   -2.9096   10.8250    1.3472 H   0  0  0  0  0  0  0  0  0  0  0  0
   -1.9851   12.2708    1.1853 H   0  0  0  0  0  0  0  0  0  0  0  0
    3.6072    6.9728    2.3959 C   0  0  0  0  0  3  0  0  0  0  0  0
    4.3574    7.7094    2.6435 H   0  0  0  0  0  0  0  0  0  0  0  0
    3.8792    5.6071    2.3963 C   0  0  0  0  0  0  0  0  0  0  0  0
    4.8674    5.2505    2.6368 H   0  0  0  0  0  0  0  0  0  0  0  0
    2.8611    4.7275    2.1043 C   0  0  0  0  0  0  0  0  0  0  0  0
    3.0303    3.6602    2.1103 H   0  0  0  0  0  0  0  0  0  0  0  0
    1.5828    5.2121    1.7939 C   0  0  0  0  0  0  0  0  0  0  0  0
    1.4079    6.6145    1.7910 C   0  0  0  0  0  0  0  0  0  0  0  0
    0.1505    7.2585    1.4972 C   0  0  0  0  0  3  0  0  0  0  0  0
   -0.7752    6.6807    1.4785 H   0  0  0  0  0  0  0  0  0  0  0  0
   -0.8708   10.6016    1.1789 C   0  0  2  0  0  3  0  0  0  0  0  0
  1  2  1  0  0  0  0
  1  3  1  0  0  0  0
  4 25  1  0  0  0  0
  4  1  1  0  0  0  0
  5 15  1  0  0  0  0
  5  1  1  0  0  0  0
  6  7  1  0  0  0  0
  6  8  1  0  0  0  0
  6 21  1  0  0  0  0
  9 23  1  1  0  0  0
  9  1  1  0  0  0  0
 10 11  1  0  0  0  0
 10  9  1  0  0  0  0
 12 14  1  0  0  0  0
 12 13  1  0  0  0  0
 15 17  1  0  0  0  0
 15 16  1  0  0  0  0
 17 18  1  0  0  0  0
 19 20  1  0  0  0  0
 19 17  2  0  0  0  0
 21 19  1  0  0  0  0
 22 21  2  0  0  0  0
 22  5  1  0  0  0  0
 23 22  1  0  0  0  0
 24 23  1  0  0  0  0
 25 12  1  6  0  0  0
 25 10  1  0  0  0  0
M  END
$$$$
