CSD_code = XUWTOZ | q = 0 | S = 0 | Stoichiometry = C16H15Cl2N3Pd | MND = 4
 OpenBabel04212202123D

 37 40  0  0  1  0  0  0  0  0999 V2000
    0.7845   -0.5060   10.3069 Pd  0  0  0  0  0  0  0  0  0  0  0  0
   -0.0031    0.3900   11.9048 C   0  0  0  0  0  0  0  0  0  0  0  0
   -2.4461    0.5606   11.6932 C   0  0  0  0  0  0  0  0  0  0  0  0
   -3.0293    1.4806   11.6818 H   0  0  0  0  0  0  0  0  0  0  0  0
   -3.0201   -0.2236   12.1912 H   0  0  0  0  0  0  0  0  0  0  0  0
   -2.2241    0.2649   10.6636 H   0  0  0  0  0  0  0  0  0  0  0  0
   -1.0453    1.4049   13.5803 C   0  0  0  0  0  0  0  0  0  0  0  0
   -1.8758    1.7982   14.1299 H   0  0  0  0  0  0  0  0  0  0  0  0
    0.2784    1.4062   13.8721 C   0  0  0  0  0  0  0  0  0  0  0  0
    0.8084    1.8025   14.7138 H   0  0  0  0  0  0  0  0  0  0  0  0
    2.3177    0.5216   12.6414 C   0  0  2  0  0  0  0  0  0  0  0  0
    2.8671    0.9474   13.4895 H   0  0  0  0  0  0  0  0  0  0  0  0
    2.7943    1.1362   11.3198 C   0  0  0  0  0  0  0  0  0  0  0  0
    2.1692    2.2680   10.7914 C   0  0  0  0  0  0  0  0  0  0  0  0
    1.3705    2.7596   11.3320 H   0  0  0  0  0  0  0  0  0  0  0  0
    2.5676    2.7735    9.5650 C   0  0  0  0  0  0  0  0  0  0  0  0
    2.0560    3.6304    9.1545 H   0  0  0  0  0  0  0  0  0  0  0  0
    3.5969    2.1711    8.8614 C   0  0  0  0  0  0  0  0  0  0  0  0
    3.8823    2.5487    7.8917 H   0  0  0  0  0  0  0  0  0  0  0  0
    4.2535    1.0797    9.4021 C   0  0  0  0  0  0  0  0  0  0  0  0
    5.0599    0.6075    8.8627 H   0  0  0  0  0  0  0  0  0  0  0  0
    3.8622    0.5655   10.6273 C   0  0  0  0  0  0  0  0  0  0  0  0
    4.3857   -0.2872   11.0387 H   0  0  0  0  0  0  0  0  0  0  0  0
    2.5079   -0.9848   12.5858 C   0  0  2  0  0  3  0  0  0  0  0  0
    3.2964   -1.6734   13.4911 C   0  0  0  0  0  0  0  0  0  0  0  0
    3.8057   -1.1422   14.2808 H   0  0  0  0  0  0  0  0  0  0  0  0
    3.4345   -3.0482   13.3534 C   0  0  0  0  0  0  0  0  0  0  0  0
    4.0522   -3.6062   14.0398 H   0  0  0  0  0  0  0  0  0  0  0  0
    2.7697   -3.6818   12.3151 C   0  0  0  0  0  0  0  0  0  0  0  0
    2.8566   -4.7460   12.1669 H   0  0  0  0  0  0  0  0  0  0  0  0
    1.9905   -2.9259   11.4553 C   0  0  0  0  0  0  0  0  0  0  0  0
    1.4677   -3.3706   10.6161 H   0  0  0  0  0  0  0  0  0  0  0  0
    1.8472   -1.5274    8.5923 Cl  0  0  0  0  0  0  0  0  0  0  0  0
   -0.4313    0.7473    8.9213 Cl  0  0  0  0  0  0  0  0  0  0  0  0
    1.8641   -1.6088   11.5920 N   0  0  0  0  0  0  0  0  0  0  0  0
    0.9032    0.7793   12.8287 N   0  0  0  0  0  0  0  0  0  0  0  0
   -1.1960    0.7785   12.3705 N   0  0  0  0  0  0  0  0  0  0  0  0
  1 35  1  0  0  0  0
  1  2  2  0  0  0  0
  2 37  1  0  0  0  0
  2 36  1  0  0  0  0
  3  5  1  0  0  0  0
  3 37  1  0  0  0  0
  4  3  1  0  0  0  0
  6  3  1  0  0  0  0
  7  9  2  0  0  0  0
  7  8  1  0  0  0  0
  9 10  1  0  0  0  0
 11 36  1  0  0  0  0
 11 12  1  1  0  0  0
 13 11  1  0  0  0  0
 14 13  1  0  0  0  0
 14 15  1  0  0  0  0
 16 14  2  0  0  0  0
 17 16  1  0  0  0  0
 18 20  2  0  0  0  0
 18 16  1  0  0  0  0
 19 18  1  0  0  0  0
 20 22  1  0  0  0  0
 21 20  1  0  0  0  0
 22 23  1  0  0  0  0
 22 13  2  0  0  0  0
 24 11  1  0  0  0  0
 24 25  1  6  0  0  0
 25 26  1  0  0  0  0
 27 25  2  0  0  0  0
 27 28  1  0  0  0  0
 29 27  1  0  0  0  0
 30 29  1  0  0  0  0
 31 35  1  0  0  0  0
 31 29  2  0  0  0  0
 32 31  1  0  0  0  0
 33  1  1  0  0  0  0
 34  1  1  0  0  0  0
 35 24  1  0  0  0  0
 36  9  1  0  0  0  0
 37  7  1  0  0  0  0
M  END
$$$$
