CSD_code = XUXCOK | q = 0 | S = 0 | Stoichiometry = C14H20Cl2N2Ti | MND = 9
 OpenBabel04212202123D

 39 37  0  0  0  0  0  0  0  0999 V2000
    5.1391    9.8575    2.1139 Ti  0  0  0  0  0  0  0  0  0  0  0  0
    5.2565   10.2408   -0.0380 Cl  0  0  0  0  0 15  0  0  0  0  0  0
    3.6622    8.2596    1.7736 Cl  0  0  0  0  0 15  0  0  0  0  0  0
    4.6969   11.7269    2.4488 N   0  0  0  0  0  0  0  0  0  0  0  0
    3.7977   10.8943    3.0126 N   0  0  0  0  0  0  0  0  0  0  0  0
    7.0052   10.3836    3.4426 C   0  0  0  0  0  0  0  0  0  0  0  0
    7.4481    9.8299    2.2220 C   0  0  0  0  0  0  0  0  0  0  0  0
    6.9874    8.4942    2.1569 C   0  0  0  0  0  0  0  0  0  0  0  0
    6.2583    8.2277    3.3357 C   0  0  0  0  0  0  0  0  0  0  0  0
    6.2528    9.4007    4.1240 C   0  0  0  0  0  3  0  0  0  0  0  0
    4.0930   12.8795    2.1483 C   0  0  0  0  0  0  0  0  0  0  0  0
    2.7585   12.7910    2.5576 C   0  0  0  0  0  0  0  0  0  0  0  0
    2.6063   11.5040    3.0719 C   0  0  0  0  0  0  0  0  0  0  0  0
    4.8192   14.0438    1.5491 C   0  0  0  0  0  0  0  0  0  0  0  0
    6.1394   13.5974    0.9241 C   0  0  0  0  0  0  0  0  0  0  0  0
    5.0582   15.1056    2.6288 C   0  0  0  0  0  0  0  0  0  0  0  0
    1.3884   10.7914    3.5679 C   0  0  0  0  0  0  0  0  0  0  0  0
    0.5988   10.2864    2.3546 C   0  0  0  0  0  0  0  0  0  0  0  0
    0.5275   11.6906    4.4529 C   0  0  0  0  0  0  0  0  0  0  0  0
    7.2772   11.3546    3.8358 H   0  0  0  0  0  0  0  0  0  0  0  0
    8.1182   10.3035    1.5156 H   0  0  0  0  0  0  0  0  0  0  0  0
    7.2413    7.7714    1.3898 H   0  0  0  0  0  0  0  0  0  0  0  0
    5.8543    7.2666    3.6285 H   0  0  0  0  0  0  0  0  0  0  0  0
    5.8597    9.4860    5.1302 H   0  0  0  0  0  0  0  0  0  0  0  0
    2.0051   13.5469    2.4587 H   0  0  0  0  0  0  0  0  0  0  0  0
    4.1795   14.4770    0.7715 H   0  0  0  0  0  0  0  0  0  0  0  0
    6.6344   14.4419    0.4504 H   0  0  0  0  0  0  0  0  0  0  0  0
    5.9638   12.8268    0.1755 H   0  0  0  0  0  0  0  0  0  0  0  0
    6.7974   13.1901    1.6908 H   0  0  0  0  0  0  0  0  0  0  0  0
    5.5642   15.9679    2.2015 H   0  0  0  0  0  0  0  0  0  0  0  0
    5.6784   14.6971    3.4239 H   0  0  0  0  0  0  0  0  0  0  0  0
    4.1162   15.4340    3.0608 H   0  0  0  0  0  0  0  0  0  0  0  0
    1.7279    9.9227    4.1461 H   0  0  0  0  0  0  0  0  0  0  0  0
    0.2532   11.1245    1.7529 H   0  0  0  0  0  0  0  0  0  0  0  0
   -0.2633    9.7096    2.6801 H   0  0  0  0  0  0  0  0  0  0  0  0
    1.2323    9.6506    1.7377 H   0  0  0  0  0  0  0  0  0  0  0  0
   -0.3202   11.1308    4.8403 H   0  0  0  0  0  0  0  0  0  0  0  0
    0.1484   12.5355    3.8833 H   0  0  0  0  0  0  0  0  0  0  0  0
    1.1056   12.0701    5.2923 H   0  0  0  0  0  0  0  0  0  0  0  0
  1  5  1  0  0  0  0
  4  5  1  0  0  0  0
  5 13  1  0  0  0  0
  6 20  1  0  0  0  0
  6 10  1  0  0  0  0
  7  6  2  0  0  0  0
  8  7  1  0  0  0  0
  8  9  2  0  0  0  0
  9 23  1  0  0  0  0
  9 10  1  0  0  0  0
 10 24  1  0  0  0  0
 11  4  2  0  0  0  0
 11 12  1  0  0  0  0
 12 13  2  0  0  0  0
 13 17  1  0  0  0  0
 14 11  1  0  0  0  0
 14 16  1  0  0  0  0
 15 14  1  0  0  0  0
 15 29  1  0  0  0  0
 16 32  1  0  0  0  0
 16 31  1  0  0  0  0
 17 33  1  0  0  0  0
 17 19  1  0  0  0  0
 18 35  1  0  0  0  0
 18 17  1  0  0  0  0
 19 37  1  0  0  0  0
 19 39  1  0  0  0  0
 21  7  1  0  0  0  0
 22  8  1  0  0  0  0
 25 12  1  0  0  0  0
 26 14  1  0  0  0  0
 27 15  1  0  0  0  0
 28 15  1  0  0  0  0
 30 16  1  0  0  0  0
 34 18  1  0  0  0  0
 36 18  1  0  0  0  0
 38 19  1  0  0  0  0
M  END
$$$$
