CSD_code = XUXDIF | q = 0 | S = 0 | Stoichiometry = C18H28Cl2N2Ti | MND = 9
 OpenBabel04212202123D

 51 49  0  0  0  0  0  0  0  0999 V2000
   11.2714    3.5124    1.4289 Ti  0  0  0  0  0  0  0  0  0  0  0  0
   10.4855    2.9842    3.4131 Cl  0  0  0  0  0 15  0  0  0  0  0  0
   12.3297    5.2591    2.2444 Cl  0  0  0  0  0 15  0  0  0  0  0  0
   12.2438    1.8483    1.4040 N   0  0  0  0  0  0  0  0  0  0  0  0
   12.9997    2.8191    0.8653 N   0  0  0  0  0  0  0  0  0  0  0  0
    9.2696    4.3741    0.6958 C   0  0  0  0  0  0  0  0  0  0  0  0
   10.3020    4.9165   -0.1136 C   0  0  0  0  0  0  0  0  0  0  0  0
   10.8913    3.8684   -0.8565 C   0  0  0  0  0  0  0  0  0  0  0  0
   10.2346    2.6698   -0.5115 C   0  0  0  0  0  0  0  0  0  0  0  0
    9.2460    2.9747    0.4519 C   0  0  0  0  0  3  0  0  0  0  0  0
    8.2659    5.1880    1.4870 C   0  0  0  0  0  0  0  0  0  0  0  0
    7.4399    6.0118    0.4846 C   0  0  0  0  0  0  0  0  0  0  0  0
    7.3253    4.2799    2.2853 C   0  0  0  0  0  0  0  0  0  0  0  0
    8.9875    6.1341    2.4559 C   0  0  0  0  0  0  0  0  0  0  0  0
   13.0320    0.8540    1.8210 C   0  0  0  0  0  0  0  0  0  0  0  0
   14.3513    1.1961    1.5150 C   0  0  0  0  0  0  0  0  0  0  0  0
   14.2862    2.4655    0.9349 C   0  0  0  0  0  0  0  0  0  0  0  0
   12.4883   -0.3444    2.5334 C   0  0  0  0  0  0  0  0  0  0  0  0
   12.5752   -0.0914    4.0431 C   0  0  0  0  0  0  0  0  0  0  0  0
   11.0401   -0.6000    2.1167 C   0  0  0  0  0  0  0  0  0  0  0  0
   15.3569    3.3616    0.3955 C   0  0  0  0  0  0  0  0  0  0  0  0
   16.6945    3.1165    1.0881 C   0  0  0  0  0  0  0  0  0  0  0  0
   15.4768    3.1562   -1.1186 C   0  0  0  0  0  0  0  0  0  0  0  0
   10.5260    5.9678   -0.2427 H   0  0  0  0  0  0  0  0  0  0  0  0
   11.6372    3.9863   -1.6326 H   0  0  0  0  0  0  0  0  0  0  0  0
   10.3927    1.7019   -0.9711 H   0  0  0  0  0  0  0  0  0  0  0  0
    8.5203    2.2704    0.8372 H   0  0  0  0  0  0  0  0  0  0  0  0
    8.0729    6.7097   -0.0579 H   0  0  0  0  0  0  0  0  0  0  0  0
    6.9558    5.3563   -0.2364 H   0  0  0  0  0  0  0  0  0  0  0  0
    6.6729    6.5777    1.0082 H   0  0  0  0  0  0  0  0  0  0  0  0
    6.7301    3.6571    1.6209 H   0  0  0  0  0  0  0  0  0  0  0  0
    7.8925    3.6422    2.9611 H   0  0  0  0  0  0  0  0  0  0  0  0
    6.6448    4.8874    2.8778 H   0  0  0  0  0  0  0  0  0  0  0  0
    9.5591    5.5630    3.1891 H   0  0  0  0  0  0  0  0  0  0  0  0
    9.6686    6.7985    1.9269 H   0  0  0  0  0  0  0  0  0  0  0  0
    8.2610    6.7449    2.9886 H   0  0  0  0  0  0  0  0  0  0  0  0
   15.2272    0.6116    1.7137 H   0  0  0  0  0  0  0  0  0  0  0  0
   13.1054   -1.2147    2.2812 H   0  0  0  0  0  0  0  0  0  0  0  0
   11.9938    0.7927    4.3012 H   0  0  0  0  0  0  0  0  0  0  0  0
   12.1802   -0.9426    4.5924 H   0  0  0  0  0  0  0  0  0  0  0  0
   13.6074    0.0711    4.3455 H   0  0  0  0  0  0  0  0  0  0  0  0
   10.4246    0.2623    2.3773 H   0  0  0  0  0  0  0  0  0  0  0  0
   10.9745   -0.7654    1.0428 H   0  0  0  0  0  0  0  0  0  0  0  0
   10.6506   -1.4767    2.6286 H   0  0  0  0  0  0  0  0  0  0  0  0
   15.0363    4.3953    0.5814 H   0  0  0  0  0  0  0  0  0  0  0  0
   17.4335    3.8325    0.7363 H   0  0  0  0  0  0  0  0  0  0  0  0
   16.5912    3.2266    2.1649 H   0  0  0  0  0  0  0  0  0  0  0  0
   17.0587    2.1146    0.8727 H   0  0  0  0  0  0  0  0  0  0  0  0
   16.2161    3.8368   -1.5340 H   0  0  0  0  0  0  0  0  0  0  0  0
   15.7824    2.1348   -1.3373 H   0  0  0  0  0  0  0  0  0  0  0  0
   14.5194    3.3430   -1.6009 H   0  0  0  0  0  0  0  0  0  0  0  0
  4  1  1  0  0  0  0
  4 15  1  0  0  0  0
  5 17  2  0  0  0  0
  5  4  1  0  0  0  0
  6 11  1  0  0  0  0
  7  6  2  0  0  0  0
  8  9  2  0  0  0  0
  8  7  1  0  0  0  0
  9 10  1  0  0  0  0
 10  6  1  0  0  0  0
 10 27  1  0  0  0  0
 11 13  1  0  0  0  0
 11 14  1  0  0  0  0
 12 30  1  0  0  0  0
 12 11  1  0  0  0  0
 13 33  1  0  0  0  0
 13 32  1  0  0  0  0
 14 36  1  0  0  0  0
 14 34  1  0  0  0  0
 15 18  1  0  0  0  0
 16 37  1  0  0  0  0
 16 15  2  0  0  0  0
 17 16  1  0  0  0  0
 18 19  1  0  0  0  0
 19 39  1  0  0  0  0
 19 41  1  0  0  0  0
 19 40  1  0  0  0  0
 20 42  1  0  0  0  0
 20 18  1  0  0  0  0
 20 44  1  0  0  0  0
 21 45  1  0  0  0  0
 21 17  1  0  0  0  0
 21 22  1  0  0  0  0
 22 47  1  0  0  0  0
 23 21  1  0  0  0  0
 24  7  1  0  0  0  0
 25  8  1  0  0  0  0
 26  9  1  0  0  0  0
 28 12  1  0  0  0  0
 29 12  1  0  0  0  0
 31 13  1  0  0  0  0
 35 14  1  0  0  0  0
 38 18  1  0  0  0  0
 43 20  1  0  0  0  0
 46 22  1  0  0  0  0
 48 22  1  0  0  0  0
 49 23  1  0  0  0  0
 50 23  1  0  0  0  0
 51 23  1  0  0  0  0
M  END
$$$$
