CSD_code = XUXDEB | q = 0 | S = 0 | Stoichiometry = C14H20Cl2N2Ti | MND = 9
 OpenBabel04212202123D

 39 37  0  0  0  0  0  0  0  0999 V2000
    2.0397    2.3685    9.4308 Ti  0  0  0  0  0  0  0  0  0  0  0  0
    0.6328    3.8375    8.5797 Cl  0  0  0  0  0 15  0  0  0  0  0  0
    0.6621    1.9721   11.0997 Cl  0  0  0  0  0 15  0  0  0  0  0  0
    3.2086    3.8018    9.9208 N   0  0  0  0  0  0  0  0  0  0  0  0
    3.4485    2.7684   10.7561 N   0  0  0  0  0  0  0  0  0  0  0  0
    2.7561    1.5903    7.3803 C   0  0  0  0  0  0  0  0  0  0  0  0
    1.4850    1.0138    7.6469 C   0  0  0  0  0  0  0  0  0  0  0  0
    1.5999    0.1732    8.7743 C   0  0  0  0  0  0  0  0  0  0  0  0
    2.9340    0.2285    9.2255 C   0  0  0  0  0  0  0  0  0  0  0  0
    3.6490    1.0938    8.3640 C   0  0  0  0  0  3  0  0  0  0  0  0
    3.1538    2.4531    6.2015 C   0  0  0  0  0  0  0  0  0  0  0  0
    3.7980    3.7521    6.7079 C   0  0  0  0  0  0  0  0  0  0  0  0
    1.9355    2.8110    5.3458 C   0  0  0  0  0  0  0  0  0  0  0  0
    4.1635    1.6709    5.3465 C   0  0  0  0  0  0  0  0  0  0  0  0
    3.3578    4.9562   10.5897 C   0  0  0  0  0  0  0  0  0  0  0  0
    3.7430    4.6498   11.8931 C   0  0  0  0  0  0  0  0  0  0  0  0
    3.7530    3.2532   11.9640 C   0  0  0  0  0  0  0  0  0  0  0  0
    3.1359    6.2742    9.9367 C   0  0  0  0  0  0  0  0  0  0  0  0
    4.0494    2.3621   13.1174 C   0  0  0  0  0  0  0  0  0  0  0  0
    0.5996    1.1084    7.0316 H   0  0  0  0  0  0  0  0  0  0  0  0
    0.8230   -0.4727    9.1647 H   0  0  0  0  0  0  0  0  0  0  0  0
    3.3625   -0.3682   10.0205 H   0  0  0  0  0  0  0  0  0  0  0  0
    4.7200    1.2527    8.3954 H   0  0  0  0  0  0  0  0  0  0  0  0
    3.0658    4.3266    7.2787 H   0  0  0  0  0  0  0  0  0  0  0  0
    4.1349    4.3533    5.8654 H   0  0  0  0  0  0  0  0  0  0  0  0
    4.6567    3.5423    7.3456 H   0  0  0  0  0  0  0  0  0  0  0  0
    1.1925    3.3331    5.9459 H   0  0  0  0  0  0  0  0  0  0  0  0
    1.4874    1.9175    4.9169 H   0  0  0  0  0  0  0  0  0  0  0  0
    2.2373    3.4629    4.5291 H   0  0  0  0  0  0  0  0  0  0  0  0
    3.7316    0.7272    5.0210 H   0  0  0  0  0  0  0  0  0  0  0  0
    5.0674    1.4568    5.9112 H   0  0  0  0  0  0  0  0  0  0  0  0
    4.4359    2.2483    4.4661 H   0  0  0  0  0  0  0  0  0  0  0  0
    3.9438    5.3398   12.6887 H   0  0  0  0  0  0  0  0  0  0  0  0
    2.1952    6.2527    9.3848 H   0  0  0  0  0  0  0  0  0  0  0  0
    3.9391    6.4890    9.2314 H   0  0  0  0  0  0  0  0  0  0  0  0
    3.1024    7.0627   10.6832 H   0  0  0  0  0  0  0  0  0  0  0  0
    5.0282    1.8974   12.9981 H   0  0  0  0  0  0  0  0  0  0  0  0
    3.2998    1.5730   13.1693 H   0  0  0  0  0  0  0  0  0  0  0  0
    4.0418    2.9308   14.0428 H   0  0  0  0  0  0  0  0  0  0  0  0
  1  4  1  0  0  0  0
  4 15  1  0  0  0  0
  4  5  1  0  0  0  0
  5 17  2  0  0  0  0
  6  7  2  0  0  0  0
  6 10  1  0  0  0  0
  7  8  1  0  0  0  0
  8 21  1  0  0  0  0
  8  9  2  0  0  0  0
  9 22  1  0  0  0  0
 10 23  1  0  0  0  0
 10  9  1  0  0  0  0
 11 12  1  0  0  0  0
 11  6  1  0  0  0  0
 12 24  1  0  0  0  0
 12 26  1  0  0  0  0
 13 27  1  0  0  0  0
 13 11  1  0  0  0  0
 14 31  1  0  0  0  0
 14 11  1  0  0  0  0
 15 16  2  0  0  0  0
 16 17  1  0  0  0  0
 16 33  1  0  0  0  0
 17 19  1  0  0  0  0
 18 15  1  0  0  0  0
 18 36  1  0  0  0  0
 19 38  1  0  0  0  0
 19 39  1  0  0  0  0
 20  7  1  0  0  0  0
 25 12  1  0  0  0  0
 28 13  1  0  0  0  0
 29 13  1  0  0  0  0
 30 14  1  0  0  0  0
 32 14  1  0  0  0  0
 34 18  1  0  0  0  0
 35 18  1  0  0  0  0
 37 19  1  0  0  0  0
M  END
$$$$
