CSD_code = XUXHUV | q = 0 | S = 0 | Stoichiometry = C25H37BrNiP2 | MND = 4
 OpenBabel04212202123D

 66 69  0  0  1  0  0  0  0  0999 V2000
   -2.9697    5.4809   13.2953 Br  0  0  0  0  0  0  0  0  0  0  0  0
   -3.4911    4.5783   11.2892 Ni  0  0  1  0  0  0  0  0  0  0  0  0
   -2.0382    3.0256   11.4795 P   0  0  0  0  0  4  0  0  0  0  0  0
   -5.3325    5.6922   10.9103 P   0  0  0  0  0  4  0  0  0  0  0  0
   -3.6905    3.9563    9.4108 C   0  0  1  0  0  0  0  0  0  0  0  0
   -3.4250    4.9123    8.9200 H   0  0  0  0  0  0  0  0  0  0  0  0
   -2.7363    2.9101    8.9148 C   0  0  0  0  0  0  0  0  0  0  0  0
   -1.9186    2.2572    9.8365 C   0  0  0  0  0  0  0  0  0  0  0  0
   -1.0918    1.2135    9.4413 C   0  0  0  0  0  0  0  0  0  0  0  0
   -0.5012    0.6727   10.1661 H   0  0  0  0  0  0  0  0  0  0  0  0
   -1.0386    0.8582    8.1061 C   0  0  0  0  0  0  0  0  0  0  0  0
   -0.4010    0.0457    7.7890 H   0  0  0  0  0  0  0  0  0  0  0  0
   -1.7867    1.5573    7.1704 C   0  0  0  0  0  0  0  0  0  0  0  0
   -1.7138    1.2992    6.1236 H   0  0  0  0  0  0  0  0  0  0  0  0
   -2.6347    2.5748    7.5680 C   0  0  0  0  0  0  0  0  0  0  0  0
   -3.2188    3.1108    6.8324 H   0  0  0  0  0  0  0  0  0  0  0  0
   -5.1274    3.6915    9.1225 C   0  0  0  0  0  0  0  0  0  0  0  0
   -6.0592    4.6186    9.6265 C   0  0  0  0  0  0  0  0  0  0  0  0
   -7.3992    4.5267    9.2927 C   0  0  0  0  0  0  0  0  0  0  0  0
   -8.1122    5.2463    9.6679 H   0  0  0  0  0  0  0  0  0  0  0  0
   -7.8443    3.4802    8.5000 C   0  0  0  0  0  0  0  0  0  0  0  0
   -8.8916    3.4019    8.2480 H   0  0  0  0  0  0  0  0  0  0  0  0
   -6.9502    2.5110    8.0804 C   0  0  0  0  0  0  0  0  0  0  0  0
   -7.3030    1.6655    7.5073 H   0  0  0  0  0  0  0  0  0  0  0  0
   -5.6035    2.6121    8.3848 C   0  0  0  0  0  0  0  0  0  0  0  0
   -4.9259    1.8419    8.0465 H   0  0  0  0  0  0  0  0  0  0  0  0
   -0.3420    3.7102   11.8170 C   0  0  0  0  0  0  0  0  0  0  0  0
   -0.3994    4.1171   12.8350 H   0  0  0  0  0  0  0  0  0  0  0  0
    0.8068    2.7154   11.7331 C   0  0  0  0  0  0  0  0  0  0  0  0
    1.7256    3.2005   12.0600 H   0  0  0  0  0  0  0  0  0  0  0  0
    0.9529    2.3775   10.7093 H   0  0  0  0  0  0  0  0  0  0  0  0
    0.6377    1.8518   12.3729 H   0  0  0  0  0  0  0  0  0  0  0  0
   -0.1486    4.8712   10.8422 C   0  0  0  0  0  0  0  0  0  0  0  0
    0.7537    5.4311   11.0792 H   0  0  0  0  0  0  0  0  0  0  0  0
   -0.9997    5.5590   10.9037 H   0  0  0  0  0  0  0  0  0  0  0  0
   -0.0747    4.5059    9.8174 H   0  0  0  0  0  0  0  0  0  0  0  0
   -2.2729    1.5797   12.6182 C   0  0  0  0  0  0  0  0  0  0  0  0
   -1.5330    0.8211   12.3328 H   0  0  0  0  0  0  0  0  0  0  0  0
   -2.0907    1.9576   14.0828 C   0  0  0  0  0  0  0  0  0  0  0  0
   -2.3010    1.0974   14.7166 H   0  0  0  0  0  0  0  0  0  0  0  0
   -2.7694    2.7612   14.3611 H   0  0  0  0  0  0  0  0  0  0  0  0
   -1.0744    2.2895   14.2828 H   0  0  0  0  0  0  0  0  0  0  0  0
   -3.6771    1.0429   12.3487 C   0  0  0  0  0  0  0  0  0  0  0  0
   -3.8904    0.1797   12.9767 H   0  0  0  0  0  0  0  0  0  0  0  0
   -3.7854    0.7486   11.3045 H   0  0  0  0  0  0  0  0  0  0  0  0
   -4.4179    1.8146   12.5640 H   0  0  0  0  0  0  0  0  0  0  0  0
   -5.4009    7.4499   10.2958 C   0  0  0  0  0  0  0  0  0  0  0  0
   -5.1388    8.0659   11.1656 H   0  0  0  0  0  0  0  0  0  0  0  0
   -4.3170    7.6360    9.2363 C   0  0  0  0  0  0  0  0  0  0  0  0
   -4.2525    8.6801    8.9337 H   0  0  0  0  0  0  0  0  0  0  0  0
   -4.5390    7.0384    8.3517 H   0  0  0  0  0  0  0  0  0  0  0  0
   -3.3444    7.3381    9.6313 H   0  0  0  0  0  0  0  0  0  0  0  0
   -6.7636    7.8694    9.7606 C   0  0  0  0  0  0  0  0  0  0  0  0
   -6.7312    8.9153    9.4574 H   0  0  0  0  0  0  0  0  0  0  0  0
   -7.5407    7.7624   10.5139 H   0  0  0  0  0  0  0  0  0  0  0  0
   -7.0320    7.2744    8.8893 H   0  0  0  0  0  0  0  0  0  0  0  0
   -6.6433    5.6143   12.2334 C   0  0  0  0  0  0  0  0  0  0  0  0
   -7.6156    5.7437   11.7431 H   0  0  0  0  0  0  0  0  0  0  0  0
   -6.5762    4.2146   12.8407 C   0  0  0  0  0  0  0  0  0  0  0  0
   -7.3378    4.0892   13.6082 H   0  0  0  0  0  0  0  0  0  0  0  0
   -5.6005    4.0587   13.3050 H   0  0  0  0  0  0  0  0  0  0  0  0
   -6.7284    3.4525   12.0747 H   0  0  0  0  0  0  0  0  0  0  0  0
   -6.4677    6.6856   13.3042 C   0  0  0  0  0  0  0  0  0  0  0  0
   -7.1924    6.5241   14.1007 H   0  0  0  0  0  0  0  0  0  0  0  0
   -6.6281    7.6829   12.9006 H   0  0  0  0  0  0  0  0  0  0  0  0
   -5.4719    6.6393   13.7395 H   0  0  0  0  0  0  0  0  0  0  0  0
  2  3  1  0  0  0  0
  2  1  1  6  0  0  0
  3 27  1  0  0  0  0
  3 37  1  0  0  0  0
  4  2  1  0  0  0  0
  4 57  1  0  0  0  0
  5  6  1  6  0  0  0
  5  2  1  0  0  0  0
  7  5  1  0  0  0  0
  7  8  1  0  0  0  0
  8  3  1  0  0  0  0
  9  8  2  0  0  0  0
  9 10  1  0  0  0  0
 11  9  1  0  0  0  0
 12 11  1  0  0  0  0
 13 15  1  0  0  0  0
 13 11  2  0  0  0  0
 14 13  1  0  0  0  0
 15  7  2  0  0  0  0
 16 15  1  0  0  0  0
 17  5  1  0  0  0  0
 17 18  1  0  0  0  0
 18  4  1  0  0  0  0
 19 18  2  0  0  0  0
 19 20  1  0  0  0  0
 21 19  1  0  0  0  0
 22 21  1  0  0  0  0
 23 25  1  0  0  0  0
 23 21  2  0  0  0  0
 24 23  1  0  0  0  0
 25 17  2  0  0  0  0
 26 25  1  0  0  0  0
 27 28  1  0  0  0  0
 29 27  1  0  0  0  0
 29 30  1  0  0  0  0
 29 32  1  0  0  0  0
 31 29  1  0  0  0  0
 33 35  1  0  0  0  0
 33 34  1  0  0  0  0
 33 27  1  0  0  0  0
 36 33  1  0  0  0  0
 37 39  1  0  0  0  0
 38 37  1  0  0  0  0
 39 42  1  0  0  0  0
 39 41  1  0  0  0  0
 39 40  1  0  0  0  0
 43 46  1  0  0  0  0
 43 37  1  0  0  0  0
 43 44  1  0  0  0  0
 45 43  1  0  0  0  0
 47  4  1  0  0  0  0
 47 48  1  0  0  0  0
 49 52  1  0  0  0  0
 49 47  1  0  0  0  0
 50 49  1  0  0  0  0
 51 49  1  0  0  0  0
 53 47  1  0  0  0  0
 53 55  1  0  0  0  0
 54 53  1  0  0  0  0
 56 53  1  0  0  0  0
 57 59  1  0  0  0  0
 57 63  1  0  0  0  0
 58 57  1  0  0  0  0
 59 61  1  0  0  0  0
 59 60  1  0  0  0  0
 62 59  1  0  0  0  0
 63 66  1  0  0  0  0
 63 64  1  0  0  0  0
 65 63  1  0  0  0  0
M  END
$$$$
