CSD_code = XUXLEJ | q = 1 | S = 0 | Stoichiometry = C24H31BrFeNO2P2(1+) | MND = 6
 OpenBabel04212202123D

 62 65  0  0  1  0  0  0  0  0999 V2000
    2.1110    7.9347    3.7618 Br  0  0  0  0  0  0  0  0  0  0  0  0
    2.4244   10.1059    2.9861 Fe  0  0  0  0  0  0  0  0  0  0  0  0
    4.6000    9.9853    3.2450 P   0  0  0  0  0  4  0  0  0  0  0  0
    0.3117   10.4618    2.5348 P   0  0  0  0  0  4  0  0  0  0  0  0
    2.5029    9.6159    0.1327 O   0  0  0  0  0  1  0  0  0  0  0  0
    1.5528   10.6645    5.7060 O   0  0  0  0  0  1  0  0  0  0  0  0
    2.7729   11.9418    2.4668 N   0  0  1  0  0  0  0  0  0  0  0  0
    5.0665   11.3760    2.0972 C   0  0  0  0  0  0  0  0  0  0  0  0
    6.0138   11.8618    2.3439 H   0  0  0  0  0  0  0  0  0  0  0  0
    5.1590   10.9519    1.0902 H   0  0  0  0  0  0  0  0  0  0  0  0
    3.9314   12.3286    2.1110 C   0  0  0  0  0  3  0  0  0  0  0  0
    4.1063   13.3590    1.8050 H   0  0  0  0  0  0  0  0  0  0  0  0
    1.6447   12.8453    2.4703 C   0  0  0  0  0  0  0  0  0  0  0  0
    1.8896   13.7860    1.9646 H   0  0  0  0  0  0  0  0  0  0  0  0
    1.4097   13.0647    3.5185 H   0  0  0  0  0  0  0  0  0  0  0  0
    0.4478   12.1605    1.8101 C   0  0  0  0  0  0  0  0  0  0  0  0
    0.6294   12.0398    0.7368 H   0  0  0  0  0  0  0  0  0  0  0  0
   -0.4640   12.7455    1.9439 H   0  0  0  0  0  0  0  0  0  0  0  0
    5.3605   10.5133    4.8503 C   0  0  0  0  0  0  0  0  0  0  0  0
    6.4459   10.5490    4.6931 H   0  0  0  0  0  0  0  0  0  0  0  0
    4.8824   11.9059    5.2494 C   0  0  0  0  0  0  0  0  0  0  0  0
    5.2855   12.1625    6.2268 H   0  0  0  0  0  0  0  0  0  0  0  0
    3.7970   11.9456    5.3176 H   0  0  0  0  0  0  0  0  0  0  0  0
    5.2106   12.6662    4.5426 H   0  0  0  0  0  0  0  0  0  0  0  0
    5.0344    9.4779    5.9244 C   0  0  0  0  0  0  0  0  0  0  0  0
    5.4564    9.7837    6.8790 H   0  0  0  0  0  0  0  0  0  0  0  0
    5.4433    8.5013    5.6739 H   0  0  0  0  0  0  0  0  0  0  0  0
    3.9590    9.3699    6.0513 H   0  0  0  0  0  0  0  0  0  0  0  0
    5.5964    8.5179    2.7079 C   0  0  0  0  0  0  0  0  0  0  0  0
    5.4551    7.7780    3.5073 H   0  0  0  0  0  0  0  0  0  0  0  0
    5.0331    7.9253    1.4193 C   0  0  0  0  0  0  0  0  0  0  0  0
    5.6003    7.0365    1.1530 H   0  0  0  0  0  0  0  0  0  0  0  0
    5.1052    8.6246    0.5876 H   0  0  0  0  0  0  0  0  0  0  0  0
    3.9966    7.6219    1.5500 H   0  0  0  0  0  0  0  0  0  0  0  0
    7.0832    8.8364    2.5575 C   0  0  0  0  0  0  0  0  0  0  0  0
    7.6090    7.9291    2.2679 H   0  0  0  0  0  0  0  0  0  0  0  0
    7.5269    9.1865    3.4857 H   0  0  0  0  0  0  0  0  0  0  0  0
    7.2529    9.5796    1.7810 H   0  0  0  0  0  0  0  0  0  0  0  0
    2.5306    9.6922    1.2685 C   0  0  0  0  0  2  0  0  0  0  0  0
    1.9935   10.5108    4.6690 C   0  0  0  0  0  2  0  0  0  0  0  0
   -0.8823   10.5466    3.8930 C   0  0  0  0  0  0  0  0  0  0  0  0
   -1.3701    9.3215    4.3496 C   0  0  0  0  0  0  0  0  0  0  0  0
   -1.0578    8.4055    3.8642 H   0  0  0  0  0  0  0  0  0  0  0  0
   -2.2405    9.2847    5.4218 C   0  0  0  0  0  0  0  0  0  0  0  0
   -2.6149    8.3368    5.7750 H   0  0  0  0  0  0  0  0  0  0  0  0
   -2.6235   10.4633    6.0433 C   0  0  0  0  0  0  0  0  0  0  0  0
   -3.3023   10.4352    6.8814 H   0  0  0  0  0  0  0  0  0  0  0  0
   -2.1322   11.6795    5.5964 C   0  0  0  0  0  0  0  0  0  0  0  0
   -2.4282   12.5956    6.0846 H   0  0  0  0  0  0  0  0  0  0  0  0
   -1.2541   11.7276    4.5283 C   0  0  0  0  0  0  0  0  0  0  0  0
   -0.8700   12.6826    4.1966 H   0  0  0  0  0  0  0  0  0  0  0  0
   -0.6011    9.5104    1.2929 C   0  0  0  0  0  0  0  0  0  0  0  0
   -0.2243    8.2232    0.9260 C   0  0  0  0  0  0  0  0  0  0  0  0
    0.6405    7.7545    1.3731 H   0  0  0  0  0  0  0  0  0  0  0  0
   -0.9764    7.5302   -0.0072 C   0  0  0  0  0  0  0  0  0  0  0  0
   -0.6840    6.5310   -0.2899 H   0  0  0  0  0  0  0  0  0  0  0  0
   -2.0990    8.1142   -0.5691 C   0  0  0  0  0  0  0  0  0  0  0  0
   -2.6817    7.5713   -1.2970 H   0  0  0  0  0  0  0  0  0  0  0  0
   -2.4842    9.3923   -0.1914 C   0  0  0  0  0  0  0  0  0  0  0  0
   -3.3658    9.8422   -0.6219 H   0  0  0  0  0  0  0  0  0  0  0  0
   -1.7438   10.0909    0.7419 C   0  0  0  0  0  0  0  0  0  0  0  0
   -2.0498   11.0813    1.0504 H   0  0  0  0  0  0  0  0  0  0  0  0
  2  3  1  0  0  0  0
  2  1  1  0  0  0  0
  2 40  1  0  0  0  0
  3 19  1  0  0  0  0
  4  2  1  0  0  0  0
  4 41  1  0  0  0  0
  5 39  1  0  0  0  0
  7 11  1  6  0  0  0
  7 13  1  0  0  0  0
  7  2  1  0  0  0  0
  8 11  1  0  0  0  0
  8  9  1  0  0  0  0
  8  3  1  0  0  0  0
 10  8  1  0  0  0  0
 12 11  1  0  0  0  0
 13 15  1  0  0  0  0
 14 13  1  0  0  0  0
 16 18  1  0  0  0  0
 16 13  1  0  0  0  0
 16  4  1  0  0  0  0
 17 16  1  0  0  0  0
 19 21  1  0  0  0  0
 19 25  1  0  0  0  0
 20 19  1  0  0  0  0
 21 23  1  0  0  0  0
 21 22  1  0  0  0  0
 24 21  1  0  0  0  0
 25 28  1  0  0  0  0
 25 26  1  0  0  0  0
 27 25  1  0  0  0  0
 29  3  1  0  0  0  0
 29 30  1  0  0  0  0
 31 34  1  0  0  0  0
 31 29  1  0  0  0  0
 32 31  1  0  0  0  0
 33 31  1  0  0  0  0
 35 29  1  0  0  0  0
 35 37  1  0  0  0  0
 36 35  1  0  0  0  0
 38 35  1  0  0  0  0
 39  2  1  0  0  0  0
 40  6  1  0  0  0  0
 41 42  2  0  0  0  0
 41 50  1  0  0  0  0
 42 44  1  0  0  0  0
 43 42  1  0  0  0  0
 44 45  1  0  0  0  0
 44 46  2  0  0  0  0
 46 47  1  0  0  0  0
 48 46  1  0  0  0  0
 48 49  1  0  0  0  0
 50 48  2  0  0  0  0
 51 50  1  0  0  0  0
 52  4  1  0  0  0  0
 53 52  1  0  0  0  0
 53 54  1  0  0  0  0
 55 53  2  0  0  0  0
 56 55  1  0  0  0  0
 57 59  2  0  0  0  0
 57 55  1  0  0  0  0
 58 57  1  0  0  0  0
 59 61  1  0  0  0  0
 60 59  1  0  0  0  0
 61 62  1  0  0  0  0
 61 52  2  0  0  0  0
M  END
$$$$
