CSD_code = XUYBUO | q = 0 | S = 0 | Stoichiometry = C20H28Cl2STi | MND = 8
 OpenBabel04212202123D

 52 53  0  0  1  0  0  0  0  0999 V2000
    2.0263    2.9803    6.5825 Ti  0  0  0  0  0  0  0  0  0  0  0  0
    0.2974    3.7796    5.5592 Cl  0  0  0  0  0  0  0  0  0  0  0  0
    1.2779    0.9667    6.7513 Cl  0  0  0  0  0  0  0  0  0  0  0  0
    3.7719    2.5627    5.1426 S   0  0  0  0  0  0  0  0  0  0  0  0
    3.5624    4.3039    7.7112 C   0  0  0  0  0  0  0  0  0  0  0  0
    3.4965    3.0544    8.3759 C   0  0  0  0  0  0  0  0  0  0  0  0
    2.1972    2.9129    8.9049 C   0  0  0  0  0  0  0  0  0  0  0  0
    1.4484    4.0536    8.5417 C   0  0  1  0  0  0  0  0  0  0  0  0
    2.2955    4.9175    7.8074 C   0  0  0  0  0  0  0  0  0  0  0  0
    2.6778    2.7423    3.7442 C   0  0  0  0  0  0  0  0  0  0  0  0
    2.3981    4.0308    3.2636 C   0  0  0  0  0  0  0  0  0  0  0  0
    1.6047    4.1503    2.1347 C   0  0  0  0  0  0  0  0  0  0  0  0
    1.0768    3.0412    1.4877 C   0  0  0  0  0  0  0  0  0  0  0  0
    1.3650    1.7827    1.9900 C   0  0  0  0  0  0  0  0  0  0  0  0
    2.1636    1.6064    3.1111 C   0  0  0  0  0  0  0  0  0  0  0  0
    2.0721    6.4834    3.8547 C   0  0  0  0  0  0  0  0  0  0  0  0
    2.9677    5.2496    3.9568 C   0  0  0  0  0  0  0  0  0  0  0  0
    4.3640    5.5376    3.3959 C   0  0  0  0  0  0  0  0  0  0  0  0
    0.7921    2.5048   -0.9443 C   0  0  0  0  0  0  0  0  0  0  0  0
    0.1976    3.2142    0.2739 C   0  0  0  0  0  0  0  0  0  0  0  0
   -1.2165    2.7067    0.5647 C   0  0  0  0  0  0  0  0  0  0  0  0
    3.5550   -0.4027    2.6808 C   0  0  0  0  0  0  0  0  0  0  0  0
    2.4938    0.2146    3.5955 C   0  0  0  0  0  0  0  0  0  0  0  0
    1.2522   -0.6744    3.6770 C   0  0  0  0  0  0  0  0  0  0  0  0
    4.4626    4.7520    7.3077 H   0  0  0  0  0  0  0  0  0  0  0  0
    4.3324    2.3872    8.5496 H   0  0  0  0  0  0  0  0  0  0  0  0
    1.8557    2.1050    9.5395 H   0  0  0  0  0  0  0  0  0  0  0  0
    0.4368    4.2783    8.8577 H   0  0  0  0  0  0  0  0  0  0  0  0
    2.0429    5.9187    7.4798 H   0  0  0  0  0  0  0  0  0  0  0  0
    1.3821    5.1316    1.7456 H   0  0  0  0  0  0  0  0  0  0  0  0
    0.9642    0.9113    1.4974 H   0  0  0  0  0  0  0  0  0  0  0  0
    3.0669    5.0080    5.0315 H   0  0  0  0  0  0  0  0  0  0  0  0
    2.0572    6.8821    2.8435 H   0  0  0  0  0  0  0  0  0  0  0  0
    2.4501    7.2631    4.5135 H   0  0  0  0  0  0  0  0  0  0  0  0
    1.0559    6.2360    4.1555 H   0  0  0  0  0  0  0  0  0  0  0  0
    5.0132    4.6780    3.5477 H   0  0  0  0  0  0  0  0  0  0  0  0
    4.8029    6.4000    3.8929 H   0  0  0  0  0  0  0  0  0  0  0  0
    4.3036    5.7428    2.3292 H   0  0  0  0  0  0  0  0  0  0  0  0
    0.1356    4.2845    0.0476 H   0  0  0  0  0  0  0  0  0  0  0  0
    1.8024    2.8606   -1.1339 H   0  0  0  0  0  0  0  0  0  0  0  0
    0.1845    2.6994   -1.8253 H   0  0  0  0  0  0  0  0  0  0  0  0
    0.8310    1.4301   -0.7871 H   0  0  0  0  0  0  0  0  0  0  0  0
   -1.2099    1.6375    0.7607 H   0  0  0  0  0  0  0  0  0  0  0  0
   -1.8684    2.8971   -0.2851 H   0  0  0  0  0  0  0  0  0  0  0  0
   -1.6254    3.2112    1.4372 H   0  0  0  0  0  0  0  0  0  0  0  0
    2.9198    0.2909    4.6051 H   0  0  0  0  0  0  0  0  0  0  0  0
    3.1840   -0.4760    1.6605 H   0  0  0  0  0  0  0  0  0  0  0  0
    3.8169   -1.3992    3.0288 H   0  0  0  0  0  0  0  0  0  0  0  0
    4.4522    0.2123    2.6787 H   0  0  0  0  0  0  0  0  0  0  0  0
    0.4575   -0.1623    4.2167 H   0  0  0  0  0  0  0  0  0  0  0  0
    1.4925   -1.5926    4.2081 H   0  0  0  0  0  0  0  0  0  0  0  0
    0.8874   -0.9421    2.6882 H   0  0  0  0  0  0  0  0  0  0  0  0
  1  3  1  0  0  0  0
  1  8  1  0  0  0  0
  2  1  1  0  0  0  0
  4  1  1  0  0  0  0
  5  9  2  0  0  0  0
  5  6  1  0  0  0  0
  6 26  1  0  0  0  0
  6  7  2  0  0  0  0
  7 27  1  0  0  0  0
  8 28  1  1  0  0  0
  8  7  1  0  0  0  0
  9  8  1  0  0  0  0
 10  4  1  0  0  0  0
 11 10  1  0  0  0  0
 11 17  1  0  0  0  0
 12 11  2  0  0  0  0
 13 14  2  0  0  0  0
 13 12  1  0  0  0  0
 14 15  1  0  0  0  0
 15 23  1  0  0  0  0
 15 10  2  0  0  0  0
 16 17  1  0  0  0  0
 16 35  1  0  0  0  0
 16 34  1  0  0  0  0
 17 32  1  0  0  0  0
 18 36  1  0  0  0  0
 18 37  1  0  0  0  0
 18 17  1  0  0  0  0
 19 42  1  0  0  0  0
 19 20  1  0  0  0  0
 20 21  1  0  0  0  0
 20 13  1  0  0  0  0
 21 43  1  0  0  0  0
 21 45  1  0  0  0  0
 22 48  1  0  0  0  0
 22 23  1  0  0  0  0
 23 24  1  0  0  0  0
 23 46  1  0  0  0  0
 24 51  1  0  0  0  0
 24 50  1  0  0  0  0
 25  5  1  0  0  0  0
 29  9  1  0  0  0  0
 30 12  1  0  0  0  0
 31 14  1  0  0  0  0
 33 16  1  0  0  0  0
 38 18  1  0  0  0  0
 39 20  1  0  0  0  0
 40 19  1  0  0  0  0
 41 19  1  0  0  0  0
 44 21  1  0  0  0  0
 47 22  1  0  0  0  0
 49 22  1  0  0  0  0
 52 24  1  0  0  0  0
M  END
$$$$
