CSD_code = XUYDIE | q = 0 | S = 0 | Stoichiometry = C12H34Cl2N2O2P2Ru | MND = 6
 OpenBabel04212202123D

 55 55  0  0  0  0  0  0  0  0999 V2000
    4.7991    0.1242    8.7837 Ru  0  0  0  0  0  0  0  0  0  0  0  0
    5.1719    1.1869    6.6846 Cl  0  0  0  0  0  0  0  0  0  0  0  0
    4.0467   -0.9897   10.7586 Cl  0  0  0  0  0  0  0  0  0  0  0  0
    5.8285    1.6673   10.0924 P   0  0  0  0  0  4  0  0  0  0  0  0
    6.6568   -1.1411    8.4069 P   0  0  0  0  0  4  0  0  0  0  0  0
    8.0790    4.9885    9.3016 O   0  0  0  0  0  0  0  0  0  0  0  0
    9.0696   -3.2404    8.6654 O   0  0  0  0  0  0  0  0  0  0  0  0
    2.8982    1.1698    8.8891 N   0  0  0  0  0  4  0  0  0  0  0  0
    2.5329    0.9504    9.8202 H   0  0  0  0  0  0  0  0  0  0  0  0
    2.9723    2.1811    8.7908 H   0  0  0  0  0  0  0  0  0  0  0  0
    3.5434   -1.2170    7.6355 N   0  0  0  0  0  4  0  0  0  0  0  0
    3.7815   -0.9960    6.6636 H   0  0  0  0  0  0  0  0  0  0  0  0
    3.7098   -2.2080    7.8033 H   0  0  0  0  0  0  0  0  0  0  0  0
    6.9883    1.0558   11.3746 C   0  0  0  0  0  0  0  0  0  0  0  0
    7.2337    1.8393   12.0897 H   0  0  0  0  0  0  0  0  0  0  0  0
    7.8965    0.6722   10.9148 H   0  0  0  0  0  0  0  0  0  0  0  0
    6.4772    0.2394   11.8850 H   0  0  0  0  0  0  0  0  0  0  0  0
    4.6783    2.5994   11.1886 C   0  0  0  0  0  0  0  0  0  0  0  0
    5.2301    3.1814   11.9246 H   0  0  0  0  0  0  0  0  0  0  0  0
    4.0590    1.8671   11.7073 H   0  0  0  0  0  0  0  0  0  0  0  0
    4.0486    3.2672   10.6017 H   0  0  0  0  0  0  0  0  0  0  0  0
    6.7484    3.0264    9.2480 C   0  0  0  0  0  0  0  0  0  0  0  0
    7.4116    2.5646    8.5130 H   0  0  0  0  0  0  0  0  0  0  0  0
    6.0055    3.5920    8.6773 H   0  0  0  0  0  0  0  0  0  0  0  0
    7.5436    3.9783   10.1272 C   0  0  0  0  0  0  0  0  0  0  0  0
    6.9010    4.4352   10.8971 H   0  0  0  0  0  0  0  0  0  0  0  0
    8.3612    3.4460   10.6386 H   0  0  0  0  0  0  0  0  0  0  0  0
    8.8443    5.9284   10.0059 C   0  0  0  0  0  0  0  0  0  0  0  0
    8.2427    6.4458   10.7653 H   0  0  0  0  0  0  0  0  0  0  0  0
    9.2033    6.6498    9.2749 H   0  0  0  0  0  0  0  0  0  0  0  0
    9.7009    5.4548   10.5036 H   0  0  0  0  0  0  0  0  0  0  0  0
    8.2122   -0.2866    7.9700 C   0  0  0  0  0  0  0  0  0  0  0  0
    8.9998   -1.0186    7.8064 H   0  0  0  0  0  0  0  0  0  0  0  0
    8.4991    0.3992    8.7646 H   0  0  0  0  0  0  0  0  0  0  0  0
    8.0215    0.2856    7.0624 H   0  0  0  0  0  0  0  0  0  0  0  0
    6.5250   -2.2439    6.9424 C   0  0  0  0  0  0  0  0  0  0  0  0
    6.2208   -1.6210    6.1005 H   0  0  0  0  0  0  0  0  0  0  0  0
    5.7875   -3.0295    7.1042 H   0  0  0  0  0  0  0  0  0  0  0  0
    7.4965   -2.6860    6.7331 H   0  0  0  0  0  0  0  0  0  0  0  0
    7.1694   -2.2869    9.7730 C   0  0  0  0  0  0  0  0  0  0  0  0
    7.8005   -1.7022   10.4451 H   0  0  0  0  0  0  0  0  0  0  0  0
    6.2573   -2.5477   10.3165 H   0  0  0  0  0  0  0  0  0  0  0  0
    7.8945   -3.5616    9.3765 C   0  0  0  0  0  0  0  0  0  0  0  0
    8.1540   -4.1306   10.2853 H   0  0  0  0  0  0  0  0  0  0  0  0
    7.2484   -4.2048    8.7596 H   0  0  0  0  0  0  0  0  0  0  0  0
    9.8171   -4.3691    8.3010 C   0  0  0  0  0  0  0  0  0  0  0  0
   10.1403   -4.9344    9.1841 H   0  0  0  0  0  0  0  0  0  0  0  0
   10.6915   -4.0083    7.7626 H   0  0  0  0  0  0  0  0  0  0  0  0
    9.2388   -5.0394    7.6514 H   0  0  0  0  0  0  0  0  0  0  0  0
    2.1426   -0.8911    7.8934 C   0  0  0  0  0  0  0  0  0  0  0  0
    1.8869   -1.2594    8.8940 H   0  0  0  0  0  0  0  0  0  0  0  0
    1.4680   -1.3509    7.1576 H   0  0  0  0  0  0  0  0  0  0  0  0
    2.0107    0.6289    7.8620 C   0  0  0  0  0  0  0  0  0  0  0  0
    2.3517    1.0036    6.8897 H   0  0  0  0  0  0  0  0  0  0  0  0
    0.9649    0.9284    8.0181 H   0  0  0  0  0  0  0  0  0  0  0  0
  1  8  1  0  0  0  0
  1  4  1  0  0  0  0
  1  3  1  0  0  0  0
  2  1  1  0  0  0  0
  4 18  1  0  0  0  0
  4 14  1  0  0  0  0
  5  1  1  0  0  0  0
  5 40  1  0  0  0  0
  6 28  1  0  0  0  0
  6 25  1  0  0  0  0
  7 43  1  0  0  0  0
  8  9  1  0  0  0  0
 10  8  1  0  0  0  0
 11 13  1  0  0  0  0
 11 50  1  0  0  0  0
 11  1  1  0  0  0  0
 12 11  1  0  0  0  0
 14 17  1  0  0  0  0
 14 15  1  0  0  0  0
 16 14  1  0  0  0  0
 18 20  1  0  0  0  0
 18 19  1  0  0  0  0
 21 18  1  0  0  0  0
 22  4  1  0  0  0  0
 22 25  1  0  0  0  0
 23 22  1  0  0  0  0
 24 22  1  0  0  0  0
 25 27  1  0  0  0  0
 25 26  1  0  0  0  0
 28 31  1  0  0  0  0
 28 29  1  0  0  0  0
 30 28  1  0  0  0  0
 32  5  1  0  0  0  0
 32 34  1  0  0  0  0
 33 32  1  0  0  0  0
 35 32  1  0  0  0  0
 36 38  1  0  0  0  0
 36  5  1  0  0  0  0
 37 36  1  0  0  0  0
 39 36  1  0  0  0  0
 40 42  1  0  0  0  0
 40 41  1  0  0  0  0
 43 40  1  0  0  0  0
 43 44  1  0  0  0  0
 45 43  1  0  0  0  0
 46  7  1  0  0  0  0
 46 47  1  0  0  0  0
 48 46  1  0  0  0  0
 49 46  1  0  0  0  0
 50 51  1  0  0  0  0
 52 50  1  0  0  0  0
 53 50  1  0  0  0  0
 53 55  1  0  0  0  0
 53  8  1  0  0  0  0
 54 53  1  0  0  0  0
M  END
$$$$
