CSD_code = XUYWAQ | q = 1 | S = 0 | Stoichiometry = C24H20ClN3NiP(1+) | MND = 4
 OpenBabel04212202123D

 50 55  0  0  1  0  0  0  0  0999 V2000
    6.2515    0.2046    3.5306 Ni  0  0  2  0  0  0  0  0  0  0  0  0
    7.5115    1.7610    4.2183 P   0  0  0  0  0  4  0  0  0  0  0  0
    5.8674    0.1595    5.5120 Cl  0  0  0  0  0  0  0  0  0  0  0  0
    6.6915    0.2769    1.6851 N   0  0  2  0  0  0  0  0  0  0  0  0
    4.9652   -1.2298    2.9879 N   0  0  0  0  0  0  0  0  0  0  0  0
    8.6840    1.5513    5.5739 C   0  0  0  0  0  0  0  0  0  0  0  0
    5.9531   -0.6312    1.0055 N   0  0  0  0  0  0  0  0  0  0  0  0
    6.0844   -0.7274    0.0022 H   0  0  0  0  0  0  0  0  0  0  0  0
    8.5516    2.4131    2.8517 C   0  0  0  0  0  0  0  0  0  0  0  0
    5.0603   -1.4369    1.6664 C   0  0  2  0  0  3  0  0  0  0  0  0
    9.2364    2.6339    0.5499 C   0  0  0  0  0  0  0  0  0  0  0  0
    9.1503    2.3343   -0.4844 H   0  0  0  0  0  0  0  0  0  0  0  0
    9.9502    1.0342    5.3080 C   0  0  0  0  0  0  0  0  0  0  0  0
   10.2320    0.7961    4.2910 H   0  0  0  0  0  0  0  0  0  0  0  0
    8.4227    2.0135    1.5102 C   0  0  0  0  0  0  0  0  0  0  0  0
    9.4713    3.4006    3.1853 C   0  0  0  0  0  0  0  0  0  0  0  0
    9.5739    3.6960    4.2192 H   0  0  0  0  0  0  0  0  0  0  0  0
    4.3027   -2.4011    1.0002 C   0  0  0  0  0  0  0  0  0  0  0  0
    4.4091   -2.5377   -0.0638 H   0  0  0  0  0  0  0  0  0  0  0  0
   10.1418    3.6143    0.8967 C   0  0  0  0  0  0  0  0  0  0  0  0
   10.7544    4.0746    0.1377 H   0  0  0  0  0  0  0  0  0  0  0  0
    4.1148   -1.9753    3.6950 C   0  0  0  0  0  0  0  0  0  0  0  0
    4.0732   -1.7725    4.7569 H   0  0  0  0  0  0  0  0  0  0  0  0
   10.2623    4.0017    2.2227 C   0  0  0  0  0  0  0  0  0  0  0  0
   10.9688    4.7662    2.5058 H   0  0  0  0  0  0  0  0  0  0  0  0
    6.4514    3.1934    4.5565 C   0  0  0  0  0  0  0  0  0  0  0  0
   10.8390    0.8287    6.3467 C   0  0  0  0  0  0  0  0  0  0  0  0
   11.8204    0.4289    6.1423 H   0  0  0  0  0  0  0  0  0  0  0  0
    7.5270    0.9939    1.0176 C   0  0  0  0  0  3  0  0  0  0  0  0
    7.5910    0.8232   -0.0599 H   0  0  0  0  0  0  0  0  0  0  0  0
    5.1682    3.1561    4.0161 C   0  0  0  0  0  0  0  0  0  0  0  0
    4.8452    2.2603    3.4792 H   0  0  0  0  0  0  0  0  0  0  0  0
    3.3286   -2.9497    3.1138 C   0  0  0  0  0  0  0  0  0  0  0  0
    2.6532   -3.5299    3.7192 H   0  0  0  0  0  0  0  0  0  0  0  0
   10.4672    1.1289    7.6480 C   0  0  0  0  0  0  0  0  0  0  0  0
   11.1628    0.9660    8.4566 H   0  0  0  0  0  0  0  0  0  0  0  0
    3.4259   -3.1651    1.7426 C   0  0  0  0  0  0  0  0  0  0  0  0
    2.8248   -3.9206    1.2619 H   0  0  0  0  0  0  0  0  0  0  0  0
    6.0119    5.3790    5.4330 C   0  0  0  0  0  0  0  0  0  0  0  0
    6.3348    6.2443    5.9914 H   0  0  0  0  0  0  0  0  0  0  0  0
    6.8766    4.3118    5.2639 C   0  0  0  0  0  0  0  0  0  0  0  0
    7.8660    4.3447    5.6958 H   0  0  0  0  0  0  0  0  0  0  0  0
    9.2012    1.6272    7.9145 C   0  0  0  0  0  0  0  0  0  0  0  0
    8.9104    1.8505    8.9294 H   0  0  0  0  0  0  0  0  0  0  0  0
    8.3024    1.8312    6.8837 C   0  0  0  0  0  0  0  0  0  0  0  0
    7.3068    2.1980    7.0881 H   0  0  0  0  0  0  0  0  0  0  0  0
    4.3118    4.2266    4.1838 C   0  0  0  0  0  0  0  0  0  0  0  0
    3.3154    4.1944    3.7706 H   0  0  0  0  0  0  0  0  0  0  0  0
    4.7360    5.3397    4.8937 C   0  0  0  0  0  0  0  0  0  0  0  0
    4.0678    6.1752    5.0326 H   0  0  0  0  0  0  0  0  0  0  0  0
  1  2  1  0  0  0  0
  1  3  1  1  0  0  0
  2 26  1  0  0  0  0
  2  6  1  0  0  0  0
  4 29  1  1  0  0  0
  4  1  1  0  0  0  0
  5  1  1  0  0  0  0
  5 22  1  0  0  0  0
  6 45  1  0  0  0  0
  7 10  1  0  0  0  0
  7  4  1  0  0  0  0
  8  7  1  0  0  0  0
  9 16  1  0  0  0  0
  9  2  1  0  0  0  0
 10 18  1  6  0  0  0
 10  5  1  0  0  0  0
 11 20  2  0  0  0  0
 11 15  1  0  0  0  0
 12 11  1  0  0  0  0
 13  6  2  0  0  0  0
 13 27  1  0  0  0  0
 14 13  1  0  0  0  0
 15  9  2  0  0  0  0
 16 17  1  0  0  0  0
 18 37  2  0  0  0  0
 19 18  1  0  0  0  0
 20 24  1  0  0  0  0
 21 20  1  0  0  0  0
 22 23  1  0  0  0  0
 24 25  1  0  0  0  0
 24 16  2  0  0  0  0
 26 41  1  0  0  0  0
 27 35  2  0  0  0  0
 28 27  1  0  0  0  0
 29 15  1  0  0  0  0
 30 29  1  0  0  0  0
 31 47  1  0  0  0  0
 31 26  2  0  0  0  0
 32 31  1  0  0  0  0
 33 22  2  0  0  0  0
 33 34  1  0  0  0  0
 35 43  1  0  0  0  0
 35 36  1  0  0  0  0
 37 33  1  0  0  0  0
 38 37  1  0  0  0  0
 39 40  1  0  0  0  0
 41 39  2  0  0  0  0
 41 42  1  0  0  0  0
 43 44  1  0  0  0  0
 45 46  1  0  0  0  0
 45 43  2  0  0  0  0
 47 49  2  0  0  0  0
 48 47  1  0  0  0  0
 49 50  1  0  0  0  0
 49 39  1  0  0  0  0
M  END
$$$$
