CSD_code = YABCAH | q = 0 | S = 0 | Stoichiometry = C17H11Cl3N2OZn | MND = 4
 OpenBabel04212202123D

 35 39  0  0  1  0  0  0  0  0999 V2000
    5.2516    2.9349   -1.2472 C   0  0  0  0  0  0  0  0  0  0  0  0
    5.6034    1.5958   -1.5137 C   0  0  0  0  0  0  0  0  0  0  0  0
    4.9555    0.8134   -1.1437 H   0  0  0  0  0  0  0  0  0  0  0  0
    6.7397    1.3153   -2.2195 C   0  0  0  0  0  0  0  0  0  0  0  0
    7.0124    0.2905   -2.4194 H   0  0  0  0  0  0  0  0  0  0  0  0
    7.5661    2.3508   -2.6910 C   0  0  0  0  0  0  0  0  0  0  0  0
    8.4587    2.1024   -3.2450 H   0  0  0  0  0  0  0  0  0  0  0  0
    7.2488    3.6593   -2.4512 C   0  0  0  0  0  3  0  0  0  0  0  0
    7.8807    4.4588   -2.8088 H   0  0  0  0  0  0  0  0  0  0  0  0
    6.0874    3.9877   -1.7241 C   0  0  0  0  0  0  0  0  0  0  0  0
    5.7045    5.3109   -1.4294 C   0  0  0  0  0  0  0  0  0  0  0  0
    6.3186    6.1302   -1.7741 H   0  0  0  0  0  0  0  0  0  0  0  0
    4.5666    5.5413   -0.7049 C   0  0  0  0  0  0  0  0  0  0  0  0
    4.2429    6.5374   -0.4519 H   0  0  0  0  0  0  0  0  0  0  0  0
    3.8018    4.4398   -0.2733 C   0  0  0  0  0  0  0  0  0  0  0  0
    2.5836    4.6375    0.5216 C   0  0  2  0  0  3  0  0  0  0  0  0
    1.3027    6.1942    1.7689 C   0  0  0  0  0  0  0  0  0  0  0  0
    0.8054    7.1176    1.4578 H   0  0  0  0  0  0  0  0  0  0  0  0
    1.8486    6.3886    2.7052 H   0  0  0  0  0  0  0  0  0  0  0  0
    0.3190    5.0770    1.9736 C   0  0  0  0  0  0  0  0  0  0  0  0
   -0.9007    5.2681    2.5904 C   0  0  0  0  0  0  0  0  0  0  0  0
   -1.2004    6.2508    2.9197 H   0  0  0  0  0  0  0  0  0  0  0  0
   -1.7362    4.1758    2.7959 C   0  0  0  0  0  0  0  0  0  0  0  0
   -1.3637    2.9017    2.3892 C   0  0  0  0  0  0  0  0  0  0  0  0
   -2.0234    2.0665    2.5609 H   0  0  0  0  0  0  0  0  0  0  0  0
   -0.1461    2.7135    1.7643 C   0  0  0  0  0  0  0  0  0  0  0  0
    0.1626    1.7354    1.4260 H   0  0  0  0  0  0  0  0  0  0  0  0
    0.6987    3.7980    1.5553 C   0  0  0  0  0  0  0  0  0  0  0  0
    2.0744    0.1554   -0.2197 Cl  0  0  0  0  0  0  0  0  0  0  0  0
    4.3544    2.0735    2.5155 Cl  0  0  0  0  0  0  0  0  0  0  0  0
   -3.2524    4.4166    3.5739 Cl  0  0  0  0  0  0  0  0  0  0  0  0
    4.1357    3.1942   -0.5443 N   0  0  0  0  0  0  0  0  0  0  0  0
    1.9075    3.6135    0.8953 N   0  0  0  0  0  0  0  0  0  0  0  0
    2.2691    5.9107    0.7526 O   0  0  0  0  0  0  0  0  0  0  0  0
    3.0751    1.8585    0.7254 Zn  0  0  0  0  0  0  0  0  0  0  0  0
  1 32  1  0  0  0  0
  2  1  2  0  0  0  0
  2  3  1  0  0  0  0
  4  2  1  0  0  0  0
  5  4  1  0  0  0  0
  6  8  1  0  0  0  0
  6  4  2  0  0  0  0
  7  6  1  0  0  0  0
  8 10  1  0  0  0  0
  9  8  1  0  0  0  0
 10 11  2  0  0  0  0
 10  1  1  0  0  0  0
 11 13  1  0  0  0  0
 12 11  1  0  0  0  0
 13 14  1  0  0  0  0
 13 15  2  0  0  0  0
 16 15  1  6  0  0  0
 16 34  1  0  0  0  0
 16 33  1  0  0  0  0
 17 20  1  0  0  0  0
 17 19  1  0  0  0  0
 18 17  1  0  0  0  0
 20 21  1  0  0  0  0
 21 23  2  0  0  0  0
 21 22  1  0  0  0  0
 23 31  1  0  0  0  0
 24 25  1  0  0  0  0
 24 23  1  0  0  0  0
 26 24  2  0  0  0  0
 27 26  1  0  0  0  0
 28 26  1  0  0  0  0
 28 20  2  0  0  0  0
 29 35  1  0  0  0  0
 32 15  1  0  0  0  0
 32 35  1  0  0  0  0
 33 28  1  0  0  0  0
 34 17  1  0  0  0  0
 35 33  1  0  0  0  0
 35 30  1  0  0  0  0
M  END
$$$$
