CSD_code = YABGAK | q = 0 | S = 0 | Stoichiometry = C12H12Cl2FeN2 | MND = 4
 OpenBabel04212202123D

 29 31  0  0  1  0  0  0  0  0999 V2000
    2.3665    2.8181    1.8433 Fe  0  0  0  0  0  0  0  0  0  0  0  0
    1.9770    1.5883    0.5201 N   0  0  0  0  0  0  0  0  0  0  0  0
    4.4515    2.8181    1.7517 Cl  0  0  0  0  0  0  0  0  0  0  0  0
    0.5626    2.8181    2.8952 Cl  0  0  0  0  0  0  0  0  0  0  0  0
    2.0271    0.2562    0.6797 C   0  0  1  0  0  3  0  0  0  0  0  0
    1.7220   -0.6078   -0.3548 C   0  0  0  0  0  0  0  0  0  0  0  0
    1.7739   -1.6722   -0.1880 H   0  0  0  0  0  0  0  0  0  0  0  0
    1.3517   -0.1005   -1.5983 C   0  0  0  0  0  0  0  0  0  0  0  0
    1.1117   -0.7673   -2.4110 H   0  0  0  0  0  0  0  0  0  0  0  0
    1.2993    1.2666   -1.7667 C   0  0  0  0  0  0  0  0  0  0  0  0
    1.0178    1.6979   -2.7131 H   0  0  0  0  0  0  0  0  0  0  0  0
    1.6167    2.0974   -0.6932 C   0  0  0  0  0  0  0  0  0  0  0  0
    2.4310   -0.2611    2.0282 C   0  0  0  0  0  0  0  0  0  0  0  0
    2.6045    0.5656    2.7267 H   0  0  0  0  0  0  0  0  0  0  0  0
    3.3479   -0.8424    1.9470 H   0  0  0  0  0  0  0  0  0  0  0  0
    1.6493   -0.8997    2.4350 H   0  0  0  0  0  0  0  0  0  0  0  0
    1.6167    3.5388   -0.6932 C   0  0  1  0  0  3  0  0  0  0  0  0
    1.9770    4.0479    0.5201 N   0  0  0  0  0  0  0  0  0  0  0  0
    2.0271    5.3801    0.6797 C   0  0  0  0  0  0  0  0  0  0  0  0
    1.7220    6.2441   -0.3548 C   0  0  0  0  0  0  0  0  0  0  0  0
    1.7739    7.3084   -0.1879 H   0  0  0  0  0  0  0  0  0  0  0  0
    1.3517    5.7367   -1.5983 C   0  0  0  0  0  0  0  0  0  0  0  0
    1.1117    6.4035   -2.4110 H   0  0  0  0  0  0  0  0  0  0  0  0
    1.2993    4.3696   -1.7667 C   0  0  0  0  0  0  0  0  0  0  0  0
    1.0178    3.9384   -2.7131 H   0  0  0  0  0  0  0  0  0  0  0  0
    2.4310    5.8974    2.0282 C   0  0  0  0  0  0  0  0  0  0  0  0
    2.6045    5.0706    2.7267 H   0  0  0  0  0  0  0  0  0  0  0  0
    3.3479    6.4786    1.9470 H   0  0  0  0  0  0  0  0  0  0  0  0
    1.6494    6.5360    2.4350 H   0  0  0  0  0  0  0  0  0  0  0  0
  1  4  1  0  0  0  0
  2  5  1  0  0  0  0
  2  1  1  0  0  0  0
  3  1  1  0  0  0  0
  5 13  1  6  0  0  0
  6  7  1  0  0  0  0
  6  5  1  0  0  0  0
  8  6  2  0  0  0  0
  9  8  1  0  0  0  0
 10  8  1  0  0  0  0
 10 12  2  0  0  0  0
 11 10  1  0  0  0  0
 12 17  1  0  0  0  0
 12  2  1  0  0  0  0
 13 16  1  0  0  0  0
 13 14  1  0  0  0  0
 15 13  1  0  0  0  0
 17 24  1  6  0  0  0
 17 18  1  0  0  0  0
 18 19  1  0  0  0  0
 18  1  1  0  0  0  0
 19 26  1  0  0  0  0
 20 21  1  0  0  0  0
 20 19  2  0  0  0  0
 22 20  1  0  0  0  0
 23 22  1  0  0  0  0
 24 22  2  0  0  0  0
 25 24  1  0  0  0  0
 26 29  1  0  0  0  0
 26 27  1  0  0  0  0
 28 26  1  0  0  0  0
M  END
$$$$
