CSD_code = YABPAS | q = 0 | S = 0 | Stoichiometry = C30H30Cl2O2P2Pd | MND = 4
 OpenBabel04212202123D

 67 70  0  0  0  0  0  0  0  0999 V2000
    6.5816   -0.0000    9.2951 Pd  0  0  0  0  0  0  0  0  0  0  0  0
    4.5888    0.6403    8.3519 Cl  0  0  0  0  0  0  0  0  0  0  0  0
    7.7473    1.7314    8.4483 P   0  0  0  0  0  4  0  0  0  0  0  0
    6.8798    1.9925   11.1363 O   0  0  0  0  0  0  0  0  0  0  0  0
    8.7343    2.5694    9.7870 C   0  0  0  0  0  0  0  0  0  0  0  0
    8.0700    2.2167   11.0991 C   0  0  0  0  0  0  0  0  0  0  0  0
    8.9583    2.1476   12.3016 C   0  0  0  0  0  0  0  0  0  0  0  0
    9.0154    1.2683    7.2411 C   0  0  0  0  0  0  0  0  0  0  0  0
    8.9672   -0.0245    6.7316 C   0  0  0  0  0  0  0  0  0  0  0  0
    9.9110   -0.4350    5.8061 C   0  0  0  0  0  0  0  0  0  0  0  0
   10.8995    0.4418    5.3909 C   0  0  0  0  0  0  0  0  0  0  0  0
   10.9464    1.7323    5.8964 C   0  0  0  0  0  0  0  0  0  0  0  0
   10.0065    2.1498    6.8200 C   0  0  0  0  0  0  0  0  0  0  0  0
    6.8618    3.1186    7.6783 C   0  0  0  0  0  0  0  0  0  0  0  0
    6.9327    3.3870    6.3169 C   0  0  0  0  0  0  0  0  0  0  0  0
    6.1798    4.4154    5.7780 C   0  0  0  0  0  0  0  0  0  0  0  0
    5.3441    5.1662    6.5872 C   0  0  0  0  0  0  0  0  0  0  0  0
    5.2510    4.8831    7.9410 C   0  0  0  0  0  0  0  0  0  0  0  0
    6.0021    3.8600    8.4858 C   0  0  0  0  0  0  0  0  0  0  0  0
    8.7049    3.6548    9.6486 H   0  0  0  0  0  0  0  0  0  0  0  0
    9.7692    2.2233    9.7614 H   0  0  0  0  0  0  0  0  0  0  0  0
    8.1892   -0.7036    7.0755 H   0  0  0  0  0  0  0  0  0  0  0  0
    9.8783   -1.4397    5.4115 H   0  0  0  0  0  0  0  0  0  0  0  0
   11.6389    0.1212    4.6714 H   0  0  0  0  0  0  0  0  0  0  0  0
   11.7187    2.4134    5.5685 H   0  0  0  0  0  0  0  0  0  0  0  0
   10.0343    3.1580    7.2112 H   0  0  0  0  0  0  0  0  0  0  0  0
    7.5726    2.7903    5.6818 H   0  0  0  0  0  0  0  0  0  0  0  0
    6.2400    4.6251    4.7197 H   0  0  0  0  0  0  0  0  0  0  0  0
    4.7539    5.9640    6.1605 H   0  0  0  0  0  0  0  0  0  0  0  0
    4.5829    5.4548    8.5685 H   0  0  0  0  0  0  0  0  0  0  0  0
    5.9117    3.6100    9.5355 H   0  0  0  0  0  0  0  0  0  0  0  0
    9.6888    2.9524   12.2997 H   0  0  0  0  0  0  0  0  0  0  0  0
    9.4887    1.1966   12.2472 H   0  0  0  0  0  0  0  0  0  0  0  0
    8.3681    2.1649   13.2140 H   0  0  0  0  0  0  0  0  0  0  0  0
    8.5747   -0.6403   10.2380 Cl  0  0  0  0  0  0  0  0  0  0  0  0
    5.4159   -1.7314   10.1418 P   0  0  0  0  0  4  0  0  0  0  0  0
    4.4288   -2.5692    8.8032 C   0  0  0  0  0  0  0  0  0  0  0  0
    4.1478   -1.2682   11.3491 C   0  0  0  0  0  0  0  0  0  0  0  0
    6.3013   -3.1187   10.9118 C   0  0  0  0  0  0  0  0  0  0  0  0
    5.0932   -2.2167    7.4911 C   0  0  0  0  0  0  0  0  0  0  0  0
    4.4578   -3.6546    8.9417 H   0  0  0  0  0  0  0  0  0  0  0  0
    3.3939   -2.2228    8.8287 H   0  0  0  0  0  0  0  0  0  0  0  0
    4.1956    0.0248   11.8580 C   0  0  0  0  0  0  0  0  0  0  0  0
    3.1569   -2.1498   11.7703 C   0  0  0  0  0  0  0  0  0  0  0  0
    6.2302   -3.3873   12.2731 C   0  0  0  0  0  0  0  0  0  0  0  0
    7.1610   -3.8601   10.1042 C   0  0  0  0  0  0  0  0  0  0  0  0
    6.2835   -1.9926    7.4540 O   0  0  0  0  0  0  0  0  0  0  0  0
    4.2050   -2.1475    6.2886 C   0  0  0  0  0  0  0  0  0  0  0  0
    3.2516    0.4354   12.7832 C   0  0  0  0  0  0  0  0  0  0  0  0
    4.9735    0.7039   11.5141 H   0  0  0  0  0  0  0  0  0  0  0  0
    2.2167   -1.7323   12.6936 C   0  0  0  0  0  0  0  0  0  0  0  0
    3.1293   -3.1582   11.3794 H   0  0  0  0  0  0  0  0  0  0  0  0
    6.9829   -4.4159   12.8120 C   0  0  0  0  0  0  0  0  0  0  0  0
    5.5904   -2.7904   12.9082 H   0  0  0  0  0  0  0  0  0  0  0  0
    7.9118   -4.8835   10.6491 C   0  0  0  0  0  0  0  0  0  0  0  0
    7.2515   -3.6100    9.0546 H   0  0  0  0  0  0  0  0  0  0  0  0
    3.4746   -2.9522    6.2904 H   0  0  0  0  0  0  0  0  0  0  0  0
    3.6747   -1.1965    6.3430 H   0  0  0  0  0  0  0  0  0  0  0  0
    4.7954   -2.1647    5.3762 H   0  0  0  0  0  0  0  0  0  0  0  0
    2.2632   -0.4415   13.1986 C   0  0  0  0  0  0  0  0  0  0  0  0
    3.2839    1.4402   13.1775 H   0  0  0  0  0  0  0  0  0  0  0  0
    1.4446   -2.4133   13.0216 H   0  0  0  0  0  0  0  0  0  0  0  0
    7.8185   -5.1667   12.0028 C   0  0  0  0  0  0  0  0  0  0  0  0
    6.9225   -4.6257   13.8702 H   0  0  0  0  0  0  0  0  0  0  0  0
    8.5798   -5.4552   10.0215 H   0  0  0  0  0  0  0  0  0  0  0  0
    1.5236   -0.1208   13.9178 H   0  0  0  0  0  0  0  0  0  0  0  0
    8.4085   -5.9647   12.4294 H   0  0  0  0  0  0  0  0  0  0  0  0
  1 36  1  0  0  0  0
  1 35  1  0  0  0  0
  2  1  1  0  0  0  0
  3  1  1  0  0  0  0
  3  5  1  0  0  0  0
  5  6  1  0  0  0  0
  6  4  2  0  0  0  0
  6  7  1  0  0  0  0
  7 34  1  0  0  0  0
  8  3  1  0  0  0  0
  9 22  1  0  0  0  0
  9  8  2  0  0  0  0
 10  9  1  0  0  0  0
 11 10  2  0  0  0  0
 11 12  1  0  0  0  0
 12 13  2  0  0  0  0
 13 26  1  0  0  0  0
 13  8  1  0  0  0  0
 14  3  1  0  0  0  0
 14 19  1  0  0  0  0
 15 14  2  0  0  0  0
 16 15  1  0  0  0  0
 16 17  2  0  0  0  0
 17 18  1  0  0  0  0
 18 19  2  0  0  0  0
 18 30  1  0  0  0  0
 19 31  1  0  0  0  0
 20  5  1  0  0  0  0
 21  5  1  0  0  0  0
 23 10  1  0  0  0  0
 24 11  1  0  0  0  0
 25 12  1  0  0  0  0
 27 15  1  0  0  0  0
 28 16  1  0  0  0  0
 29 17  1  0  0  0  0
 32  7  1  0  0  0  0
 33  7  1  0  0  0  0
 36 39  1  0  0  0  0
 36 38  1  0  0  0  0
 37 42  1  0  0  0  0
 37 41  1  0  0  0  0
 37 36  1  0  0  0  0
 38 44  2  0  0  0  0
 38 43  1  0  0  0  0
 39 45  1  0  0  0  0
 40 37  1  0  0  0  0
 43 49  2  0  0  0  0
 44 51  1  0  0  0  0
 45 53  2  0  0  0  0
 45 54  1  0  0  0  0
 46 55  1  0  0  0  0
 46 39  2  0  0  0  0
 47 40  2  0  0  0  0
 48 57  1  0  0  0  0
 48 58  1  0  0  0  0
 48 40  1  0  0  0  0
 49 61  1  0  0  0  0
 49 60  1  0  0  0  0
 50 43  1  0  0  0  0
 51 62  1  0  0  0  0
 51 60  2  0  0  0  0
 52 44  1  0  0  0  0
 53 64  1  0  0  0  0
 55 63  2  0  0  0  0
 56 46  1  0  0  0  0
 59 48  1  0  0  0  0
 60 66  1  0  0  0  0
 63 67  1  0  0  0  0
 63 53  1  0  0  0  0
 65 55  1  0  0  0  0
M  END
$$$$
