CSD_code = YACGIT | q = 0 | S = 0 | Stoichiometry = C13H19Br2CdN5S | MND = 5
 OpenBabel04212202123D

 41 43  0  0  1  0  0  0  0  0999 V2000
    3.1982    2.6166    3.2948 Cd  0  0  0  0  0  0  0  0  0  0  0  0
    5.6367    2.6100    3.8402 Br  0  0  0  0  0  0  0  0  0  0  0  0
    2.3126    1.7775    1.0229 Br  0  0  0  0  0  0  0  0  0  0  0  0
    1.5592    4.8152    3.7875 S   0  0  0  0  0  0  0  0  0  0  0  0
    2.7446    0.5917    4.7708 N   0  0  0  0  0  0  0  0  0  0  0  0
    0.6756    2.0532    3.8293 N   0  0  0  0  0  0  0  0  0  0  0  0
   -0.0794    2.8681    3.0498 N   0  0  0  0  0  0  0  0  0  0  0  0
   -0.6097    2.4540    2.2871 H   0  0  0  0  0  0  0  0  0  0  0  0
   -0.5184    4.9645    2.1687 N   0  0  0  0  0  0  0  0  0  0  0  0
   -0.2437    0.0430    2.9499 N   0  0  0  0  0  0  0  0  0  0  0  0
   -0.5221    0.4731    2.0786 H   0  0  0  0  0  0  0  0  0  0  0  0
    0.0227   -0.9210    2.8205 H   0  0  0  0  0  0  0  0  0  0  0  0
    3.6432   -0.0262    5.5211 C   0  0  0  0  0  3  0  0  0  0  0  0
    4.6079    0.4592    5.6028 H   0  0  0  0  0  0  0  0  0  0  0  0
    3.3873   -1.2309    6.1607 C   0  0  0  0  0  0  0  0  0  0  0  0
    4.1514   -1.7010    6.7582 H   0  0  0  0  0  0  0  0  0  0  0  0
    2.1374   -1.8090    6.0086 C   0  0  0  0  0  0  0  0  0  0  0  0
    1.8983   -2.7442    6.4925 H   0  0  0  0  0  0  0  0  0  0  0  0
    1.1943   -1.1675    5.2225 C   0  0  0  0  0  0  0  0  0  0  0  0
    0.2044   -1.5775    5.0945 H   0  0  0  0  0  0  0  0  0  0  0  0
    1.5382    0.0398    4.6213 C   0  0  0  0  0  0  0  0  0  0  0  0
    0.6063    0.7769    3.7440 C   0  0  0  0  0  0  0  0  0  0  0  0
    0.2563    4.1862    2.9388 C   0  0  1  0  0  3  0  0  0  0  0  0
   -1.7601    4.4694    1.6009 C   0  0  0  0  0  0  0  0  0  0  0  0
   -2.2060    3.7744    2.3200 H   0  0  0  0  0  0  0  0  0  0  0  0
   -1.5544    3.9289    0.6658 H   0  0  0  0  0  0  0  0  0  0  0  0
   -2.7937    5.5626    1.3262 C   0  0  0  0  0  0  0  0  0  0  0  0
   -2.5080    6.1593    0.4598 H   0  0  0  0  0  0  0  0  0  0  0  0
   -3.7198    5.0462    1.0645 H   0  0  0  0  0  0  0  0  0  0  0  0
   -3.0425    6.4822    2.5248 C   0  0  0  0  0  0  0  0  0  0  0  0
   -4.0708    6.8457    2.4768 H   0  0  0  0  0  0  0  0  0  0  0  0
   -2.9368    5.9158    3.4520 H   0  0  0  0  0  0  0  0  0  0  0  0
   -2.1124    7.6939    2.5532 C   0  0  0  0  0  0  0  0  0  0  0  0
   -2.1797    8.2139    1.5944 H   0  0  0  0  0  0  0  0  0  0  0  0
   -2.4572    8.3849    3.3247 H   0  0  0  0  0  0  0  0  0  0  0  0
   -0.6556    7.3411    2.8347 C   0  0  0  0  0  0  0  0  0  0  0  0
   -0.0527    8.2476    2.7725 H   0  0  0  0  0  0  0  0  0  0  0  0
   -0.5518    6.9446    3.8458 H   0  0  0  0  0  0  0  0  0  0  0  0
   -0.0880    6.3117    1.8565 C   0  0  0  0  0  0  0  0  0  0  0  0
   -0.3828    6.5435    0.8323 H   0  0  0  0  0  0  0  0  0  0  0  0
    1.0032    6.3283    1.9143 H   0  0  0  0  0  0  0  0  0  0  0  0
  1  4  1  0  0  0  0
  1  2  1  0  0  0  0
  1  5  1  0  0  0  0
  3  1  1  0  0  0  0
  5 13  1  0  0  0  0
  7  6  1  0  0  0  0
  8  7  1  0  0  0  0
 10 22  1  0  0  0  0
 11 10  1  0  0  0  0
 12 10  1  0  0  0  0
 13 14  1  0  0  0  0
 13 15  1  0  0  0  0
 15 16  1  0  0  0  0
 17 15  2  0  0  0  0
 17 18  1  0  0  0  0
 19 17  1  0  0  0  0
 20 19  1  0  0  0  0
 21  5  1  0  0  0  0
 21 19  2  0  0  0  0
 22  6  2  0  0  0  0
 22 21  1  0  0  0  0
 23  9  1  1  0  0  0
 23  7  1  0  0  0  0
 23  4  1  0  0  0  0
 24  9  1  0  0  0  0
 24 25  1  0  0  0  0
 26 24  1  0  0  0  0
 27 24  1  0  0  0  0
 27 30  1  0  0  0  0
 28 27  1  0  0  0  0
 29 27  1  0  0  0  0
 30 33  1  0  0  0  0
 30 32  1  0  0  0  0
 31 30  1  0  0  0  0
 33 36  1  0  0  0  0
 33 35  1  0  0  0  0
 34 33  1  0  0  0  0
 36 38  1  0  0  0  0
 37 36  1  0  0  0  0
 39 41  1  0  0  0  0
 39  9  1  0  0  0  0
 39 36  1  0  0  0  0
 40 39  1  0  0  0  0
M  END
$$$$
