CSD_code = YACLIZ | q = 0 | S = 0 | Stoichiometry = C26H18ClN3Pt | MND = 4
 OpenBabel04212202123D

 49 55  0  0  0  0  0  0  0  0999 V2000
    2.4963    7.7896    8.6546 Pt  0  0  1  0  0  0  0  0  0  0  0  0
    4.6955    8.6295    8.3556 Cl  0  0  0  0  0  0  0  0  0  0  0  0
    3.0330    6.3367    9.8986 N   0  0  0  0  0  0  0  0  0  0  0  0
   -0.0904    7.8800    6.6229 N   0  0  0  0  0  0  0  0  0  0  0  0
    1.6278    9.2213    7.5427 N   0  0  0  0  0  0  0  0  0  0  0  0
    4.2169    6.2242   10.4942 C   0  0  0  0  0  0  0  0  0  0  0  0
    4.9782    6.9243   10.1707 H   0  0  0  0  0  0  0  0  0  0  0  0
    4.4790    5.2657   11.4570 C   0  0  0  0  0  0  0  0  0  0  0  0
    5.4556    5.2107   11.9099 H   0  0  0  0  0  0  0  0  0  0  0  0
    3.4664    4.3897   11.8198 C   0  0  0  0  0  0  0  0  0  0  0  0
    3.6335    3.6325   12.5712 H   0  0  0  0  0  0  0  0  0  0  0  0
    2.2347    4.5022   11.2012 C   0  0  0  0  0  0  0  0  0  0  0  0
    1.4286    3.8372   11.4663 H   0  0  0  0  0  0  0  0  0  0  0  0
    2.0284    5.4840   10.2359 C   0  0  0  0  0  0  0  0  0  0  0  0
    0.7931    5.6710    9.4812 C   0  0  0  0  0  0  0  0  0  0  0  0
   -0.3122    4.8228    9.5128 C   0  0  0  0  0  0  0  0  0  0  0  0
   -0.3497    3.9766   10.1816 H   0  0  0  0  0  0  0  0  0  0  0  0
   -1.3690    5.0717    8.6588 C   0  0  0  0  0  0  0  0  0  0  0  0
   -2.2470    4.4439    8.6904 H   0  0  0  0  0  0  0  0  0  0  0  0
   -1.3079    6.0961    7.7264 C   0  0  0  0  0  0  0  0  0  0  0  0
   -2.1393    6.2389    7.0524 H   0  0  0  0  0  0  0  0  0  0  0  0
   -0.1878    6.9251    7.6614 C   0  0  0  0  0  0  0  0  0  0  0  0
    0.8295    6.7658    8.6007 C   0  0  0  0  0  0  0  0  0  0  0  0
    0.7705    8.9405    6.5562 C   0  0  0  0  0  0  0  0  0  0  0  0
    0.7171    9.7926    5.4122 C   0  0  0  0  0  0  0  0  0  0  0  0
    0.1437    9.4843    4.5537 H   0  0  0  0  0  0  0  0  0  0  0  0
    1.4193   10.9562    5.3851 C   0  0  0  0  0  0  0  0  0  0  0  0
    1.4210   11.5781    4.5023 H   0  0  0  0  0  0  0  0  0  0  0  0
    2.1211   11.3789    6.5379 C   0  0  0  0  0  0  0  0  0  0  0  0
    2.7449   12.6326    6.6575 C   0  0  0  0  0  3  0  0  0  0  0  0
    2.7063   13.3129    5.8193 H   0  0  0  0  0  0  0  0  0  0  0  0
    3.3736   12.9840    7.8225 C   0  0  0  0  0  0  0  0  0  0  0  0
    3.8532   13.9471    7.9118 H   0  0  0  0  0  0  0  0  0  0  0  0
    3.3763   12.1072    8.9145 C   0  0  0  0  0  0  0  0  0  0  0  0
    3.8425   12.4112    9.8392 H   0  0  0  0  0  0  0  0  0  0  0  0
    2.7912   10.8715    8.8190 C   0  0  0  0  0  0  0  0  0  0  0  0
    2.7625   10.1912    9.6671 H   0  0  0  0  0  0  0  0  0  0  0  0
    2.1839   10.4671    7.6168 C   0  0  0  0  0  0  0  0  0  0  0  0
   -0.9646    7.6527    5.5160 C   0  0  0  0  0  0  0  0  0  0  0  0
   -0.6944    6.6098    4.6401 C   0  0  0  0  0  0  0  0  0  0  0  0
    0.1815    5.9996    4.7998 H   0  0  0  0  0  0  0  0  0  0  0  0
   -1.5488    6.3650    3.5799 C   0  0  0  0  0  0  0  0  0  0  0  0
   -1.3370    5.5561    2.8977 H   0  0  0  0  0  0  0  0  0  0  0  0
   -2.6705    7.1558    3.3939 C   0  0  0  0  0  0  0  0  0  0  0  0
   -3.3359    6.9622    2.5665 H   0  0  0  0  0  0  0  0  0  0  0  0
   -2.9405    8.1941    4.2702 C   0  0  0  0  0  0  0  0  0  0  0  0
   -3.8165    8.8086    4.1285 H   0  0  0  0  0  0  0  0  0  0  0  0
   -2.0916    8.4448    5.3335 C   0  0  0  0  0  0  0  0  0  0  0  0
   -2.2932    9.2492    6.0250 H   0  0  0  0  0  0  0  0  0  0  0  0
  1  2  1  6  0  0  0
  1  3  1  0  0  0  0
  3 14  1  0  0  0  0
  3  6  1  0  0  0  0
  4 22  1  0  0  0  0
  5 38  1  0  0  0  0
  5  1  1  0  0  0  0
  6  8  2  0  0  0  0
  7  6  1  0  0  0  0
  8 10  1  0  0  0  0
  8  9  1  0  0  0  0
 10 11  1  0  0  0  0
 12 13  1  0  0  0  0
 12 10  2  0  0  0  0
 14 12  1  0  0  0  0
 15 16  1  0  0  0  0
 15 14  2  0  0  0  0
 16 17  1  0  0  0  0
 18 19  1  0  0  0  0
 18 16  2  0  0  0  0
 20 18  1  0  0  0  0
 21 20  1  0  0  0  0
 22 20  2  0  0  0  0
 22 23  1  0  0  0  0
 23  1  2  0  0  0  0
 23 15  1  0  0  0  0
 24  4  1  0  0  0  0
 24  5  1  0  0  0  0
 25 24  2  0  0  0  0
 26 25  1  0  0  0  0
 27 25  1  0  0  0  0
 27 29  2  0  0  0  0
 28 27  1  0  0  0  0
 29 30  1  0  0  0  0
 29 38  1  0  0  0  0
 30 32  1  0  0  0  0
 31 30  1  0  0  0  0
 32 33  1  0  0  0  0
 32 34  2  0  0  0  0
 34 35  1  0  0  0  0
 36 34  1  0  0  0  0
 36 37  1  0  0  0  0
 38 36  2  0  0  0  0
 39  4  1  0  0  0  0
 40 41  1  0  0  0  0
 40 39  2  0  0  0  0
 42 40  1  0  0  0  0
 43 42  1  0  0  0  0
 44 42  2  0  0  0  0
 44 46  1  0  0  0  0
 45 44  1  0  0  0  0
 46 48  2  0  0  0  0
 47 46  1  0  0  0  0
 48 39  1  0  0  0  0
 48 49  1  0  0  0  0
M  END
$$$$
