CSD_code = YACLUK | q = 0 | S = 0 | Stoichiometry = C18H12ClN5O3Ru | MND = 6
 OpenBabel04212202123D

 40 45  0  0  1  0  0  0  0  0999 V2000
    6.8109    5.5289   10.4049 Ru  0  0  0  0  0  0  0  0  0  0  0  0
    8.4441    5.4101    8.8289 Cl  0  0  0  0  0  0  0  0  0  0  0  0
    5.9687    1.7432    9.1944 O   0  0  0  0  0  0  0  0  0  0  0  0
    5.5744    8.7579    8.2709 O   0  0  0  0  0  0  0  0  0  0  0  0
    5.1926    5.7487   12.7281 O   0  0  0  0  0  1  0  0  0  0  0  0
    5.9291    4.0337    9.5065 N   0  0  0  0  0  0  0  0  0  0  0  0
    5.7853    6.6347    9.1614 N   0  0  0  0  0  0  0  0  0  0  0  0
    7.8889    3.9085   11.2871 N   0  0  0  0  0  0  0  0  0  0  0  0
    7.6945    7.4296   10.8198 N   0  0  0  0  0  0  0  0  0  0  0  0
    5.7733    5.6466   11.7216 N   0  0  0  0  0  2  0  0  0  0  0  0
    4.9953    4.4681    8.5691 C   0  0  0  0  0  0  0  0  0  0  0  0
    4.9181    5.8731    8.3821 C   0  0  0  0  0  0  0  0  0  0  0  0
    4.0328    6.3948    7.4439 C   0  0  0  0  0  0  0  0  0  0  0  0
    3.9892    7.4619    7.2990 H   0  0  0  0  0  0  0  0  0  0  0  0
    3.2310    5.5404    6.7078 C   0  0  0  0  0  0  0  0  0  0  0  0
    2.5454    5.9524    5.9829 H   0  0  0  0  0  0  0  0  0  0  0  0
    3.3054    4.1687    6.8914 C   0  0  0  0  0  0  0  0  0  0  0  0
    2.6774    3.5106    6.3101 H   0  0  0  0  0  0  0  0  0  0  0  0
    4.1836    3.6275    7.8136 C   0  0  0  0  0  0  0  0  0  0  0  0
    4.2562    2.5613    7.9536 H   0  0  0  0  0  0  0  0  0  0  0  0
    6.3661    2.7821    9.6996 C   0  0  0  0  0  0  0  0  0  0  0  0
    7.5104    2.7644   10.6936 C   0  0  1  0  0  3  0  0  0  0  0  0
    8.1643    1.5623   10.9429 C   0  0  0  0  0  0  0  0  0  0  0  0
    7.8102    0.6820   10.4286 H   0  0  0  0  0  0  0  0  0  0  0  0
    9.2328    1.5385   11.8189 C   0  0  0  0  0  0  0  0  0  0  0  0
    9.7603    0.6193   12.0229 H   0  0  0  0  0  0  0  0  0  0  0  0
    9.6137    2.7258   12.4281 C   0  0  0  0  0  0  0  0  0  0  0  0
   10.4402    2.7601   13.1196 H   0  0  0  0  0  0  0  0  0  0  0  0
    8.9136    3.8822   12.1305 C   0  0  0  0  0  0  0  0  0  0  0  0
    9.1834    4.8238   12.5916 H   0  0  0  0  0  0  0  0  0  0  0  0
    6.0773    7.9345    9.0205 C   0  0  0  0  0  0  0  0  0  0  0  0
    7.1983    8.3340    9.9595 C   0  0  2  0  0  3  0  0  0  0  0  0
    7.7104    9.6250    9.8824 C   0  0  0  0  0  0  0  0  0  0  0  0
    7.2664   10.2994    9.1663 H   0  0  0  0  0  0  0  0  0  0  0  0
    8.7587    9.9909   10.7051 C   0  0  0  0  0  0  0  0  0  0  0  0
    9.1770   10.9848   10.6590 H   0  0  0  0  0  0  0  0  0  0  0  0
    9.2633    9.0485   11.5901 C   0  0  0  0  0  0  0  0  0  0  0  0
   10.0808    9.2841   12.2525 H   0  0  0  0  0  0  0  0  0  0  0  0
    8.7002    7.7843   11.6103 C   0  0  0  0  0  0  0  0  0  0  0  0
    9.0683    7.0277   12.2915 H   0  0  0  0  0  0  0  0  0  0  0  0
  1  9  1  0  0  0  0
  1  8  1  0  0  0  0
  1 10  1  0  0  0  0
  2  1  1  0  0  0  0
  3 21  2  0  0  0  0
  4 31  2  0  0  0  0
  6 21  1  0  0  0  0
  6  1  1  0  0  0  0
  7  1  1  0  0  0  0
  8 29  1  0  0  0  0
  9 39  1  0  0  0  0
 10  5  1  0  0  0  0
 11  6  1  0  0  0  0
 12 11  1  0  0  0  0
 12  7  1  0  0  0  0
 13 12  2  0  0  0  0
 14 13  1  0  0  0  0
 15 17  2  0  0  0  0
 15 13  1  0  0  0  0
 16 15  1  0  0  0  0
 17 19  1  0  0  0  0
 18 17  1  0  0  0  0
 19 20  1  0  0  0  0
 19 11  2  0  0  0  0
 22 21  1  6  0  0  0
 22 23  1  0  0  0  0
 22  8  1  0  0  0  0
 23 25  2  0  0  0  0
 24 23  1  0  0  0  0
 25 26  1  0  0  0  0
 25 27  1  0  0  0  0
 27 28  1  0  0  0  0
 29 27  2  0  0  0  0
 29 30  1  0  0  0  0
 31  7  1  0  0  0  0
 32 31  1  6  0  0  0
 32  9  1  0  0  0  0
 33 32  1  0  0  0  0
 33 35  2  0  0  0  0
 34 33  1  0  0  0  0
 35 37  1  0  0  0  0
 36 35  1  0  0  0  0
 37 39  2  0  0  0  0
 37 38  1  0  0  0  0
 39 40  1  0  0  0  0
M  END
$$$$
