CSD_code = YADBIP | q = 0 | S = 0 | Stoichiometry = C17H23ClN2Ti | MND = 8
 OpenBabel04212202123D

 44 46  0  0  1  0  0  0  0  0999 V2000
   -0.4510    0.0006   11.8659 Ti  0  0  0  0  0  0  0  0  0  0  0  0
    1.3069    0.5004   13.0789 Cl  0  0  0  0  0  0  0  0  0  0  0  0
    0.3893   -0.0599   10.2333 N   0  0  0  0  0  0  0  0  0  0  0  0
   -0.9843    1.7183   11.4668 N   0  0  0  0  0  0  0  0  0  0  0  0
    0.8112    1.2361   10.0114 C   0  0  0  0  0  0  0  0  0  0  0  0
    0.0315    2.2327   10.6881 C   0  0  0  0  0  0  0  0  0  0  0  0
    0.3474    3.5797   10.5007 C   0  0  0  0  0  0  0  0  0  0  0  0
    1.4049    3.9465    9.6864 C   0  0  0  0  0  0  0  0  0  0  0  0
    2.1706    2.9830    9.0503 C   0  0  0  0  0  0  0  0  0  0  0  0
    1.8796    1.6391    9.2090 C   0  0  0  0  0  0  0  0  0  0  0  0
    0.8087   -1.0954    9.3169 C   0  0  0  0  0  0  0  0  0  0  0  0
    0.2113   -0.8746    7.9153 C   0  0  0  0  0  0  0  0  0  0  0  0
   -1.3118   -0.8375    7.9620 C   0  0  0  0  0  0  0  0  0  0  0  0
   -2.0040    2.6069   11.9730 C   0  0  0  0  0  0  0  0  0  0  0  0
   -2.9970    2.9953   10.8657 C   0  0  0  0  0  0  0  0  0  0  0  0
   -4.1366    3.8524   11.3997 C   0  0  0  0  0  0  0  0  0  0  0  0
   -0.9915   -1.5294   13.5323 C   0  0  0  0  0  0  0  0  0  0  0  0
   -2.0620   -0.6220   13.4152 C   0  0  0  0  0  0  0  0  0  0  0  0
   -2.6196   -0.7668   12.1238 C   0  0  2  0  0  0  0  0  0  0  0  0
   -1.8856   -1.7669   11.4452 C   0  0  0  0  0  0  0  0  0  0  0  0
   -0.8740   -2.2318   12.3161 C   0  0  0  0  0  0  0  0  0  0  0  0
   -0.2233    4.3510   10.9964 H   0  0  0  0  0  0  0  0  0  0  0  0
    1.6340    4.9932    9.5528 H   0  0  0  0  0  0  0  0  0  0  0  0
    3.0001    3.2776    8.4250 H   0  0  0  0  0  0  0  0  0  0  0  0
    2.4994    0.9038    8.7168 H   0  0  0  0  0  0  0  0  0  0  0  0
    1.9074   -1.1370    9.2458 H   0  0  0  0  0  0  0  0  0  0  0  0
    0.4608   -2.0608    9.7097 H   0  0  0  0  0  0  0  0  0  0  0  0
    0.5506   -1.6720    7.2512 H   0  0  0  0  0  0  0  0  0  0  0  0
    0.5776    0.0767    7.5254 H   0  0  0  0  0  0  0  0  0  0  0  0
   -1.7143   -0.5260    7.0012 H   0  0  0  0  0  0  0  0  0  0  0  0
   -1.7128   -1.8222    8.1952 H   0  0  0  0  0  0  0  0  0  0  0  0
   -1.6377   -0.1282    8.7283 H   0  0  0  0  0  0  0  0  0  0  0  0
   -2.5484    2.0904   12.7758 H   0  0  0  0  0  0  0  0  0  0  0  0
   -1.5578    3.5151   12.4062 H   0  0  0  0  0  0  0  0  0  0  0  0
   -3.3923    2.0752   10.4237 H   0  0  0  0  0  0  0  0  0  0  0  0
   -2.4586    3.5339   10.0831 H   0  0  0  0  0  0  0  0  0  0  0  0
   -4.8228    4.1155   10.5987 H   0  0  0  0  0  0  0  0  0  0  0  0
   -4.6928    3.3170   12.1665 H   0  0  0  0  0  0  0  0  0  0  0  0
   -3.7513    4.7714   11.8359 H   0  0  0  0  0  0  0  0  0  0  0  0
   -0.4162   -1.7169   14.4301 H   0  0  0  0  0  0  0  0  0  0  0  0
   -2.4633   -0.0170   14.2207 H   0  0  0  0  0  0  0  0  0  0  0  0
   -3.5364   -0.3106   11.7690 H   0  0  0  0  0  0  0  0  0  0  0  0
   -2.1577   -2.2068   10.4949 H   0  0  0  0  0  0  0  0  0  0  0  0
   -0.2111   -3.0710   12.1340 H   0  0  0  0  0  0  0  0  0  0  0  0
  1 19  1  0  0  0  0
  1  2  1  0  0  0  0
  3  1  1  0  0  0  0
  4  1  1  0  0  0  0
  4 14  1  0  0  0  0
  5  3  1  0  0  0  0
  5  6  1  0  0  0  0
  6  4  1  0  0  0  0
  7  6  2  0  0  0  0
  7 22  1  0  0  0  0
  8  7  1  0  0  0  0
  9 10  1  0  0  0  0
  9  8  2  0  0  0  0
 10  5  2  0  0  0  0
 11 27  1  0  0  0  0
 11  3  1  0  0  0  0
 12 13  1  0  0  0  0
 12 11  1  0  0  0  0
 13 31  1  0  0  0  0
 13 32  1  0  0  0  0
 14 34  1  0  0  0  0
 14 33  1  0  0  0  0
 15 16  1  0  0  0  0
 15 14  1  0  0  0  0
 16 39  1  0  0  0  0
 16 38  1  0  0  0  0
 17 40  1  0  0  0  0
 18 17  2  0  0  0  0
 18 41  1  0  0  0  0
 19 42  1  6  0  0  0
 19 18  1  0  0  0  0
 20 19  1  0  0  0  0
 20 21  2  0  0  0  0
 21 17  1  0  0  0  0
 23  8  1  0  0  0  0
 24  9  1  0  0  0  0
 25 10  1  0  0  0  0
 26 11  1  0  0  0  0
 28 12  1  0  0  0  0
 29 12  1  0  0  0  0
 30 13  1  0  0  0  0
 35 15  1  0  0  0  0
 36 15  1  0  0  0  0
 37 16  1  0  0  0  0
 43 20  1  0  0  0  0
 44 21  1  0  0  0  0
M  END
$$$$
