CSD_code = YADDUF | q = 0 | S = 0 | Stoichiometry = C11H15Cl4NTi | MND = 5
 OpenBabel04212202123D

 32 32  0  0  0  0  0  0  0  0999 V2000
    2.2430    5.2761    3.5569 Ti  0  0  0  0  0  0  0  0  0  0  0  0
    2.7781    3.5159    4.8517 Cl  0  0  0  0  0  0  0  0  0  0  0  0
    3.5367    4.6684    1.9336 Cl  0  0  0  0  0  0  0  0  0  0  0  0
    1.9925    7.3462    2.7591 Cl  0  0  0  0  0  0  0  0  0  0  0  0
    0.3650    4.4921    2.8601 Cl  0  0  0  0  0  0  0  0  0  0  0  0
    2.0629    6.1891    5.3822 N   0  0  0  0  0  0  0  0  0  0  0  0
    2.8744    7.0669    5.8237 C   0  0  0  0  0  3  0  0  0  0  0  0
    2.6572    7.6489    6.7221 H   0  0  0  0  0  0  0  0  0  0  0  0
    4.0881    7.3955    5.1007 C   0  0  0  0  0  0  0  0  0  0  0  0
    4.5308    8.7206    5.0507 C   0  0  0  0  0  0  0  0  0  0  0  0
    4.0037    9.4817    5.6069 H   0  0  0  0  0  0  0  0  0  0  0  0
    5.5986    9.0648    4.2493 C   0  0  0  0  0  0  0  0  0  0  0  0
    5.9158   10.0960    4.1954 H   0  0  0  0  0  0  0  0  0  0  0  0
    6.2714    8.1046    3.4959 C   0  0  0  0  0  0  0  0  0  0  0  0
    5.8690    6.7752    3.5969 C   0  0  0  0  0  0  0  0  0  0  0  0
    6.4021    6.0104    3.0507 H   0  0  0  0  0  0  0  0  0  0  0  0
    4.7903    6.4161    4.3835 C   0  0  0  0  0  0  0  0  0  0  0  0
    4.5538    5.3609    4.5270 H   0  0  0  0  0  0  0  0  0  0  0  0
    7.4150    8.5021    2.6211 C   0  0  0  0  0  0  0  0  0  0  0  0
    8.2353    8.8892    3.2251 H   0  0  0  0  0  0  0  0  0  0  0  0
    7.1080    9.2914    1.9372 H   0  0  0  0  0  0  0  0  0  0  0  0
    7.7765    7.6573    2.0421 H   0  0  0  0  0  0  0  0  0  0  0  0
    0.7962    5.9071    6.0497 C   0  0  0  0  0  0  0  0  0  0  0  0
    0.5524    4.8617    5.8011 H   0  0  0  0  0  0  0  0  0  0  0  0
    0.8517    6.0468    7.5718 C   0  0  0  0  0  0  0  0  0  0  0  0
    0.8793    7.0885    7.8832 H   0  0  0  0  0  0  0  0  0  0  0  0
    1.7229    5.5262    7.9648 H   0  0  0  0  0  0  0  0  0  0  0  0
   -0.0386    5.5950    7.9999 H   0  0  0  0  0  0  0  0  0  0  0  0
   -0.2732    6.8224    5.4413 C   0  0  0  0  0  0  0  0  0  0  0  0
   -0.3311    6.6767    4.3604 H   0  0  0  0  0  0  0  0  0  0  0  0
   -0.0308    7.8657    5.6392 H   0  0  0  0  0  0  0  0  0  0  0  0
   -1.2413    6.5931    5.8786 H   0  0  0  0  0  0  0  0  0  0  0  0
  1  2  1  0  0  0  0
  1  6  1  0  0  0  0
  3  1  1  0  0  0  0
  4  1  1  0  0  0  0
  5  1  1  0  0  0  0
  6  7  1  0  0  0  0
  6 23  1  0  0  0  0
  7  8  1  0  0  0  0
  9  7  1  0  0  0  0
 10  9  1  0  0  0  0
 10 11  1  0  0  0  0
 12 10  2  0  0  0  0
 13 12  1  0  0  0  0
 14 15  2  0  0  0  0
 14 12  1  0  0  0  0
 15 17  1  0  0  0  0
 16 15  1  0  0  0  0
 17 18  1  0  0  0  0
 17  9  2  0  0  0  0
 19 20  1  0  0  0  0
 19 14  1  0  0  0  0
 21 19  1  0  0  0  0
 22 19  1  0  0  0  0
 23 25  1  0  0  0  0
 24 23  1  0  0  0  0
 25 26  1  0  0  0  0
 25 27  1  0  0  0  0
 25 28  1  0  0  0  0
 29 31  1  0  0  0  0
 29 32  1  0  0  0  0
 29 23  1  0  0  0  0
 30 29  1  0  0  0  0
M  END
$$$$
