CSD_code = YADYEH | q = 0 | S = 0 | Stoichiometry = C23H38ClHfN3 | MND = 9
 OpenBabel04212202123D

 66 68  0  0  1  0  0  0  0  0999 V2000
    0.2823    0.6063    4.2055 Hf  0  0  0  0  0  0  0  0  0  0  0  0
    2.5327    1.3722    3.8654 Cl  0  0  0  0  0  0  0  0  0  0  0  0
   -0.2474    2.5753    4.4433 N   0  0  0  0  0  0  0  0  0  0  0  0
   -1.5592    0.5839    3.1906 N   0  0  0  0  0  0  0  0  0  0  0  0
    0.8084   -0.6241    2.6202 N   0  0  0  0  0  0  0  0  0  0  0  0
    0.9024    4.5370    3.5377 C   0  0  0  0  0  0  0  0  0  0  0  0
   -0.1423    4.6733    5.8269 C   0  0  0  0  0  0  0  0  0  0  0  0
    0.5354    3.7521    4.8042 C   0  0  0  0  0  0  0  0  0  0  0  0
   -1.5516    2.7307    4.1377 C   0  0  0  0  0  0  0  0  0  0  0  0
   -2.2558    1.7166    3.5573 C   0  0  0  0  0  0  0  0  0  0  0  0
   -2.0946   -0.4073    2.4990 C   0  0  0  0  0  0  0  0  0  0  0  0
   -3.5779   -0.4365    2.2151 C   0  0  0  0  0  0  0  0  0  0  0  0
   -1.3103   -1.4269    1.9358 C   0  0  0  0  0  0  0  0  0  0  0  0
    0.0788   -1.4857    1.9215 C   0  0  1  0  0  3  0  0  0  0  0  0
    0.7510   -2.5123    0.9978 C   0  0  0  0  0  0  0  0  0  0  0  0
    0.2028   -3.9250    1.2379 C   0  0  0  0  0  0  0  0  0  0  0  0
    0.4615   -2.0870   -0.4498 C   0  0  0  0  0  0  0  0  0  0  0  0
    2.2715   -2.5620    1.1907 C   0  0  0  0  0  0  0  0  0  0  0  0
    0.0820   -1.5483    5.4262 C   0  0  0  0  0  0  0  0  0  0  0  0
    1.2620   -0.8818    5.8594 C   0  0  0  0  0  0  0  0  0  0  0  0
    0.8733    0.3174    6.5256 C   0  0  2  0  0  0  0  0  0  0  0  0
   -0.5498    0.3844    6.5093 C   0  0  0  0  0  0  0  0  0  0  0  0
   -1.0308   -0.7634    5.8250 C   0  0  0  0  0  0  0  0  0  0  0  0
   -0.0067   -2.9490    4.8900 C   0  0  0  0  0  0  0  0  0  0  0  0
    2.6709   -1.4057    5.8122 C   0  0  0  0  0  0  0  0  0  0  0  0
    1.8239    1.2091    7.2765 C   0  0  0  0  0  0  0  0  0  0  0  0
   -1.4293    1.3287    7.2814 C   0  0  0  0  0  0  0  0  0  0  0  0
   -2.4737   -1.1651    5.7325 C   0  0  0  0  0  0  0  0  0  0  0  0
    1.8108   -0.7285    2.4678 H   0  0  0  0  0  0  0  0  0  0  0  0
    1.5310    5.3880    3.7876 H   0  0  0  0  0  0  0  0  0  0  0  0
    0.0015    4.8939    3.0415 H   0  0  0  0  0  0  0  0  0  0  0  0
    1.4459    3.8881    2.8532 H   0  0  0  0  0  0  0  0  0  0  0  0
   -0.5600    4.0939    6.6462 H   0  0  0  0  0  0  0  0  0  0  0  0
   -0.9376    5.2582    5.3710 H   0  0  0  0  0  0  0  0  0  0  0  0
    0.5938    5.3649    6.2290 H   0  0  0  0  0  0  0  0  0  0  0  0
    1.4654    3.3764    5.2505 H   0  0  0  0  0  0  0  0  0  0  0  0
   -2.0532    3.6727    4.3418 H   0  0  0  0  0  0  0  0  0  0  0  0
   -3.2979    1.8428    3.2974 H   0  0  0  0  0  0  0  0  0  0  0  0
   -3.8658   -1.3879    1.7774 H   0  0  0  0  0  0  0  0  0  0  0  0
   -3.8440    0.3569    1.5161 H   0  0  0  0  0  0  0  0  0  0  0  0
   -4.1478   -0.2865    3.1311 H   0  0  0  0  0  0  0  0  0  0  0  0
   -1.8498   -2.1721    1.3743 H   0  0  0  0  0  0  0  0  0  0  0  0
   -0.8673   -3.9799    1.0636 H   0  0  0  0  0  0  0  0  0  0  0  0
    0.4010   -4.2457    2.2573 H   0  0  0  0  0  0  0  0  0  0  0  0
    0.6865   -4.6248    0.5591 H   0  0  0  0  0  0  0  0  0  0  0  0
   -0.6061   -2.0948   -0.6511 H   0  0  0  0  0  0  0  0  0  0  0  0
    0.9498   -2.7663   -1.1457 H   0  0  0  0  0  0  0  0  0  0  0  0
    0.8337   -1.0806   -0.6287 H   0  0  0  0  0  0  0  0  0  0  0  0
    2.5318   -2.7952    2.2218 H   0  0  0  0  0  0  0  0  0  0  0  0
    2.7446   -1.6242    0.9045 H   0  0  0  0  0  0  0  0  0  0  0  0
    2.6879   -3.3429    0.5574 H   0  0  0  0  0  0  0  0  0  0  0  0
   -0.8047   -3.0409    4.1547 H   0  0  0  0  0  0  0  0  0  0  0  0
   -0.2168   -3.6479    5.7035 H   0  0  0  0  0  0  0  0  0  0  0  0
    0.9284   -3.2531    4.4244 H   0  0  0  0  0  0  0  0  0  0  0  0
    2.7380   -2.3027    5.2001 H   0  0  0  0  0  0  0  0  0  0  0  0
    3.0104   -1.6604    6.8185 H   0  0  0  0  0  0  0  0  0  0  0  0
    3.3548   -0.6586    5.4083 H   0  0  0  0  0  0  0  0  0  0  0  0
    2.6985    1.4420    6.6690 H   0  0  0  0  0  0  0  0  0  0  0  0
    2.1724    0.7080    8.1829 H   0  0  0  0  0  0  0  0  0  0  0  0
    1.3476    2.1425    7.5695 H   0  0  0  0  0  0  0  0  0  0  0  0
   -0.8339    2.0534    7.8314 H   0  0  0  0  0  0  0  0  0  0  0  0
   -2.0254    0.7693    8.0052 H   0  0  0  0  0  0  0  0  0  0  0  0
   -2.1197    1.8676    6.6295 H   0  0  0  0  0  0  0  0  0  0  0  0
   -3.1154   -0.2903    5.6347 H   0  0  0  0  0  0  0  0  0  0  0  0
   -2.7778   -1.7020    6.6350 H   0  0  0  0  0  0  0  0  0  0  0  0
   -2.6451   -1.8215    4.8815 H   0  0  0  0  0  0  0  0  0  0  0  0
  1  3  1  0  0  0  0
  1 21  1  0  0  0  0
  2  1  1  0  0  0  0
  3  8  1  0  0  0  0
  4 10  1  0  0  0  0
  4  1  1  0  0  0  0
  5  1  1  0  0  0  0
  6 30  1  0  0  0  0
  6  8  1  0  0  0  0
  7 35  1  0  0  0  0
  7 33  1  0  0  0  0
  8 36  1  0  0  0  0
  8  7  1  0  0  0  0
  9 37  1  0  0  0  0
  9  3  1  0  0  0  0
 10  9  2  0  0  0  0
 11  4  1  0  0  0  0
 12 11  1  0  0  0  0
 12 41  1  0  0  0  0
 13 11  2  0  0  0  0
 14 15  1  6  0  0  0
 14 13  1  0  0  0  0
 14  5  1  0  0  0  0
 15 18  1  0  0  0  0
 15 16  1  0  0  0  0
 16 44  1  0  0  0  0
 17 15  1  0  0  0  0
 18 49  1  0  0  0  0
 19 23  1  0  0  0  0
 19 20  2  0  0  0  0
 20 21  1  0  0  0  0
 21 26  1  1  0  0  0
 22 21  1  0  0  0  0
 22 27  1  0  0  0  0
 23 22  2  0  0  0  0
 24 19  1  0  0  0  0
 24 53  1  0  0  0  0
 25 20  1  0  0  0  0
 25 56  1  0  0  0  0
 26 60  1  0  0  0  0
 26 59  1  0  0  0  0
 27 61  1  0  0  0  0
 27 62  1  0  0  0  0
 28 23  1  0  0  0  0
 28 65  1  0  0  0  0
 29  5  1  0  0  0  0
 31  6  1  0  0  0  0
 32  6  1  0  0  0  0
 34  7  1  0  0  0  0
 38 10  1  0  0  0  0
 39 12  1  0  0  0  0
 40 12  1  0  0  0  0
 42 13  1  0  0  0  0
 43 16  1  0  0  0  0
 45 16  1  0  0  0  0
 46 17  1  0  0  0  0
 47 17  1  0  0  0  0
 48 17  1  0  0  0  0
 50 18  1  0  0  0  0
 51 18  1  0  0  0  0
 52 24  1  0  0  0  0
 54 24  1  0  0  0  0
 55 25  1  0  0  0  0
 57 25  1  0  0  0  0
 58 26  1  0  0  0  0
 63 27  1  0  0  0  0
 64 28  1  0  0  0  0
 66 28  1  0  0  0  0
M  END
$$$$
