CSD_code = YADZUA | q = 0 | S = 0 | Stoichiometry = C8H12Cl2N4Zn | MND = 5
 OpenBabel04212202123D

 27 29  0  0  1  0  0  0  0  0999 V2000
    5.5320    8.1059    7.6690 Zn  0  0  0  0  0  0  0  0  0  0  0  0
    7.1183    7.0510    5.1745 C   0  0  0  0  0  3  0  0  0  0  0  0
    6.8318    6.0734    5.5362 H   0  0  0  0  0  0  0  0  0  0  0  0
    7.6190    7.2659    3.8924 C   0  0  0  0  0  0  0  0  0  0  0  0
    7.7639    6.4577    3.1904 H   0  0  0  0  0  0  0  0  0  0  0  0
    7.7804    9.4821    4.3170 C   0  0  0  0  0  0  0  0  0  0  0  0
    8.0259   10.4597    3.9280 H   0  0  0  0  0  0  0  0  0  0  0  0
    7.3178    9.2856    5.6201 C   0  0  0  0  0  0  0  0  0  0  0  0
    7.1304   10.3684    6.6040 C   0  0  1  0  0  3  0  0  0  0  0  0
    6.1211   10.9199    8.7212 C   0  0  0  0  0  0  0  0  0  0  0  0
    6.1453   11.9820    8.4558 H   0  0  0  0  0  0  0  0  0  0  0  0
    6.8055   10.7415    9.5592 H   0  0  0  0  0  0  0  0  0  0  0  0
    4.6968   10.5405    9.1490 C   0  0  0  0  0  0  0  0  0  0  0  0
    4.3963   11.1692    9.9974 H   0  0  0  0  0  0  0  0  0  0  0  0
    4.0251   10.7234    8.3074 H   0  0  0  0  0  0  0  0  0  0  0  0
    7.6710   11.7212    6.2565 C   0  0  0  0  0  0  0  0  0  0  0  0
    7.7063   12.3738    7.1235 H   0  0  0  0  0  0  0  0  0  0  0  0
    7.0358   12.1796    5.4991 H   0  0  0  0  0  0  0  0  0  0  0  0
    8.6761   11.6292    5.8517 H   0  0  0  0  0  0  0  0  0  0  0  0
    6.0285    6.1433    8.5428 Cl  0  0  0  0  0  0  0  0  0  0  0  0
    3.9068    8.6879    6.2196 Cl  0  0  0  0  0  0  0  0  0  0  0  0
    6.9767    8.0566    6.0167 N   0  0  0  0  0  0  0  0  0  0  0  0
    7.9335    8.4784    3.4719 N   0  0  0  0  0  0  0  0  0  0  0  0
    6.5082   10.0464    7.6608 N   0  0  1  0  0  0  0  0  0  0  0  0
    4.6402    9.1169    9.4526 N   0  0  0  0  0  4  0  0  0  0  0  0
    3.6763    8.8128    9.5502 H   0  0  0  0  0  0  0  0  0  0  0  0
    5.1223    8.9054   10.3224 H   0  0  0  0  0  0  0  0  0  0  0  0
  1 20  1  0  0  0  0
  1 25  1  0  0  0  0
  2  3  1  0  0  0  0
  2 22  1  0  0  0  0
  4  2  1  0  0  0  0
  5  4  1  0  0  0  0
  6  8  2  0  0  0  0
  7  6  1  0  0  0  0
  8 22  1  0  0  0  0
  8  9  1  0  0  0  0
  9 16  1  6  0  0  0
  9 24  1  0  0  0  0
 10 13  1  0  0  0  0
 10 12  1  0  0  0  0
 11 10  1  0  0  0  0
 13 25  1  0  0  0  0
 13 14  1  0  0  0  0
 15 13  1  0  0  0  0
 16 17  1  0  0  0  0
 18 16  1  0  0  0  0
 19 16  1  0  0  0  0
 21  1  1  0  0  0  0
 22  1  1  0  0  0  0
 23  4  2  0  0  0  0
 23  6  1  0  0  0  0
 24  1  1  0  0  0  0
 24 10  1  6  0  0  0
 25 26  1  0  0  0  0
 25 27  1  0  0  0  0
M  END
$$$$
