CSD_code = YAFCIT | q = 0 | S = 0 | Stoichiometry = C31H27Cl2NNiP2 | MND = 4
 OpenBabel04212202123D

 64 69  0  0  0  0  0  0  0  0999 V2000
    2.3807    0.9235    3.9683 Ni  0  0  0  0  0  0  0  0  0  0  0  0
    2.1425    2.8400    3.0033 P   0  0  0  0  0  4  0  0  0  0  0  0
    1.8439    2.2168    5.6033 P   0  0  0  0  0  4  0  0  0  0  0  0
    2.7698   -0.0474    2.1732 Cl  0  0  0  0  0  0  0  0  0  0  0  0
    2.4419   -0.7653    5.1815 Cl  0  0  0  0  0  0  0  0  0  0  0  0
    1.7271    3.5470    4.5194 N   0  0  0  0  0  0  0  0  0  0  0  0
    0.7085    3.0734    1.9080 C   0  0  0  0  0  0  0  0  0  0  0  0
   -0.1979    2.0211    1.8488 C   0  0  0  0  0  0  0  0  0  0  0  0
    0.0196    1.1085    2.3965 H   0  0  0  0  0  0  0  0  0  0  0  0
   -1.3400    2.1304    1.0780 C   0  0  0  0  0  0  0  0  0  0  0  0
   -2.0401    1.3100    1.0288 H   0  0  0  0  0  0  0  0  0  0  0  0
   -1.5755    3.2921    0.3618 C   0  0  0  0  0  0  0  0  0  0  0  0
   -2.4648    3.3815   -0.2443 H   0  0  0  0  0  0  0  0  0  0  0  0
   -0.6680    4.3386    0.4111 C   0  0  0  0  0  0  0  0  0  0  0  0
   -0.8522    5.2403   -0.1540 H   0  0  0  0  0  0  0  0  0  0  0  0
    0.4756    4.2342    1.1800 C   0  0  0  0  0  0  0  0  0  0  0  0
    1.1844    5.0494    1.2151 H   0  0  0  0  0  0  0  0  0  0  0  0
    3.4205    3.8998    2.2825 C   0  0  0  0  0  0  0  0  0  0  0  0
    3.6296    3.8354    0.9064 C   0  0  0  0  0  0  0  0  0  0  0  0
    2.9882    3.2093    0.3014 H   0  0  0  0  0  0  0  0  0  0  0  0
    4.6569    4.5586    0.3307 C   0  0  0  0  0  0  0  0  0  0  0  0
    4.8158    4.5109   -0.7362 H   0  0  0  0  0  0  0  0  0  0  0  0
    5.4879    5.3370    1.1216 C   0  0  0  0  0  0  0  0  0  0  0  0
    6.2884    5.9034    0.6695 H   0  0  0  0  0  0  0  0  0  0  0  0
    5.3066    5.3722    2.4948 C   0  0  0  0  0  0  0  0  0  0  0  0
    5.9701    5.9589    3.1134 H   0  0  0  0  0  0  0  0  0  0  0  0
    4.2850    4.6443    3.0767 C   0  0  0  0  0  0  0  0  0  0  0  0
    4.1646    4.6380    4.1508 H   0  0  0  0  0  0  0  0  0  0  0  0
    0.1977    2.0137    6.3551 C   0  0  0  0  0  0  0  0  0  0  0  0
   -0.2552    2.8067    7.4035 C   0  0  0  0  0  0  0  0  0  0  0  0
    0.4014    3.5382    7.8547 H   0  0  0  0  0  0  0  0  0  0  0  0
   -1.5456    2.6445    7.8745 C   0  0  0  0  0  0  0  0  0  0  0  0
   -1.9014    3.2614    8.6865 H   0  0  0  0  0  0  0  0  0  0  0  0
   -2.3793    1.6908    7.3115 C   0  0  0  0  0  0  0  0  0  0  0  0
   -3.3843    1.5683    7.6871 H   0  0  0  0  0  0  0  0  0  0  0  0
   -1.9241    0.8874    6.2780 C   0  0  0  0  0  0  0  0  0  0  0  0
   -2.5694    0.1349    5.8504 H   0  0  0  0  0  0  0  0  0  0  0  0
   -0.6373    1.0495    5.7993 C   0  0  0  0  0  0  0  0  0  0  0  0
   -0.2531    0.4192    5.0027 H   0  0  0  0  0  0  0  0  0  0  0  0
    2.8336    2.7440    7.0259 C   0  0  0  0  0  0  0  0  0  0  0  0
    2.9214    1.8060    8.0541 C   0  0  0  0  0  0  0  0  0  0  0  0
    2.3879    0.8693    7.9548 H   0  0  0  0  0  0  0  0  0  0  0  0
    3.6941    2.0714    9.1672 C   0  0  0  0  0  0  0  0  0  0  0  0
    3.7625    1.3446    9.9625 H   0  0  0  0  0  0  0  0  0  0  0  0
    4.3884    3.2689    9.2579 C   0  0  0  0  0  0  0  0  0  0  0  0
    4.9925    3.4781   10.1281 H   0  0  0  0  0  0  0  0  0  0  0  0
    4.3186    4.1929    8.2288 C   0  0  0  0  0  0  0  0  0  0  0  0
    4.8685    5.1205    8.2963 H   0  0  0  0  0  0  0  0  0  0  0  0
    3.5506    3.9301    7.1075 C   0  0  0  0  0  0  0  0  0  0  0  0
    3.5080    4.6494    6.3026 H   0  0  0  0  0  0  0  0  0  0  0  0
    1.2028    4.8788    4.7871 C   0  0  0  0  0  0  0  0  0  0  0  0
    1.9466    5.6294    4.4912 H   0  0  0  0  0  0  0  0  0  0  0  0
    1.0541    4.9530    5.8716 H   0  0  0  0  0  0  0  0  0  0  0  0
   -0.0980    5.1960    4.0946 C   0  0  0  0  0  0  0  0  0  0  0  0
   -0.2585    6.4170    3.4529 C   0  0  0  0  0  0  0  0  0  0  0  0
    0.5566    7.1275    3.4425 H   0  0  0  0  0  0  0  0  0  0  0  0
   -1.4512    6.7315    2.8266 C   0  0  0  0  0  0  0  0  0  0  0  0
   -1.5617    7.6849    2.3313 H   0  0  0  0  0  0  0  0  0  0  0  0
   -2.4968    5.8252    2.8305 C   0  0  0  0  0  0  0  0  0  0  0  0
   -3.4262    6.0671    2.3374 H   0  0  0  0  0  0  0  0  0  0  0  0
   -2.3451    4.6067    3.4697 C   0  0  0  0  0  0  0  0  0  0  0  0
   -3.1556    3.8936    3.4792 H   0  0  0  0  0  0  0  0  0  0  0  0
   -1.1554    4.2966    4.1014 C   0  0  0  0  0  0  0  0  0  0  0  0
   -1.0446    3.3433    4.5954 H   0  0  0  0  0  0  0  0  0  0  0  0
  1  5  1  0  0  0  0
  1  3  1  0  0  0  0
  2  1  1  0  0  0  0
  2  6  1  0  0  0  0
  3 29  1  0  0  0  0
  3 40  1  0  0  0  0
  4  1  1  0  0  0  0
  6 51  1  0  0  0  0
  6  3  1  0  0  0  0
  7  2  1  0  0  0  0
  8  7  1  0  0  0  0
  8  9  1  0  0  0  0
 10  8  2  0  0  0  0
 11 10  1  0  0  0  0
 12 14  2  0  0  0  0
 12 10  1  0  0  0  0
 13 12  1  0  0  0  0
 14 16  1  0  0  0  0
 15 14  1  0  0  0  0
 16 17  1  0  0  0  0
 16  7  2  0  0  0  0
 18  2  1  0  0  0  0
 18 27  1  0  0  0  0
 19 18  2  0  0  0  0
 20 19  1  0  0  0  0
 21 19  1  0  0  0  0
 21 23  2  0  0  0  0
 22 21  1  0  0  0  0
 23 25  1  0  0  0  0
 24 23  1  0  0  0  0
 25 27  2  0  0  0  0
 25 26  1  0  0  0  0
 27 28  1  0  0  0  0
 29 30  1  0  0  0  0
 30 31  1  0  0  0  0
 30 32  2  0  0  0  0
 32 33  1  0  0  0  0
 34 35  1  0  0  0  0
 34 32  1  0  0  0  0
 36 34  2  0  0  0  0
 37 36  1  0  0  0  0
 38 36  1  0  0  0  0
 38 29  2  0  0  0  0
 39 38  1  0  0  0  0
 40 49  2  0  0  0  0
 40 41  1  0  0  0  0
 41 43  2  0  0  0  0
 42 41  1  0  0  0  0
 43 45  1  0  0  0  0
 43 44  1  0  0  0  0
 45 46  1  0  0  0  0
 47 48  1  0  0  0  0
 47 45  2  0  0  0  0
 49 47  1  0  0  0  0
 50 49  1  0  0  0  0
 51 53  1  0  0  0  0
 52 51  1  0  0  0  0
 54 63  1  0  0  0  0
 54 51  1  0  0  0  0
 55 54  2  0  0  0  0
 56 55  1  0  0  0  0
 57 59  2  0  0  0  0
 57 55  1  0  0  0  0
 58 57  1  0  0  0  0
 59 61  1  0  0  0  0
 60 59  1  0  0  0  0
 61 62  1  0  0  0  0
 61 63  2  0  0  0  0
 63 64  1  0  0  0  0
M  END
$$$$
