CSD_code = YAFCOZ | q = 0 | S = 0 | Stoichiometry = C27H27Cl2NNiP2 | MND = 4
 OpenBabel04212202123D

 60 64  0  0  0  0  0  0  0  0999 V2000
    5.0433    6.2330    2.7967 Ni  0  0  0  0  0  0  0  0  0  0  0  0
    3.4609    5.7362    1.5351 Cl  0  0  0  0  0  0  0  0  0  0  0  0
    4.7447    8.2919    2.8428 Cl  0  0  0  0  0  0  0  0  0  0  0  0
    5.5111    4.1545    2.9259 P   0  0  0  0  0  4  0  0  0  0  0  0
    6.7885    6.2111    4.0715 P   0  0  0  0  0  4  0  0  0  0  0  0
    6.8270    4.4931    3.9804 N   0  0  0  0  0  0  0  0  0  0  0  0
    6.0541    3.0670    1.5934 C   0  0  0  0  0  0  0  0  0  0  0  0
    5.0738    2.3849    0.8751 C   0  0  0  0  0  0  0  0  0  0  0  0
    4.0381    2.4828    1.1693 H   0  0  0  0  0  0  0  0  0  0  0  0
    5.4321    1.6169   -0.2166 C   0  0  0  0  0  0  0  0  0  0  0  0
    4.6742    1.0849   -0.7718 H   0  0  0  0  0  0  0  0  0  0  0  0
    6.7607    1.5390   -0.6052 C   0  0  0  0  0  0  0  0  0  0  0  0
    7.0391    0.9364   -1.4568 H   0  0  0  0  0  0  0  0  0  0  0  0
    7.7302    2.2524    0.0818 C   0  0  0  0  0  0  0  0  0  0  0  0
    8.7607    2.2127   -0.2395 H   0  0  0  0  0  0  0  0  0  0  0  0
    7.3790    3.0279    1.1716 C   0  0  0  0  0  0  0  0  0  0  0  0
    8.1274    3.6125    1.6880 H   0  0  0  0  0  0  0  0  0  0  0  0
    4.3404    3.1972    3.9412 C   0  0  0  0  0  0  0  0  0  0  0  0
    3.5541    3.9743    4.7878 C   0  0  0  0  0  0  0  0  0  0  0  0
    3.6460    5.0600    4.7440 H   0  0  0  0  0  0  0  0  0  0  0  0
    2.6529    3.3777    5.6484 C   0  0  0  0  0  0  0  0  0  0  0  0
    2.0434    3.9843    6.3013 H   0  0  0  0  0  0  0  0  0  0  0  0
    2.5269    1.9973    5.6580 C   0  0  0  0  0  0  0  0  0  0  0  0
    1.8202    1.5249    6.3240 H   0  0  0  0  0  0  0  0  0  0  0  0
    3.2961    1.2213    4.8055 C   0  0  0  0  0  0  0  0  0  0  0  0
    3.1872    0.1466    4.8086 H   0  0  0  0  0  0  0  0  0  0  0  0
    4.2032    1.8148    3.9452 C   0  0  0  0  0  0  0  0  0  0  0  0
    4.7968    1.2047    3.2793 H   0  0  0  0  0  0  0  0  0  0  0  0
    8.3463    6.6912    3.2637 C   0  0  0  0  0  0  0  0  0  0  0  0
    9.5925    6.6066    3.8739 C   0  0  0  0  0  0  0  0  0  0  0  0
    9.6686    6.3338    4.9176 H   0  0  0  0  0  0  0  0  0  0  0  0
   10.7310    6.8849    3.1388 C   0  0  0  0  0  0  0  0  0  0  0  0
   11.7015    6.8228    3.6093 H   0  0  0  0  0  0  0  0  0  0  0  0
   10.6303    7.2429    1.8030 C   0  0  0  0  0  0  0  0  0  0  0  0
   11.5244    7.4612    1.2379 H   0  0  0  0  0  0  0  0  0  0  0  0
    9.3887    7.3259    1.1928 C   0  0  0  0  0  0  0  0  0  0  0  0
    9.3116    7.6091    0.1539 H   0  0  0  0  0  0  0  0  0  0  0  0
    8.2478    7.0481    1.9227 C   0  0  0  0  0  0  0  0  0  0  0  0
    7.2609    7.1175    1.4673 H   0  0  0  0  0  0  0  0  0  0  0  0
    7.0198    6.5826    5.8273 C   0  0  0  0  0  0  0  0  0  0  0  0
    7.5990    7.7927    6.1979 C   0  0  0  0  0  0  0  0  0  0  0  0
    7.9659    8.4628    5.4328 H   0  0  0  0  0  0  0  0  0  0  0  0
    7.6924    8.1291    7.5357 C   0  0  0  0  0  0  0  0  0  0  0  0
    8.1459    9.0656    7.8244 H   0  0  0  0  0  0  0  0  0  0  0  0
    7.1982    7.2699    8.5047 C   0  0  0  0  0  0  0  0  0  0  0  0
    7.2730    7.5347    9.5488 H   0  0  0  0  0  0  0  0  0  0  0  0
    6.5922    6.0791    8.1358 C   0  0  0  0  0  0  0  0  0  0  0  0
    6.1905    5.4194    8.8911 H   0  0  0  0  0  0  0  0  0  0  0  0
    6.4897    5.7397    6.7997 C   0  0  0  0  0  0  0  0  0  0  0  0
    5.9956    4.8239    6.5020 H   0  0  0  0  0  0  0  0  0  0  0  0
    7.8978    3.6675    4.5194 C   0  0  0  0  0  0  0  0  0  0  0  0
    8.2262    4.1312    5.4572 H   0  0  0  0  0  0  0  0  0  0  0  0
    8.7618    3.6552    3.8412 H   0  0  0  0  0  0  0  0  0  0  0  0
    7.4442    2.2389    4.7856 C   0  0  0  0  0  0  0  0  0  0  0  0
    7.1186    1.7924    3.8432 H   0  0  0  0  0  0  0  0  0  0  0  0
    6.5898    2.2543    5.4659 H   0  0  0  0  0  0  0  0  0  0  0  0
    8.5681    1.4046    5.3861 C   0  0  0  0  0  0  0  0  0  0  0  0
    9.4212    1.3712    4.7122 H   0  0  0  0  0  0  0  0  0  0  0  0
    8.2299    0.3871    5.5632 H   0  0  0  0  0  0  0  0  0  0  0  0
    8.8947    1.8286    6.3331 H   0  0  0  0  0  0  0  0  0  0  0  0
  1  3  1  0  0  0  0
  1  4  1  0  0  0  0
  1  5  1  0  0  0  0
  2  1  1  0  0  0  0
  4 18  1  0  0  0  0
  4  6  1  0  0  0  0
  5 40  1  0  0  0  0
  6  5  1  0  0  0  0
  6 51  1  0  0  0  0
  7  4  1  0  0  0  0
  8  9  1  0  0  0  0
  8  7  2  0  0  0  0
 10  8  1  0  0  0  0
 11 10  1  0  0  0  0
 12 10  2  0  0  0  0
 12 14  1  0  0  0  0
 13 12  1  0  0  0  0
 14 16  2  0  0  0  0
 15 14  1  0  0  0  0
 16  7  1  0  0  0  0
 16 17  1  0  0  0  0
 18 27  2  0  0  0  0
 18 19  1  0  0  0  0
 19 21  2  0  0  0  0
 20 19  1  0  0  0  0
 21 23  1  0  0  0  0
 21 22  1  0  0  0  0
 23 24  1  0  0  0  0
 25 26  1  0  0  0  0
 25 23  2  0  0  0  0
 27 25  1  0  0  0  0
 28 27  1  0  0  0  0
 29 30  1  0  0  0  0
 29  5  1  0  0  0  0
 30 31  1  0  0  0  0
 32 33  1  0  0  0  0
 32 30  2  0  0  0  0
 34 32  1  0  0  0  0
 35 34  1  0  0  0  0
 36 34  2  0  0  0  0
 36 38  1  0  0  0  0
 37 36  1  0  0  0  0
 38 29  2  0  0  0  0
 39 38  1  0  0  0  0
 40 41  2  0  0  0  0
 40 49  1  0  0  0  0
 41 43  1  0  0  0  0
 42 41  1  0  0  0  0
 43 44  1  0  0  0  0
 43 45  2  0  0  0  0
 45 46  1  0  0  0  0
 47 45  1  0  0  0  0
 47 48  1  0  0  0  0
 49 47  2  0  0  0  0
 50 49  1  0  0  0  0
 51 54  1  0  0  0  0
 51 52  1  0  0  0  0
 53 51  1  0  0  0  0
 54 57  1  0  0  0  0
 54 56  1  0  0  0  0
 55 54  1  0  0  0  0
 57 59  1  0  0  0  0
 57 60  1  0  0  0  0
 58 57  1  0  0  0  0
M  END
$$$$
