CSD_code = YAFJUM | q = 0 | S = 0 | Stoichiometry = C14H10Cl2N4Pd | MND = 4
 OpenBabel04212202123D

 31 34  0  0  0  0  0  0  0  0999 V2000
   -0.4068    0.9569    3.5557 Pd  0  0  0  0  0  0  0  0  0  0  0  0
   -1.3927   -0.9511    3.0033 Cl  0  0  0  0  0  0  0  0  0  0  0  0
   -2.1250    2.1865    2.8836 Cl  0  0  0  0  0  0  0  0  0  0  0  0
    2.4541    0.1351    0.9573 N   0  0  0  0  0  0  0  0  0  0  0  0
    1.9303    2.8304    0.9174 N   0  0  0  0  0  0  0  0  0  0  0  0
    1.1993   -0.1045    4.1390 N   0  0  0  0  0  0  0  0  0  0  0  0
    0.5637    2.6415    4.0482 N   0  0  0  0  0  0  0  0  0  0  0  0
    2.1345    0.7669    2.0832 C   0  0  0  0  0  0  0  0  0  0  0  0
    1.8533    2.1556    2.0603 C   0  0  0  0  0  0  0  0  0  0  0  0
    2.1803    2.1696   -0.2006 C   0  0  0  0  0  0  0  0  0  0  0  0
    2.1977    2.7565   -1.1074 H   0  0  0  0  0  0  0  0  0  0  0  0
    2.4334    0.8061   -0.1818 C   0  0  0  0  0  0  0  0  0  0  0  0
    2.6534    0.2391   -1.0746 H   0  0  0  0  0  0  0  0  0  0  0  0
    2.2312   -0.0918    3.2909 C   0  0  0  0  0  0  0  0  0  0  0  0
    3.3310   -0.9234    3.4663 C   0  0  0  0  0  0  0  0  0  0  0  0
    4.1301   -0.9055    2.7433 H   0  0  0  0  0  0  0  0  0  0  0  0
    3.3589   -1.7743    4.5592 C   0  0  0  0  0  0  0  0  0  0  0  0
    4.1985   -2.4334    4.7178 H   0  0  0  0  0  0  0  0  0  0  0  0
    2.2799   -1.7784    5.4315 C   0  0  0  0  0  0  0  0  0  0  0  0
    2.2547   -2.4393    6.2830 H   0  0  0  0  0  0  0  0  0  0  0  0
    1.2141   -0.9322    5.1793 C   0  0  0  0  0  0  0  0  0  0  0  0
    0.3317   -0.9196    5.8107 H   0  0  0  0  0  0  0  0  0  0  0  0
    1.5570    3.0127    3.2352 C   0  0  0  0  0  0  0  0  0  0  0  0
    2.2339    4.2137    3.4115 C   0  0  0  0  0  0  0  0  0  0  0  0
    3.0113    4.4904    2.7179 H   0  0  0  0  0  0  0  0  0  0  0  0
    1.8756    5.0358    4.4676 C   0  0  0  0  0  0  0  0  0  0  0  0
    2.3836    5.9742    4.6268 H   0  0  0  0  0  0  0  0  0  0  0  0
    0.8384    4.6408    5.3004 C   0  0  0  0  0  0  0  0  0  0  0  0
    0.5152    5.2617    6.1202 H   0  0  0  0  0  0  0  0  0  0  0  0
    0.2021    3.4376    5.0499 C   0  0  0  0  0  0  0  0  0  0  0  0
   -0.6358    3.0973    5.6497 H   0  0  0  0  0  0  0  0  0  0  0  0
  1  7  1  0  0  0  0
  1  6  1  0  0  0  0
  2  1  1  0  0  0  0
  3  1  1  0  0  0  0
  4  8  1  0  0  0  0
  5  9  1  0  0  0  0
  6 21  1  0  0  0  0
  7 30  1  0  0  0  0
  8 14  2  0  0  0  0
  9  8  1  0  0  0  0
  9 23  2  0  0  0  0
 10 12  1  0  0  0  0
 10  5  2  0  0  0  0
 11 10  1  0  0  0  0
 12  4  2  0  0  0  0
 13 12  1  0  0  0  0
 14 15  1  0  0  0  0
 14  6  1  0  0  0  0
 15 17  2  0  0  0  0
 16 15  1  0  0  0  0
 17 18  1  0  0  0  0
 17 19  1  0  0  0  0
 19 20  1  0  0  0  0
 21 19  2  0  0  0  0
 21 22  1  0  0  0  0
 23 24  1  0  0  0  0
 23  7  1  0  0  0  0
 24 26  2  0  0  0  0
 25 24  1  0  0  0  0
 26 27  1  0  0  0  0
 26 28  1  0  0  0  0
 28 29  1  0  0  0  0
 30 28  2  0  0  0  0
 30 31  1  0  0  0  0
M  END
$$$$
