CSD_code = YAFLOI | q = 0 | S = 0 | Stoichiometry = C25H23AuClN2P | MND = 2
 OpenBabel04212202123D

 53 56  0  0  0  0  0  0  0  0999 V2000
    4.1985    4.7904    0.2119 C   0  0  0  0  0  0  0  0  0  0  0  0
    4.6741    3.4848    0.3295 C   0  0  0  0  0  0  0  0  0  0  0  0
    4.5454    2.9654    1.2725 H   0  0  0  0  0  0  0  0  0  0  0  0
    5.2955    2.8610   -0.7329 C   0  0  0  0  0  0  0  0  0  0  0  0
    5.6616    1.8504   -0.6280 H   0  0  0  0  0  0  0  0  0  0  0  0
    5.4378    3.5326   -1.9381 C   0  0  0  0  0  0  0  0  0  0  0  0
    5.9149    3.0453   -2.7755 H   0  0  0  0  0  0  0  0  0  0  0  0
    4.9624    4.8254   -2.0675 C   0  0  0  0  0  0  0  0  0  0  0  0
    5.0691    5.3497   -3.0062 H   0  0  0  0  0  0  0  0  0  0  0  0
    4.3474    5.4566   -0.9982 C   0  0  0  0  0  0  0  0  0  0  0  0
    3.9847    6.4687   -1.1119 H   0  0  0  0  0  0  0  0  0  0  0  0
    2.8828    7.0799    1.0702 C   0  0  0  0  0  0  0  0  0  0  0  0
    1.7492    7.1099    0.2659 C   0  0  0  0  0  0  0  0  0  0  0  0
    1.2029    6.1917    0.0937 H   0  0  0  0  0  0  0  0  0  0  0  0
    1.3365    8.3008   -0.3007 C   0  0  0  0  0  0  0  0  0  0  0  0
    0.4612    8.3231   -0.9327 H   0  0  0  0  0  0  0  0  0  0  0  0
    2.0475    9.4653   -0.0562 C   0  0  0  0  0  0  0  0  0  0  0  0
    1.7252   10.3963   -0.4984 H   0  0  0  0  0  0  0  0  0  0  0  0
    3.1725    9.4376    0.7512 C   0  0  0  0  0  0  0  0  0  0  0  0
    3.7267   10.3464    0.9374 H   0  0  0  0  0  0  0  0  0  0  0  0
    3.5959    8.2465    1.3141 C   0  0  0  0  0  0  0  0  0  0  0  0
    4.4845    8.2172    1.9313 H   0  0  0  0  0  0  0  0  0  0  0  0
    4.8702    5.6783    2.7343 C   0  0  0  0  0  0  0  0  0  0  0  0
    6.1418    5.7728    2.1781 C   0  0  0  0  0  0  0  0  0  0  0  0
    6.2605    5.7974    1.1044 H   0  0  0  0  0  0  0  0  0  0  0  0
    7.2542    5.8416    2.9979 C   0  0  0  0  0  0  0  0  0  0  0  0
    8.2373    5.9264    2.5595 H   0  0  0  0  0  0  0  0  0  0  0  0
    7.1103    5.7933    4.3747 C   0  0  0  0  0  0  0  0  0  0  0  0
    7.9810    5.8327    5.0117 H   0  0  0  0  0  0  0  0  0  0  0  0
    5.8474    5.7056    4.9364 C   0  0  0  0  0  0  0  0  0  0  0  0
    5.7298    5.6778    6.0102 H   0  0  0  0  0  0  0  0  0  0  0  0
    4.7281    5.6537    4.1236 C   0  0  0  0  0  0  0  0  0  0  0  0
    3.3274    5.6242    4.6532 C   0  0  0  0  0  0  0  0  0  0  0  0
    2.9319    4.5995    4.6088 H   0  0  0  0  0  0  0  0  0  0  0  0
    3.2816    5.9665    5.6962 H   0  0  0  0  0  0  0  0  0  0  0  0
    1.1138    6.4503    4.0617 C   0  0  0  0  0  0  0  0  0  0  0  0
    0.9529    6.6793    5.1269 H   0  0  0  0  0  0  0  0  0  0  0  0
    0.7031    5.4572    3.8528 H   0  0  0  0  0  0  0  0  0  0  0  0
    0.3705    7.4556    3.2247 C   0  0  0  0  0  0  0  0  0  0  0  0
    0.6651    8.8149    3.2872 C   0  0  0  0  0  0  0  0  0  0  0  0
    1.4442    9.1852    3.9383 H   0  0  0  0  0  0  0  0  0  0  0  0
   -0.0726    9.6912    2.5110 C   0  0  0  0  0  0  0  0  0  0  0  0
    0.1314   10.7519    2.5395 H   0  0  0  0  0  0  0  0  0  0  0  0
   -1.0817    9.1853    1.7073 C   0  0  0  0  0  0  0  0  0  0  0  0
   -1.6847    9.8360    1.0938 H   0  0  0  0  0  0  0  0  0  0  0  0
   -1.2972    7.8160    1.7178 C   0  0  0  0  0  0  0  0  0  0  0  0
   -2.0723    7.3631    1.1139 H   0  0  0  0  0  0  0  0  0  0  0  0
    3.3738    5.4589    1.7179 P   0  0  0  0  0  4  0  0  0  0  0  0
    0.4942    2.1036    2.6694 Cl  0  0  0  0  0  0  0  0  0  0  0  0
    1.9032    3.8069    2.1504 Au  0  0  0  0  0  0  0  0  0  0  0  0
    2.5363    6.4400    3.7477 N   0  0  0  0  0  0  0  0  0  0  0  0
   -0.5904    6.9768    2.4511 N   0  0  0  0  0  0  0  0  0  0  0  0
    2.8895    7.3959    3.7766 H   0  0  0  0  0  0  0  0  0  0  0  0
  1  2  1  0  0  0  0
  1 48  1  0  0  0  0
  2  3  1  0  0  0  0
  4  5  1  0  0  0  0
  4  2  2  0  0  0  0
  6  4  1  0  0  0  0
  7  6  1  0  0  0  0
  8  6  2  0  0  0  0
  8 10  1  0  0  0  0
  9  8  1  0  0  0  0
 10  1  2  0  0  0  0
 11 10  1  0  0  0  0
 12 21  1  0  0  0  0
 12 48  1  0  0  0  0
 13 12  2  0  0  0  0
 14 13  1  0  0  0  0
 15 17  2  0  0  0  0
 15 13  1  0  0  0  0
 16 15  1  0  0  0  0
 17 19  1  0  0  0  0
 18 17  1  0  0  0  0
 19 20  1  0  0  0  0
 19 21  2  0  0  0  0
 21 22  1  0  0  0  0
 23 32  1  0  0  0  0
 24 23  2  0  0  0  0
 24 26  1  0  0  0  0
 25 24  1  0  0  0  0
 26 28  2  0  0  0  0
 27 26  1  0  0  0  0
 28 30  1  0  0  0  0
 28 29  1  0  0  0  0
 30 31  1  0  0  0  0
 32 33  1  0  0  0  0
 32 30  2  0  0  0  0
 33 35  1  0  0  0  0
 34 33  1  0  0  0  0
 36 37  1  0  0  0  0
 38 36  1  0  0  0  0
 39 40  1  0  0  0  0
 39 36  1  0  0  0  0
 40 41  1  0  0  0  0
 42 43  1  0  0  0  0
 42 40  2  0  0  0  0
 44 46  2  0  0  0  0
 44 42  1  0  0  0  0
 45 44  1  0  0  0  0
 46 52  1  0  0  0  0
 47 46  1  0  0  0  0
 48 50  1  0  0  0  0
 48 23  1  0  0  0  0
 50 49  1  0  0  0  0
 51 53  1  0  0  0  0
 51 36  1  0  0  0  0
 51 33  1  0  0  0  0
 52 39  2  0  0  0  0
M  END
$$$$
