CSD_code = YAFPUS | q = 0 | S = 0 | Stoichiometry = C27H25ClNPPd | MND = 4
 OpenBabel04212202123D

 56 60  0  0  0  0  0  0  0  0999 V2000
    1.5078   17.4698    0.2153 Pd  0  0  1  0  0  0  0  0  0  0  0  0
    0.7947   15.3819    0.7340 Cl  0  0  0  0  0  0  0  0  0  0  0  0
    0.0785   18.1883    1.4970 C   0  0  0  0  0  0  0  0  0  0  0  0
    0.0854   19.2818    1.5824 H   0  0  0  0  0  0  0  0  0  0  0  0
    0.1973   17.7563    2.4967 H   0  0  0  0  0  0  0  0  0  0  0  0
   -0.8903   17.8647    1.0954 H   0  0  0  0  0  0  0  0  0  0  0  0
    2.7332   19.3236    0.0030 P   0  0  0  0  0  4  0  0  0  0  0  0
    2.7065   20.4092    1.4610 C   0  0  0  0  0  0  0  0  0  0  0  0
    2.7173   19.7363    2.6827 C   0  0  0  0  0  0  0  0  0  0  0  0
    2.7233   18.6463    2.6780 H   0  0  0  0  0  0  0  0  0  0  0  0
    2.7036   20.4475    3.8659 C   0  0  0  0  0  0  0  0  0  0  0  0
    2.7121   19.9273    4.8121 H   0  0  0  0  0  0  0  0  0  0  0  0
    2.6664   21.8343    3.8358 C   0  0  0  0  0  0  0  0  0  0  0  0
    2.6471   22.3931    4.7597 H   0  0  0  0  0  0  0  0  0  0  0  0
    2.6454   22.5043    2.6242 C   0  0  0  0  0  0  0  0  0  0  0  0
    2.6122   23.5839    2.6043 H   0  0  0  0  0  0  0  0  0  0  0  0
    2.6679   21.7970    1.4332 C   0  0  0  0  0  0  0  0  0  0  0  0
    2.6562   22.3207    0.4872 H   0  0  0  0  0  0  0  0  0  0  0  0
    2.5699   20.4570   -1.4057 C   0  0  0  0  0  0  0  0  0  0  0  0
    1.3152   21.0399   -1.5729 C   0  0  0  0  0  0  0  0  0  0  0  0
    0.5306   20.8006   -0.8652 H   0  0  0  0  0  0  0  0  0  0  0  0
    1.0837   21.9009   -2.6266 C   0  0  0  0  0  0  0  0  0  0  0  0
    0.1149   22.3631   -2.7451 H   0  0  0  0  0  0  0  0  0  0  0  0
    2.0956   22.1648   -3.5374 C   0  0  0  0  0  0  0  0  0  0  0  0
    1.9154   22.8342   -4.3656 H   0  0  0  0  0  0  0  0  0  0  0  0
    3.3358   21.5673   -3.3894 C   0  0  0  0  0  0  0  0  0  0  0  0
    4.1211   21.7687   -4.1037 H   0  0  0  0  0  0  0  0  0  0  0  0
    3.5784   20.7159   -2.3252 C   0  0  0  0  0  0  0  0  0  0  0  0
    4.5510   20.2578   -2.2067 H   0  0  0  0  0  0  0  0  0  0  0  0
    4.5082   18.8494   -0.0387 C   0  0  0  0  0  0  0  0  0  0  0  0
    5.4384   19.6214    0.6517 C   0  0  0  0  0  0  0  0  0  0  0  0
    5.1033   20.4887    1.2020 H   0  0  0  0  0  0  0  0  0  0  0  0
    6.7848   19.3027    0.6484 C   0  0  0  0  0  0  0  0  0  0  0  0
    7.4817   19.9148    1.2010 H   0  0  0  0  0  0  0  0  0  0  0  0
    7.2343   18.2061   -0.0687 C   0  0  0  0  0  0  0  0  0  0  0  0
    8.2834   17.9519   -0.0775 H   0  0  0  0  0  0  0  0  0  0  0  0
    6.3314   17.4449   -0.7835 C   0  0  0  0  0  0  0  0  0  0  0  0
    6.6765   16.5937   -1.3534 H   0  0  0  0  0  0  0  0  0  0  0  0
    4.9665   17.7382   -0.7698 C   0  0  0  0  0  0  0  0  0  0  0  0
    4.0914   16.9042   -1.5825 C   0  0  0  0  0  3  0  0  0  0  0  0
    4.5669   16.4495   -2.4626 H   0  0  0  0  0  0  0  0  0  0  0  0
    2.8680   16.6934   -1.3370 N   0  0  0  0  0  0  0  0  0  0  0  0
    2.0379   16.0120   -2.2959 C   0  0  0  0  0  0  0  0  0  0  0  0
    1.4947   15.2142   -1.7730 H   0  0  0  0  0  0  0  0  0  0  0  0
    2.6266   15.6001   -3.1298 H   0  0  0  0  0  0  0  0  0  0  0  0
    1.0718   17.0784   -2.7756 C   0  0  0  0  0  0  0  0  0  0  0  0
    1.4335   17.9277   -3.8130 C   0  0  0  0  0  0  0  0  0  0  0  0
    2.3754   17.7825   -4.3245 H   0  0  0  0  0  0  0  0  0  0  0  0
    0.5905   18.9542   -4.2027 C   0  0  0  0  0  0  0  0  0  0  0  0
    0.8756   19.6021   -5.0185 H   0  0  0  0  0  0  0  0  0  0  0  0
   -0.6075   19.1547   -3.5400 C   0  0  0  0  0  0  0  0  0  0  0  0
   -1.2612   19.9598   -3.8415 H   0  0  0  0  0  0  0  0  0  0  0  0
   -0.9729   18.3167   -2.4989 C   0  0  0  0  0  0  0  0  0  0  0  0
   -1.9165   18.4632   -1.9938 H   0  0  0  0  0  0  0  0  0  0  0  0
   -0.1402   17.2767   -2.1100 C   0  0  0  0  0  0  0  0  0  0  0  0
   -0.4683   16.5696   -1.3491 H   0  0  0  0  0  0  0  0  0  0  0  0
  1  2  1  1  0  0  0
  1  3  1  0  0  0  0
  3  4  1  0  0  0  0
  3  5  1  0  0  0  0
  6  3  1  0  0  0  0
  7  1  1  0  0  0  0
  7  8  1  0  0  0  0
  8  9  1  0  0  0  0
  9 11  2  0  0  0  0
 10  9  1  0  0  0  0
 11 12  1  0  0  0  0
 13 11  1  0  0  0  0
 13 14  1  0  0  0  0
 15 13  2  0  0  0  0
 16 15  1  0  0  0  0
 17  8  2  0  0  0  0
 17 15  1  0  0  0  0
 18 17  1  0  0  0  0
 19  7  1  0  0  0  0
 20 19  1  0  0  0  0
 20 21  1  0  0  0  0
 22 20  2  0  0  0  0
 23 22  1  0  0  0  0
 24 26  2  0  0  0  0
 24 22  1  0  0  0  0
 25 24  1  0  0  0  0
 26 28  1  0  0  0  0
 27 26  1  0  0  0  0
 28 29  1  0  0  0  0
 28 19  2  0  0  0  0
 30  7  1  0  0  0  0
 30 31  1  0  0  0  0
 31 32  1  0  0  0  0
 33 31  2  0  0  0  0
 33 34  1  0  0  0  0
 35 33  1  0  0  0  0
 36 35  1  0  0  0  0
 37 39  1  0  0  0  0
 37 35  2  0  0  0  0
 38 37  1  0  0  0  0
 39 30  2  0  0  0  0
 40 42  1  0  0  0  0
 40 39  1  0  0  0  0
 41 40  1  0  0  0  0
 42  1  1  0  0  0  0
 43 44  1  0  0  0  0
 43 42  1  0  0  0  0
 45 43  1  0  0  0  0
 46 43  1  0  0  0  0
 46 55  1  0  0  0  0
 47 46  2  0  0  0  0
 48 47  1  0  0  0  0
 49 47  1  0  0  0  0
 49 51  2  0  0  0  0
 50 49  1  0  0  0  0
 51 53  1  0  0  0  0
 52 51  1  0  0  0  0
 53 55  2  0  0  0  0
 53 54  1  0  0  0  0
 55 56  1  0  0  0  0
M  END
$$$$
