CSD_code = YAFYOU | q = 0 | S = 0 | Stoichiometry = C8H8Cl2N4Zn | MND = 4
 OpenBabel04212202123D

 23 24  0  0  0  0  0  0  0  0999 V2000
    1.4352    9.9975    1.7482 Zn  0  0  0  0  0  0  0  0  0  0  0  0
    3.3393   10.9391    2.4059 Cl  0  0  0  0  0  0  0  0  0  0  0  0
    0.6309    8.0308    2.2608 Cl  0  0  0  0  0  0  0  0  0  0  0  0
    2.0905    9.5926   -0.2848 N   0  0  0  0  0  0  0  0  0  0  0  0
    2.3288   10.6328   -1.0353 N   0  0  0  0  0  2  0  0  0  0  0  0
    3.1076   10.5186   -2.0898 C   0  0  0  0  0  0  0  0  0  0  0  0
    3.2576   11.4287   -2.6527 H   0  0  0  0  0  0  0  0  0  0  0  0
    3.7064    9.3152   -2.4641 C   0  0  0  0  0  0  0  0  0  0  0  0
    4.3492    9.2572   -3.3288 H   0  0  0  0  0  0  0  0  0  0  0  0
    3.4332    8.2147   -1.6775 C   0  0  0  0  0  0  0  0  0  0  0  0
    3.8441    7.2405   -1.8917 H   0  0  0  0  0  0  0  0  0  0  0  0
    2.6032    8.4093   -0.5751 C   0  0  0  0  0  0  0  0  0  0  0  0
    2.3343    7.6069    0.0975 H   0  0  0  0  0  0  0  0  0  0  0  0
    0.2866   11.7435    1.2636 N   0  0  0  0  0  0  0  0  0  0  0  0
   -0.9943   11.6793    1.0417 N   0  0  0  0  0  2  0  0  0  0  0  0
   -1.6521   12.7568    0.6717 C   0  0  0  0  0  0  0  0  0  0  0  0
   -2.7112   12.6166    0.5111 H   0  0  0  0  0  0  0  0  0  0  0  0
   -1.0357   13.9970    0.4981 C   0  0  0  0  0  0  0  0  0  0  0  0
   -1.6029   14.8644    0.1975 H   0  0  0  0  0  0  0  0  0  0  0  0
    0.3239   14.0533    0.7303 C   0  0  0  0  0  0  0  0  0  0  0  0
    0.8863   14.9675    0.6217 H   0  0  0  0  0  0  0  0  0  0  0  0
    0.9561   12.8740    1.1187 C   0  0  0  0  0  0  0  0  0  0  0  0
    2.0145   12.8178    1.3295 H   0  0  0  0  0  0  0  0  0  0  0  0
  1  3  1  0  0  0  0
  1  2  1  0  0  0  0
  4  1  1  0  0  0  0
  5  4  1  0  0  0  0
  6  5  1  0  0  0  0
  7  6  1  0  0  0  0
  8  6  2  0  0  0  0
  8 10  1  0  0  0  0
  9  8  1  0  0  0  0
 10 12  2  0  0  0  0
 11 10  1  0  0  0  0
 12  4  1  0  0  0  0
 12 13  1  0  0  0  0
 14  1  1  0  0  0  0
 15 14  1  0  0  0  0
 16 15  1  0  0  0  0
 17 16  1  0  0  0  0
 18 16  2  0  0  0  0
 18 20  1  0  0  0  0
 19 18  1  0  0  0  0
 20 22  2  0  0  0  0
 21 20  1  0  0  0  0
 22 14  1  0  0  0  0
 22 23  1  0  0  0  0
M  END
$$$$
