CSD_code = YAFZIO | q = 0 | S = 0 | Stoichiometry = C16H18Cl4O2W | MND = 6
 OpenBabel04212202123D

 41 42  0  0  0  0  0  0  0  0999 V2000
   -0.0000   -0.0000    0.0000 W   0  0  0  0  0  0  0  0  0  0  0  0
   -1.3470    1.7318    0.9206 Cl  0  0  0  0  0  0  0  0  0  0  0  0
    0.9896   -0.0007    1.4454 O   0  0  0  0  0  0  0  0  0  0  0  0
    1.7510   -0.0001    2.5597 C   0  0  0  0  0  0  0  0  0  0  0  0
    1.1243   -0.0000    3.8138 C   0  0  0  0  0  0  0  0  0  0  0  0
    1.9251    0.0000    4.9445 C   0  0  0  0  0  0  0  0  0  0  0  0
    3.3053    0.0000    4.8352 C   0  0  0  0  0  0  0  0  0  0  0  0
    3.9091    0.0000    3.5893 C   0  0  0  0  0  0  0  0  0  0  0  0
    3.1472   -0.0001    2.4320 C   0  0  0  0  0  0  0  0  0  0  0  0
   -0.3722   -0.0000    3.8746 C   0  0  0  0  0  0  0  0  0  0  0  0
    3.7484   -0.0000    1.0602 C   0  0  0  0  0  0  0  0  0  0  0  0
    1.4591    0.0000    5.9182 H   0  0  0  0  0  0  0  0  0  0  0  0
    3.9140    0.0000    5.7264 H   0  0  0  0  0  0  0  0  0  0  0  0
    4.9857    0.0000    3.5097 H   0  0  0  0  0  0  0  0  0  0  0  0
   -0.7729    0.8834    3.3713 H   0  0  0  0  0  0  0  0  0  0  0  0
   -0.7158   -0.0000    4.9050 H   0  0  0  0  0  0  0  0  0  0  0  0
    3.4254    0.8834    0.5038 H   0  0  0  0  0  0  0  0  0  0  0  0
    4.8333   -0.0000    1.1150 H   0  0  0  0  0  0  0  0  0  0  0  0
    1.3470   -1.7318   -0.9206 Cl  0  0  0  0  0  0  0  0  0  0  0  0
    1.3463    1.7318   -0.9215 Cl  0  0  0  0  0  0  0  0  0  0  0  0
   -1.3463   -1.7318    0.9215 Cl  0  0  0  0  0  0  0  0  0  0  0  0
   -0.9896    0.0007   -1.4454 O   0  0  0  0  0  0  0  0  0  0  0  0
   -0.7729   -0.8835    3.3713 H   0  0  0  0  0  0  0  0  0  0  0  0
    3.4254   -0.8835    0.5038 H   0  0  0  0  0  0  0  0  0  0  0  0
   -1.7510    0.0001   -2.5597 C   0  0  0  0  0  0  0  0  0  0  0  0
   -1.1243    0.0000   -3.8138 C   0  0  0  0  0  0  0  0  0  0  0  0
   -3.1472    0.0001   -2.4320 C   0  0  0  0  0  0  0  0  0  0  0  0
   -1.9251   -0.0000   -4.9445 C   0  0  0  0  0  0  0  0  0  0  0  0
    0.3722    0.0000   -3.8746 C   0  0  0  0  0  0  0  0  0  0  0  0
   -3.9091   -0.0000   -3.5893 C   0  0  0  0  0  0  0  0  0  0  0  0
   -3.7484    0.0000   -1.0602 C   0  0  0  0  0  0  0  0  0  0  0  0
   -3.3053   -0.0000   -4.8352 C   0  0  0  0  0  0  0  0  0  0  0  0
   -1.4591   -0.0000   -5.9182 H   0  0  0  0  0  0  0  0  0  0  0  0
    0.7729   -0.8834   -3.3713 H   0  0  0  0  0  0  0  0  0  0  0  0
    0.7729    0.8835   -3.3713 H   0  0  0  0  0  0  0  0  0  0  0  0
    0.7158    0.0000   -4.9050 H   0  0  0  0  0  0  0  0  0  0  0  0
   -4.9857   -0.0000   -3.5097 H   0  0  0  0  0  0  0  0  0  0  0  0
   -3.4254   -0.8834   -0.5038 H   0  0  0  0  0  0  0  0  0  0  0  0
   -3.4254    0.8835   -0.5038 H   0  0  0  0  0  0  0  0  0  0  0  0
   -4.8333    0.0000   -1.1150 H   0  0  0  0  0  0  0  0  0  0  0  0
   -3.9140   -0.0000   -5.7264 H   0  0  0  0  0  0  0  0  0  0  0  0
  1  2  1  0  0  0  0
  1 21  1  0  0  0  0
  1  3  1  0  0  0  0
  3  4  1  0  0  0  0
  4  5  1  0  0  0  0
  5 10  1  0  0  0  0
  5  6  2  0  0  0  0
  6 12  1  0  0  0  0
  7  6  1  0  0  0  0
  7 13  1  0  0  0  0
  8  7  2  0  0  0  0
  9  4  2  0  0  0  0
  9  8  1  0  0  0  0
 10 16  1  0  0  0  0
 11 18  1  0  0  0  0
 11  9  1  0  0  0  0
 14  8  1  0  0  0  0
 15 10  1  0  0  0  0
 17 11  1  0  0  0  0
 19  1  1  0  0  0  0
 20  1  1  0  0  0  0
 22  1  1  0  0  0  0
 23 10  1  0  0  0  0
 24 11  1  0  0  0  0
 25 27  1  0  0  0  0
 25 22  1  0  0  0  0
 26 25  2  0  0  0  0
 27 31  1  0  0  0  0
 28 32  2  0  0  0  0
 28 26  1  0  0  0  0
 29 26  1  0  0  0  0
 29 35  1  0  0  0  0
 29 34  1  0  0  0  0
 30 37  1  0  0  0  0
 30 27  2  0  0  0  0
 31 38  1  0  0  0  0
 31 39  1  0  0  0  0
 32 30  1  0  0  0  0
 33 28  1  0  0  0  0
 36 29  1  0  0  0  0
 40 31  1  0  0  0  0
 41 32  1  0  0  0  0
M  END
$$$$
