CSD_code = YAFZEK | q = 0 | S = 0 | Stoichiometry = C8H9Cl5OW | MND = 6
 OpenBabel04212202123D

 24 24  0  0  0  0  0  0  0  0999 V2000
   -0.0000    2.3186    2.0695 W   0  0  0  0  0  0  0  0  0  0  0  0
   -0.0000    0.0992    2.0703 Cl  0  0  0  0  0  0  0  0  0  0  0  0
    1.6336    2.2521    0.3882 Cl  0  0  0  0  0  0  0  0  0  0  0  0
    0.0000    4.0709    2.0696 O   0  0  0  0  0  0  0  0  0  0  0  0
    0.0000    5.4061    2.0697 C   0  0  0  0  0  0  0  0  0  0  0  0
   -1.2262    6.0975    2.0697 C   0  0  0  0  0  0  0  0  0  0  0  0
   -1.2001    7.4834    2.0697 C   0  0  0  0  0  0  0  0  0  0  0  0
    0.0000    8.1733    2.0697 C   0  0  0  0  0  0  0  0  0  0  0  0
   -2.5193    5.3434    2.0697 C   0  0  0  0  0  0  0  0  0  0  0  0
   -2.1353    8.0223    2.0697 H   0  0  0  0  0  0  0  0  0  0  0  0
    0.0000    9.2524    2.0697 H   0  0  0  0  0  0  0  0  0  0  0  0
   -2.3505    4.2628    2.0697 H   0  0  0  0  0  0  0  0  0  0  0  0
   -3.1048    5.6040    1.1894 H   0  0  0  0  0  0  0  0  0  0  0  0
   -1.6336    2.2520    0.3882 Cl  0  0  0  0  0  0  0  0  0  0  0  0
   -1.6331    2.2517    3.7511 Cl  0  0  0  0  0  0  0  0  0  0  0  0
    1.6331    2.2517    3.7511 Cl  0  0  0  0  0  0  0  0  0  0  0  0
    1.2262    6.0975    2.0697 C   0  0  0  0  0  0  0  0  0  0  0  0
    1.2001    7.4834    2.0697 C   0  0  0  0  0  0  0  0  0  0  0  0
   -3.1048    5.6040    2.9500 H   0  0  0  0  0  0  0  0  0  0  0  0
    2.5193    5.3434    2.0697 C   0  0  0  0  0  0  0  0  0  0  0  0
    2.1353    8.0223    2.0697 H   0  0  0  0  0  0  0  0  0  0  0  0
    2.3505    4.2628    2.0697 H   0  0  0  0  0  0  0  0  0  0  0  0
    3.1048    5.6040    1.1894 H   0  0  0  0  0  0  0  0  0  0  0  0
    3.1048    5.6040    2.9500 H   0  0  0  0  0  0  0  0  0  0  0  0
  1  4  1  0  0  0  0
  1  2  1  0  0  0  0
  1 16  1  0  0  0  0
  1 15  1  0  0  0  0
  3  1  1  0  0  0  0
  4  5  1  0  0  0  0
  5 17  2  0  0  0  0
  5  6  1  0  0  0  0
  6  9  1  0  0  0  0
  7  6  2  0  0  0  0
  8 18  2  0  0  0  0
  8  7  1  0  0  0  0
  9 19  1  0  0  0  0
 10  7  1  0  0  0  0
 11  8  1  0  0  0  0
 12  9  1  0  0  0  0
 13  9  1  0  0  0  0
 14  1  1  0  0  0  0
 17 20  1  0  0  0  0
 18 17  1  0  0  0  0
 20 24  1  0  0  0  0
 21 18  1  0  0  0  0
 22 20  1  0  0  0  0
 23 20  1  0  0  0  0
M  END
$$$$
