CSD_code = YAGDEQ | q = 0 | S = 0 | Stoichiometry = C6H16Cl2N4S2Zn | MND = 4
 OpenBabel04212202123D

 31 30  0  0  0  0  0  0  0  0999 V2000
    5.6036    5.8613    2.9736 Zn  0  0  0  0  0  0  0  0  0  0  0  0
    4.1340    7.1921    4.1058 Cl  0  0  0  0  0  0  0  0  0  0  0  0
    6.7944    4.4426    4.7088 S   0  0  0  0  0  0  0  0  0  0  0  0
    7.6220    4.9526    7.1438 N   0  0  0  0  0  0  0  0  0  0  0  0
    7.4936    5.3634    8.0558 H   0  0  0  0  0  0  0  0  0  0  0  0
    5.9007    6.2840    6.3927 N   0  0  0  0  0  0  0  0  0  0  0  0
    5.2536    6.5560    5.6355 H   0  0  0  0  0  0  0  0  0  0  0  0
    6.7592    5.2985    6.1770 C   0  0  0  0  0  3  0  0  0  0  0  0
    8.5610    3.8639    7.0492 C   0  0  0  0  0  0  0  0  0  0  0  0
    8.8927    3.7729    6.0169 H   0  0  0  0  0  0  0  0  0  0  0  0
    8.1051    2.9168    7.3479 H   0  0  0  0  0  0  0  0  0  0  0  0
    9.4139    4.0734    7.6916 H   0  0  0  0  0  0  0  0  0  0  0  0
    5.8426    7.0859    7.5910 C   0  0  0  0  0  0  0  0  0  0  0  0
    6.8026    7.5676    7.7960 H   0  0  0  0  0  0  0  0  0  0  0  0
    5.5461    6.4879    8.4580 H   0  0  0  0  0  0  0  0  0  0  0  0
    5.0943    7.8571    7.4321 H   0  0  0  0  0  0  0  0  0  0  0  0
    7.0738    7.1926    1.8421 Cl  0  0  0  0  0  0  0  0  0  0  0  0
    4.4133    4.4429    1.2382 S   0  0  0  0  0  0  0  0  0  0  0  0
    4.4492    5.2987   -0.2301 C   0  0  0  0  0  3  0  0  0  0  0  0
    3.5868    4.9526   -1.1972 N   0  0  0  0  0  0  0  0  0  0  0  0
    3.7156    5.3631   -2.1092 H   0  0  0  0  0  0  0  0  0  0  0  0
    2.6477    3.8639   -1.1027 C   0  0  0  0  0  0  0  0  0  0  0  0
    2.3157    3.7731   -0.0704 H   0  0  0  0  0  0  0  0  0  0  0  0
    3.1037    2.9167   -1.4012 H   0  0  0  0  0  0  0  0  0  0  0  0
    1.7950    4.0734   -1.7453 H   0  0  0  0  0  0  0  0  0  0  0  0
    5.3078    6.2840   -0.4456 N   0  0  0  0  0  0  0  0  0  0  0  0
    5.9546    6.5565    0.3119 H   0  0  0  0  0  0  0  0  0  0  0  0
    5.3664    7.0856   -1.6441 C   0  0  0  0  0  0  0  0  0  0  0  0
    4.4064    7.5672   -1.8496 H   0  0  0  0  0  0  0  0  0  0  0  0
    5.6633    6.4873   -2.5108 H   0  0  0  0  0  0  0  0  0  0  0  0
    6.1145    7.8569   -1.4851 H   0  0  0  0  0  0  0  0  0  0  0  0
  1  2  1  0  0  0  0
  1  3  1  0  0  0  0
  3  8  1  0  0  0  0
  4  5  1  0  0  0  0
  6 13  1  0  0  0  0
  7  6  1  0  0  0  0
  8  6  1  0  0  0  0
  8  4  1  0  0  0  0
  9  4  1  0  0  0  0
  9 11  1  0  0  0  0
  9 12  1  0  0  0  0
 10  9  1  0  0  0  0
 13 14  1  0  0  0  0
 13 15  1  0  0  0  0
 16 13  1  0  0  0  0
 17  1  1  0  0  0  0
 18  1  1  0  0  0  0
 19 18  1  0  0  0  0
 20 22  1  0  0  0  0
 20 19  1  0  0  0  0
 21 20  1  0  0  0  0
 22 23  1  0  0  0  0
 24 22  1  0  0  0  0
 25 22  1  0  0  0  0
 26 19  1  0  0  0  0
 26 27  1  0  0  0  0
 28 31  1  0  0  0  0
 28 26  1  0  0  0  0
 29 28  1  0  0  0  0
 30 28  1  0  0  0  0
M  END
$$$$
