CSD_code = YAHNON | q = 0 | S = 0 | Stoichiometry = C29H24Cl2N6P2Pd | MND = 4
 OpenBabel04212202123D

 64 70  0  0  1  0  0  0  0  0999 V2000
   -1.5894   14.9735   11.3544 Pd  0  0  0  0  0  0  0  0  0  0  0  0
   -2.7523   15.1570   13.3205 Cl  0  0  0  0  0  0  0  0  0  0  0  0
   -3.3196   14.0335   10.2307 Cl  0  0  0  0  0  0  0  0  0  0  0  0
   -0.1056   15.9643   12.7207 P   0  0  0  0  0  4  0  0  0  0  0  0
   -0.5461   15.3355    9.4262 P   0  0  0  0  0  4  0  0  0  0  0  0
   -0.6451   18.1909   14.3299 N   0  0  0  0  0  0  0  0  0  0  0  0
   -1.9484   19.4052   12.9950 N   0  0  0  0  0  2  0  0  0  0  0  0
   -1.5975   18.2809   12.3682 N   0  0  2  0  0  0  0  0  0  0  0  0
   -0.9167   18.0789   10.0929 N   0  0  0  0  0  0  0  0  0  0  0  0
   -0.4010   19.2729    9.7825 N   0  0  0  0  0  0  0  0  0  0  0  0
    0.6959   17.6954    8.6722 N   0  0  0  0  0  0  0  0  0  0  0  0
    0.2196   14.9939   14.2051 C   0  0  0  0  0  0  0  0  0  0  0  0
   -0.0092   13.6230   14.1083 C   0  0  0  0  0  0  0  0  0  0  0  0
   -0.4349   13.2124   13.1860 H   0  0  0  0  0  0  0  0  0  0  0  0
    0.2607   12.8073   15.1902 C   0  0  0  0  0  0  0  0  0  0  0  0
    0.0777   11.7448   15.1277 H   0  0  0  0  0  0  0  0  0  0  0  0
    0.7537   13.3611   16.3623 C   0  0  0  0  0  0  0  0  0  0  0  0
    0.9541   12.7248   17.2118 H   0  0  0  0  0  0  0  0  0  0  0  0
    0.9783   14.7255   16.4545 C   0  0  0  0  0  0  0  0  0  0  0  0
    1.3521   15.1490   17.3748 H   0  0  0  0  0  0  0  0  0  0  0  0
    0.7219   15.5513   15.3738 C   0  0  0  0  0  0  0  0  0  0  0  0
    0.8752   16.6186   15.4319 H   0  0  0  0  0  0  0  0  0  0  0  0
    1.5780   16.4616   12.2142 C   0  0  0  0  0  0  0  0  0  0  0  0
    2.5432   15.4598   12.1426 C   0  0  0  0  0  0  0  0  0  0  0  0
    2.2890   14.4579   12.4635 H   0  0  0  0  0  0  0  0  0  0  0  0
    3.8109   15.7447   11.6760 C   0  0  0  0  0  0  0  0  0  0  0  0
    4.5543   14.9631   11.6278 H   0  0  0  0  0  0  0  0  0  0  0  0
    4.1250   17.0315   11.2682 C   0  0  0  0  0  0  0  0  0  0  0  0
    5.1129   17.2540   10.8942 H   0  0  0  0  0  0  0  0  0  0  0  0
    3.1753   18.0350   11.3512 C   0  0  0  0  0  0  0  0  0  0  0  0
    3.4207   19.0420   11.0483 H   0  0  0  0  0  0  0  0  0  0  0  0
    1.9055   17.7552   11.8236 C   0  0  0  0  0  0  0  0  0  0  0  0
    1.1807   18.5541   11.9015 H   0  0  0  0  0  0  0  0  0  0  0  0
   -0.8067   17.5458   13.1948 C   0  0  1  0  0  3  0  0  0  0  0  0
   -1.3694   19.3133   14.1654 C   0  0  0  0  0  0  0  0  0  0  0  0
   -1.4612   20.0649   14.9217 H   0  0  0  0  0  0  0  0  0  0  0  0
   -2.0260   18.0276   11.0192 C   0  0  0  0  0  0  0  0  0  0  0  0
   -2.7157   18.8426   10.7693 H   0  0  0  0  0  0  0  0  0  0  0  0
   -2.5457   17.0395   10.9485 H   0  0  0  0  0  0  0  0  0  0  0  0
    0.5604   19.0061    8.9371 C   0  0  0  0  0  0  0  0  0  0  0  0
    1.1760   19.7620    8.4955 H   0  0  0  0  0  0  0  0  0  0  0  0
   -0.2308   17.1188    9.4095 C   0  0  0  0  0  0  0  0  0  0  0  0
   -1.2856   15.1369    7.7846 C   0  0  0  0  0  0  0  0  0  0  0  0
   -2.4608   15.8376    7.5224 C   0  0  0  0  0  0  0  0  0  0  0  0
   -2.8875   16.4766    8.2866 H   0  0  0  0  0  0  0  0  0  0  0  0
   -3.0886   15.6915    6.3014 C   0  0  0  0  0  0  0  0  0  0  0  0
   -4.0014   16.2305    6.0968 H   0  0  0  0  0  0  0  0  0  0  0  0
   -2.5522   14.8430    5.3447 C   0  0  0  0  0  0  0  0  0  0  0  0
   -3.0473   14.7253    4.3924 H   0  0  0  0  0  0  0  0  0  0  0  0
   -1.3909   14.1375    5.6110 C   0  0  0  0  0  0  0  0  0  0  0  0
   -0.9809   13.4698    4.8678 H   0  0  0  0  0  0  0  0  0  0  0  0
   -0.7543   14.2770    6.8320 C   0  0  0  0  0  0  0  0  0  0  0  0
    0.1468   13.7202    7.0476 H   0  0  0  0  0  0  0  0  0  0  0  0
    1.0723   14.5359    9.3547 C   0  0  0  0  0  0  0  0  0  0  0  0
    1.1635   13.3530   10.0875 C   0  0  0  0  0  0  0  0  0  0  0  0
    0.2908   13.0120   10.6543 H   0  0  0  0  0  0  0  0  0  0  0  0
    2.3412   12.6292   10.0841 C   0  0  0  0  0  0  0  0  0  0  0  0
    2.4159   11.7091   10.6448 H   0  0  0  0  0  0  0  0  0  0  0  0
    3.4285   13.0944    9.3607 C   0  0  0  0  0  0  0  0  0  0  0  0
    4.3514   12.5332    9.3599 H   0  0  0  0  0  0  0  0  0  0  0  0
    3.3384   14.2749    8.6394 C   0  0  0  0  0  0  0  0  0  0  0  0
    4.1915   14.6311    8.0813 H   0  0  0  0  0  0  0  0  0  0  0  0
    2.1595   14.9991    8.6237 C   0  0  0  0  0  0  0  0  0  0  0  0
    2.0734   15.9219    8.0707 H   0  0  0  0  0  0  0  0  0  0  0  0
  1  4  1  0  0  0  0
  1  2  1  0  0  0  0
  3  1  1  0  0  0  0
  4 34  1  0  0  0  0
  4 12  1  0  0  0  0
  5  1  1  0  0  0  0
  7 35  1  0  0  0  0
  8  7  1  6  0  0  0
  8 34  1  0  0  0  0
  9 37  1  0  0  0  0
 10  9  1  0  0  0  0
 11 40  1  0  0  0  0
 11 42  2  0  0  0  0
 12 21  1  0  0  0  0
 13 12  2  0  0  0  0
 13 15  1  0  0  0  0
 14 13  1  0  0  0  0
 15 17  2  0  0  0  0
 16 15  1  0  0  0  0
 17 19  1  0  0  0  0
 17 18  1  0  0  0  0
 19 20  1  0  0  0  0
 21 22  1  0  0  0  0
 21 19  2  0  0  0  0
 23  4  1  0  0  0  0
 24 23  1  0  0  0  0
 24 25  1  0  0  0  0
 26 24  2  0  0  0  0
 27 26  1  0  0  0  0
 28 30  2  0  0  0  0
 28 26  1  0  0  0  0
 29 28  1  0  0  0  0
 30 32  1  0  0  0  0
 31 30  1  0  0  0  0
 32 33  1  0  0  0  0
 32 23  2  0  0  0  0
 34  6  1  6  0  0  0
 35  6  2  0  0  0  0
 35 36  1  0  0  0  0
 37  8  1  0  0  0  0
 38 37  1  0  0  0  0
 39 37  1  0  0  0  0
 40 10  2  0  0  0  0
 41 40  1  0  0  0  0
 42  5  1  0  0  0  0
 42  9  1  0  0  0  0
 43  5  1  0  0  0  0
 44 43  1  0  0  0  0
 44 45  1  0  0  0  0
 46 44  2  0  0  0  0
 47 46  1  0  0  0  0
 48 50  2  0  0  0  0
 48 46  1  0  0  0  0
 49 48  1  0  0  0  0
 50 52  1  0  0  0  0
 51 50  1  0  0  0  0
 52 53  1  0  0  0  0
 52 43  2  0  0  0  0
 54  5  1  0  0  0  0
 54 55  1  0  0  0  0
 55 56  1  0  0  0  0
 57 55  2  0  0  0  0
 57 58  1  0  0  0  0
 59 57  1  0  0  0  0
 60 59  1  0  0  0  0
 61 59  2  0  0  0  0
 62 61  1  0  0  0  0
 63 61  1  0  0  0  0
 63 54  2  0  0  0  0
 64 63  1  0  0  0  0
M  END
$$$$
