CSD_code = YAHTOT | q = 0 | S = 0 | Stoichiometry = C31H26Cl2N4P2Pt | MND = 4
 OpenBabel04212202123D

 66 72  0  0  0  0  0  0  0  0999 V2000
    2.9622    8.3526   11.4339 Pt  0  0  0  0  0  0  0  0  0  0  0  0
    2.4609    8.0138   13.6564 Cl  0  0  0  0  0  0  0  0  0  0  0  0
    4.2363    6.4165   11.2480 Cl  0  0  0  0  0  0  0  0  0  0  0  0
    2.1579   10.4595   11.6147 P   0  0  0  0  0  4  0  0  0  0  0  0
    3.6958    8.4847    9.2758 P   0  0  0  0  0  4  0  0  0  0  0  0
    3.3009   12.8541   10.9245 N   0  0  0  0  0  0  0  0  0  0  0  0
    4.8532   11.3118   11.2250 N   0  0  0  0  0  0  0  0  0  0  0  0
    6.1066    9.5079   10.2980 N   0  0  0  0  0  0  0  0  0  0  0  0
    6.2879    8.5305    8.3243 N   0  0  0  0  0  0  0  0  0  0  0  0
    0.8168   10.8499   10.4635 C   0  0  0  0  0  0  0  0  0  0  0  0
    0.0094    9.7736   10.1040 C   0  0  0  0  0  0  0  0  0  0  0  0
    0.2536    8.7855   10.4863 H   0  0  0  0  0  0  0  0  0  0  0  0
   -1.0824    9.9712    9.2801 C   0  0  0  0  0  0  0  0  0  0  0  0
   -1.7132    9.1386    9.0059 H   0  0  0  0  0  0  0  0  0  0  0  0
   -1.3608   11.2428    8.8047 C   0  0  0  0  0  0  0  0  0  0  0  0
   -2.2115   11.4008    8.1580 H   0  0  0  0  0  0  0  0  0  0  0  0
   -0.5524   12.3121    9.1566 C   0  0  0  0  0  0  0  0  0  0  0  0
   -0.7744   13.3003    8.7818 H   0  0  0  0  0  0  0  0  0  0  0  0
    0.5335   12.1258    9.9936 C   0  0  0  0  0  0  0  0  0  0  0  0
    1.1724   12.9476   10.2782 H   0  0  0  0  0  0  0  0  0  0  0  0
    1.5949   11.1311   13.2007 C   0  0  0  0  0  0  0  0  0  0  0  0
    0.2394   11.2551   13.4809 C   0  0  0  0  0  0  0  0  0  0  0  0
   -0.4919   10.9971   12.7277 H   0  0  0  0  0  0  0  0  0  0  0  0
   -0.1654   11.7045   14.7249 C   0  0  0  0  0  0  0  0  0  0  0  0
   -1.2187   11.8013   14.9429 H   0  0  0  0  0  0  0  0  0  0  0  0
    0.7747   12.0209   15.6911 C   0  0  0  0  0  0  0  0  0  0  0  0
    0.4546   12.3657   16.6630 H   0  0  0  0  0  0  0  0  0  0  0  0
    2.1264   11.8861   15.4164 C   0  0  0  0  0  0  0  0  0  0  0  0
    2.8586   12.1225   16.1743 H   0  0  0  0  0  0  0  0  0  0  0  0
    2.5383   11.4388   14.1765 C   0  0  0  0  0  0  0  0  0  0  0  0
    3.5918   11.3161   13.9632 H   0  0  0  0  0  0  0  0  0  0  0  0
    3.5117   11.5939   11.2192 C   0  0  0  0  0  0  0  0  0  0  0  0
    4.5135   13.4125   10.7109 C   0  0  0  0  0  0  0  0  0  0  0  0
    4.6075   14.4464   10.4464 H   0  0  0  0  0  0  0  0  0  0  0  0
    5.4887   12.4763   10.8927 C   0  0  0  0  0  0  0  0  0  0  0  0
    6.5555   12.5380   10.8206 H   0  0  0  0  0  0  0  0  0  0  0  0
    5.5464   10.0733   11.4958 C   0  0  0  0  0  0  0  0  0  0  0  0
    4.8380    9.3512   11.9577 H   0  0  0  0  0  0  0  0  0  0  0  0
    6.3672   10.2691   12.1957 H   0  0  0  0  0  0  0  0  0  0  0  0
    7.4146    9.6010    9.9143 C   0  0  0  0  0  0  0  0  0  0  0  0
    8.1550   10.0709   10.5292 H   0  0  0  0  0  0  0  0  0  0  0  0
    7.5046    8.9875    8.6990 C   0  0  0  0  0  0  0  0  0  0  0  0
    8.3626    8.8468    8.0732 H   0  0  0  0  0  0  0  0  0  0  0  0
    5.4605    8.8388    9.2926 C   0  0  0  0  0  0  0  0  0  0  0  0
    3.4226    7.0185    8.2572 C   0  0  0  0  0  0  0  0  0  0  0  0
    4.1753    6.7425    7.1226 C   0  0  0  0  0  0  0  0  0  0  0  0
    5.0034    7.3849    6.8655 H   0  0  0  0  0  0  0  0  0  0  0  0
    3.8705    5.6244    6.3659 C   0  0  0  0  0  0  0  0  0  0  0  0
    4.4615    5.3939    5.4917 H   0  0  0  0  0  0  0  0  0  0  0  0
    2.8163    4.7998    6.7242 C   0  0  0  0  0  0  0  0  0  0  0  0
    2.5880    3.9273    6.1297 H   0  0  0  0  0  0  0  0  0  0  0  0
    2.0578    5.0859    7.8486 C   0  0  0  0  0  0  0  0  0  0  0  0
    1.2400    4.4393    8.1307 H   0  0  0  0  0  0  0  0  0  0  0  0
    2.3591    6.1949    8.6156 C   0  0  0  0  0  0  0  0  0  0  0  0
    1.7944    6.4180    9.5161 H   0  0  0  0  0  0  0  0  0  0  0  0
    3.0746    9.8124    8.1852 C   0  0  0  0  0  0  0  0  0  0  0  0
    3.7275   11.0311    8.0431 C   0  0  0  0  0  0  0  0  0  0  0  0
    4.6940   11.1892    8.5001 H   0  0  0  0  0  0  0  0  0  0  0  0
    3.1580   12.0424    7.2913 C   0  0  0  0  0  0  0  0  0  0  0  0
    3.6710   12.9873    7.1914 H   0  0  0  0  0  0  0  0  0  0  0  0
    1.9377   11.8437    6.6694 C   0  0  0  0  0  0  0  0  0  0  0  0
    1.4946   12.6353    6.0844 H   0  0  0  0  0  0  0  0  0  0  0  0
    1.2907   10.6245    6.7901 C   0  0  0  0  0  0  0  0  0  0  0  0
    0.3456   10.4617    6.2942 H   0  0  0  0  0  0  0  0  0  0  0  0
    1.8512    9.6168    7.5500 C   0  0  0  0  0  0  0  0  0  0  0  0
    1.3487    8.6646    7.6511 H   0  0  0  0  0  0  0  0  0  0  0  0
  1  4  1  0  0  0  0
  1  2  1  0  0  0  0
  3  1  1  0  0  0  0
  4 21  1  0  0  0  0
  5 44  1  0  0  0  0
  5  1  1  0  0  0  0
  6 32  2  0  0  0  0
  7 37  1  0  0  0  0
  8 37  1  0  0  0  0
  9 42  1  0  0  0  0
  9 44  2  0  0  0  0
 10  4  1  0  0  0  0
 11 10  1  0  0  0  0
 11 12  1  0  0  0  0
 13 11  2  0  0  0  0
 14 13  1  0  0  0  0
 15 17  2  0  0  0  0
 15 13  1  0  0  0  0
 16 15  1  0  0  0  0
 17 19  1  0  0  0  0
 18 17  1  0  0  0  0
 19 20  1  0  0  0  0
 19 10  2  0  0  0  0
 21 22  2  0  0  0  0
 21 30  1  0  0  0  0
 22 24  1  0  0  0  0
 23 22  1  0  0  0  0
 24 25  1  0  0  0  0
 24 26  2  0  0  0  0
 26 27  1  0  0  0  0
 28 26  1  0  0  0  0
 28 29  1  0  0  0  0
 30 28  2  0  0  0  0
 31 30  1  0  0  0  0
 32  7  1  0  0  0  0
 32  4  1  0  0  0  0
 33 35  2  0  0  0  0
 33  6  1  0  0  0  0
 34 33  1  0  0  0  0
 35  7  1  0  0  0  0
 36 35  1  0  0  0  0
 37 38  1  0  0  0  0
 37 39  1  0  0  0  0
 40  8  1  0  0  0  0
 40 41  1  0  0  0  0
 42 40  2  0  0  0  0
 43 42  1  0  0  0  0
 44  8  1  0  0  0  0
 45 54  1  0  0  0  0
 45  5  1  0  0  0  0
 46 45  2  0  0  0  0
 47 46  1  0  0  0  0
 48 50  2  0  0  0  0
 48 46  1  0  0  0  0
 49 48  1  0  0  0  0
 50 52  1  0  0  0  0
 51 50  1  0  0  0  0
 52 53  1  0  0  0  0
 52 54  2  0  0  0  0
 54 55  1  0  0  0  0
 56  5  1  0  0  0  0
 57 56  1  0  0  0  0
 57 58  1  0  0  0  0
 59 57  2  0  0  0  0
 60 59  1  0  0  0  0
 61 63  2  0  0  0  0
 61 59  1  0  0  0  0
 62 61  1  0  0  0  0
 63 65  1  0  0  0  0
 64 63  1  0  0  0  0
 65 66  1  0  0  0  0
 65 56  2  0  0  0  0
M  END
$$$$
