CSD_code = YAJCOC | q = 0 | S = 0 | Stoichiometry = C12H15Cl2N2O5Re | MND = 6
 OpenBabel04212202123D

 37 39  0  0  1  0  0  0  0  0999 V2000
    2.9231    5.5172    9.4482 Re  0  0  0  0  0  0  0  0  0  0  0  0
    4.6437    5.3897    7.9923 Cl  0  0  0  0  0  0  0  0  0  0  0  0
    3.8220    7.4106   10.3175 Cl  0  0  0  0  0  0  0  0  0  0  0  0
    1.6890    6.1904    8.5767 O   0  0  0  0  0  1  0  0  0  0  0  0
    3.7766    4.4583   10.8049 O   0  0  0  0  0  0  0  0  0  0  0  0
    3.6306    2.7493   12.2307 O   0  0  0  0  0  0  0  0  0  0  0  0
   -0.0559    8.2190   13.7693 O   0  0  0  0  0  0  0  0  0  0  0  0
   -2.1285    7.9536   12.9559 O   0  0  0  0  0  0  0  0  0  0  0  0
    1.2562    5.1227   11.1915 N   0  0  1  0  0  4  0  0  0  0  0  0
    2.1483    3.4569    9.0295 N   0  0  0  0  0  0  0  0  0  0  0  0
    0.3615    4.1841   10.5025 C   0  0  0  0  0  0  0  0  0  0  0  0
   -0.1782    4.7540    9.7380 H   0  0  0  0  0  0  0  0  0  0  0  0
   -0.3606    3.7416   11.2006 H   0  0  0  0  0  0  0  0  0  0  0  0
    1.1224    3.0883    9.8008 C   0  0  1  0  0  3  0  0  0  0  0  0
    0.7744    1.7515    9.9283 C   0  0  0  0  0  0  0  0  0  0  0  0
   -0.0530    1.4667   10.5592 H   0  0  0  0  0  0  0  0  0  0  0  0
    1.5087    0.7915    9.2489 C   0  0  0  0  0  0  0  0  0  0  0  0
    1.2621   -0.2540    9.3513 H   0  0  0  0  0  0  0  0  0  0  0  0
    2.5654    1.1965    8.4502 C   0  0  0  0  0  0  0  0  0  0  0  0
    3.1651    0.4847    7.9075 H   0  0  0  0  0  0  0  0  0  0  0  0
    2.8533    2.5486    8.3737 C   0  0  0  0  0  0  0  0  0  0  0  0
    3.6702    2.9335    7.7770 H   0  0  0  0  0  0  0  0  0  0  0  0
    3.2481    3.7918   11.7615 C   0  0  0  0  0  0  0  0  0  0  0  0
    1.9538    4.4883   12.2951 C   0  0  0  0  0  0  0  0  0  0  0  0
    1.3553    3.7321   12.8138 H   0  0  0  0  0  0  0  0  0  0  0  0
    2.2867    5.2443   13.0103 H   0  0  0  0  0  0  0  0  0  0  0  0
    0.6024    6.3810   11.5425 C   0  0  0  0  0  0  0  0  0  0  0  0
    0.2776    6.8569   10.6134 H   0  0  0  0  0  0  0  0  0  0  0  0
    1.3558    7.0294   11.9981 H   0  0  0  0  0  0  0  0  0  0  0  0
   -0.5833    6.2362   12.5086 C   0  0  0  0  0  0  0  0  0  0  0  0
   -1.4846    5.8905   12.0044 H   0  0  0  0  0  0  0  0  0  0  0  0
   -0.3236    5.5444   13.3126 H   0  0  0  0  0  0  0  0  0  0  0  0
   -0.8652    7.5806   13.1553 C   0  0  0  0  0  0  0  0  0  0  0  0
   -2.5129    9.2106   13.5041 C   0  0  0  0  0  0  0  0  0  0  0  0
   -2.1602    9.2975   14.5333 H   0  0  0  0  0  0  0  0  0  0  0  0
   -3.5982    9.2427   13.4620 H   0  0  0  0  0  0  0  0  0  0  0  0
   -2.0835   10.0218   12.9136 H   0  0  0  0  0  0  0  0  0  0  0  0
  1  3  1  0  0  0  0
  1  5  1  0  0  0  0
  1  9  1  0  0  0  0
  2  1  1  0  0  0  0
  4  1  1  0  0  0  0
  5 23  1  0  0  0  0
  8 33  1  0  0  0  0
  8 34  1  0  0  0  0
  9 27  1  1  0  0  0
  9 24  1  0  0  0  0
 10  1  1  0  0  0  0
 10 14  1  0  0  0  0
 11  9  1  0  0  0  0
 11 13  1  0  0  0  0
 12 11  1  0  0  0  0
 14 15  1  6  0  0  0
 14 11  1  0  0  0  0
 15 16  1  0  0  0  0
 17 18  1  0  0  0  0
 17 15  2  0  0  0  0
 19 17  1  0  0  0  0
 20 19  1  0  0  0  0
 21 19  2  0  0  0  0
 21 10  1  0  0  0  0
 22 21  1  0  0  0  0
 23  6  2  0  0  0  0
 23 24  1  0  0  0  0
 24 25  1  0  0  0  0
 24 26  1  0  0  0  0
 27 29  1  0  0  0  0
 27 30  1  0  0  0  0
 28 27  1  0  0  0  0
 30 33  1  0  0  0  0
 30 32  1  0  0  0  0
 31 30  1  0  0  0  0
 33  7  2  0  0  0  0
 34 35  1  0  0  0  0
 36 34  1  0  0  0  0
 37 34  1  0  0  0  0
M  END
$$$$
