CSD_code = YAJRIK | q = 0 | S = 0 | Stoichiometry = C26H24Cl2Zr | MND = 12
 OpenBabel04212202123D

 53 57  0  0  1  0  0  0  0  0999 V2000
   -0.9873    4.2599   12.5070 Zr  0  0  0  0  0  0  0  0  0  0  0  0
   -3.3250    4.3084   12.6465 Cl  0  0  0  0  0  0  0  0  0  0  0  0
   -0.8136    4.2353   14.8428 Cl  0  0  0  0  0  0  0  0  0  0  0  0
   -0.2061    2.7607   10.7176 C   0  0  1  0  0  3  0  0  0  0  0  0
   -1.4571    2.2789   11.2167 C   0  0  1  0  0  0  0  0  0  0  0  0
   -1.2702    1.8229   12.5439 C   0  0  2  0  0  3  0  0  0  0  0  0
    0.1004    2.0071   12.8791 C   0  0  0  0  0  0  0  0  0  0  0  0
    0.7437    2.6007   11.7731 C   0  0  0  0  0  0  0  0  0  0  0  0
   -2.3156    1.2287   13.4429 C   0  0  0  0  0  0  0  0  0  0  0  0
    0.7784    1.5100   14.1216 C   0  0  0  0  0  0  0  0  0  0  0  0
    0.0381    3.2193    9.3505 C   0  0  0  0  0  0  0  0  0  0  0  0
   -0.8609    2.8499    8.3431 C   0  0  0  0  0  0  0  0  0  0  0  0
   -0.6980    3.2562    7.0343 C   0  0  0  0  0  0  0  0  0  0  0  0
    0.3855    4.0455    6.6879 C   0  0  0  0  0  0  0  0  0  0  0  0
    1.2968    4.4056    7.6623 C   0  0  0  0  0  0  0  0  0  0  0  0
    1.1434    4.0149    8.9900 C   0  0  0  0  0  0  0  0  0  0  0  0
    2.2129    4.4464    9.9196 C   0  0  0  0  0  0  0  0  0  0  0  0
    3.5039    4.0393    9.5932 C   0  0  0  0  0  0  0  0  0  0  0  0
    4.5957    4.3976   10.3606 C   0  0  0  0  0  0  0  0  0  0  0  0
    4.4063    5.2017   11.4718 C   0  0  0  0  0  0  0  0  0  0  0  0
    3.1355    5.6239   11.8050 C   0  0  0  0  0  0  0  0  0  0  0  0
    2.0124    5.2566   11.0544 C   0  0  0  0  0  0  0  0  0  0  0  0
    0.6953    5.7321   11.4762 C   0  0  2  0  0  3  0  0  0  0  0  0
   -0.4774    5.8954   10.6763 C   0  0  0  0  0  0  0  0  0  0  0  0
   -1.4802    6.5073   11.4573 C   0  0  0  0  0  0  0  0  0  0  0  0
   -0.9608    6.6996   12.7680 C   0  0  1  0  0  3  0  0  0  0  0  0
    0.3747    6.2300   12.7785 C   0  0  1  0  0  0  0  0  0  0  0  0
   -2.7979    7.0126   10.9486 C   0  0  0  0  0  0  0  0  0  0  0  0
   -1.7042    7.3129   13.9192 C   0  0  0  0  0  0  0  0  0  0  0  0
   -2.3878    2.1974   10.6650 H   0  0  0  0  0  0  0  0  0  0  0  0
    1.8163    2.7098   11.6843 H   0  0  0  0  0  0  0  0  0  0  0  0
   -2.0738    0.1909   13.6794 H   0  0  0  0  0  0  0  0  0  0  0  0
   -2.3716    1.7857   14.3837 H   0  0  0  0  0  0  0  0  0  0  0  0
   -3.2938    1.2590   12.9641 H   0  0  0  0  0  0  0  0  0  0  0  0
    0.8893    0.4244   14.0753 H   0  0  0  0  0  0  0  0  0  0  0  0
    1.7690    1.9528   14.2181 H   0  0  0  0  0  0  0  0  0  0  0  0
    0.1996    1.7513   15.0129 H   0  0  0  0  0  0  0  0  0  0  0  0
   -1.6964    2.2138    8.5915 H   0  0  0  0  0  0  0  0  0  0  0  0
   -1.4131    2.9526    6.2844 H   0  0  0  0  0  0  0  0  0  0  0  0
    0.5238    4.3717    5.6684 H   0  0  0  0  0  0  0  0  0  0  0  0
    2.1445    5.0232    7.4015 H   0  0  0  0  0  0  0  0  0  0  0  0
    3.6419    3.4104    8.7252 H   0  0  0  0  0  0  0  0  0  0  0  0
    5.5841    4.0587   10.0899 H   0  0  0  0  0  0  0  0  0  0  0  0
    5.2488    5.5042   12.0757 H   0  0  0  0  0  0  0  0  0  0  0  0
    3.0082    6.2711   12.6591 H   0  0  0  0  0  0  0  0  0  0  0  0
   -0.5357    5.7756    9.6027 H   0  0  0  0  0  0  0  0  0  0  0  0
    1.0481    6.3132   13.6252 H   0  0  0  0  0  0  0  0  0  0  0  0
   -2.7529    8.0954   10.8125 H   0  0  0  0  0  0  0  0  0  0  0  0
   -3.0369    6.5554    9.9892 H   0  0  0  0  0  0  0  0  0  0  0  0
   -3.6034    6.7948   11.6497 H   0  0  0  0  0  0  0  0  0  0  0  0
   -1.9611    8.3511   13.7010 H   0  0  0  0  0  0  0  0  0  0  0  0
   -2.6341    6.7669   14.1076 H   0  0  0  0  0  0  0  0  0  0  0  0
   -1.0978    7.2859   14.8240 H   0  0  0  0  0  0  0  0  0  0  0  0
  1  2  1  0  0  0  0
  1 27  1  0  0  0  0
  1  3  1  0  0  0  0
  4 11  1  6  0  0  0
  4  5  1  0  0  0  0
  4  8  1  0  0  0  0
  5 30  1  6  0  0  0
  5  1  1  0  0  0  0
  5  6  1  0  0  0  0
  6  7  1  0  0  0  0
  6  9  1  6  0  0  0
  7 10  1  0  0  0  0
  8  7  2  0  0  0  0
  9 32  1  0  0  0  0
  9 33  1  0  0  0  0
 10 36  1  0  0  0  0
 10 37  1  0  0  0  0
 12 38  1  0  0  0  0
 12 11  2  0  0  0  0
 13 12  1  0  0  0  0
 14 13  2  0  0  0  0
 14 15  1  0  0  0  0
 15 16  2  0  0  0  0
 16 11  1  0  0  0  0
 16 17  1  0  0  0  0
 17 22  1  0  0  0  0
 18 17  2  0  0  0  0
 18 19  1  0  0  0  0
 19 20  2  0  0  0  0
 20 21  1  0  0  0  0
 20 44  1  0  0  0  0
 21 45  1  0  0  0  0
 22 23  1  0  0  0  0
 22 21  2  0  0  0  0
 23 24  1  6  0  0  0
 23 27  1  0  0  0  0
 24 25  2  0  0  0  0
 25 26  1  0  0  0  0
 26 27  1  0  0  0  0
 26 29  1  6  0  0  0
 27 47  1  1  0  0  0
 28 25  1  0  0  0  0
 28 50  1  0  0  0  0
 29 52  1  0  0  0  0
 29 53  1  0  0  0  0
 31  8  1  0  0  0  0
 34  9  1  0  0  0  0
 35 10  1  0  0  0  0
 39 13  1  0  0  0  0
 40 14  1  0  0  0  0
 41 15  1  0  0  0  0
 42 18  1  0  0  0  0
 43 19  1  0  0  0  0
 46 24  1  0  0  0  0
 48 28  1  0  0  0  0
 49 28  1  0  0  0  0
 51 29  1  0  0  0  0
M  END
$$$$
