CSD_code = YAJTOS | q = 1 | S = 0 | Stoichiometry = C21H21ClN3Pt(1+) | MND = 6
 OpenBabel04212202123D

 47 48  0  0  0  0  0  0  0  0999 V2000
    1.0203   14.6067   17.8955 Pt  0  0  0  0  0  0  0  0  0  0  0  0
   -1.0484   15.0710   18.7335 Cl  0  0  0  0  0 15  0  0  0  0  0  0
    1.8985   15.9995   19.5220 N   0  0  0  0  0  0  0  0  0  0  0  0
    1.4049   13.3369   19.7905 N   0  0  0  0  0  0  0  0  0  0  0  0
    2.0142   17.3095   19.4150 C   0  0  0  0  0  0  0  0  0  0  0  0
    2.6324   18.0746   20.4219 C   0  0  0  0  0  0  0  0  0  0  0  0
    3.1094   17.4611   21.5480 C   0  0  0  0  0  0  0  0  0  0  0  0
    2.9423   16.0716   21.6978 C   0  0  0  0  0  0  0  0  0  0  0  0
    3.3521   15.3692   22.8637 C   0  0  0  0  0  0  0  0  0  0  0  0
    3.1029   14.0438   22.9990 C   0  0  0  0  0  0  0  0  0  0  0  0
    2.4267   13.3222   21.9779 C   0  0  0  0  0  0  0  0  0  0  0  0
    2.0787   11.9647   22.1078 C   0  0  0  0  0  0  0  0  0  0  0  0
    1.3761   11.3552   21.1044 C   0  0  0  0  0  0  0  0  0  0  0  0
    1.0410   12.0779   19.9439 C   0  0  0  0  0  0  0  0  0  0  0  0
    2.0529   13.9744   20.7837 C   0  0  0  0  0  0  0  0  0  0  0  0
    2.3147   15.3779   20.6414 C   0  0  0  0  0  0  0  0  0  0  0  0
    0.2445   11.4247   18.8692 C   0  0  0  0  0  0  0  0  0  0  0  0
    1.4595   17.9827   18.2085 C   0  0  0  0  0  0  0  0  0  0  0  0
    0.4125   15.2467   15.9680 C   0  0  0  0  0  0  0  0  0  0  0  0
    0.1598   13.8679   16.1043 C   0  0  0  0  0  3  0  0  0  0  0  0
    2.9466   14.1884   17.2622 N   0  0  0  0  0  0  0  0  0  0  0  0
    3.3869   12.9313   17.2191 C   0  0  0  0  0  3  0  0  0  0  0  0
    4.6983   12.6141   16.9137 C   0  0  0  0  0  0  0  0  0  0  0  0
    5.5911   13.6392   16.6389 C   0  0  0  0  0  0  0  0  0  0  0  0
    5.1271   14.9455   16.6783 C   0  0  0  0  0  0  0  0  0  0  0  0
    3.7997   15.1761   16.9925 C   0  0  0  0  0  0  0  0  0  0  0  0
    2.7151   19.1419   20.2909 H   0  0  0  0  0  0  0  0  0  0  0  0
    3.5901   18.0266   22.3319 H   0  0  0  0  0  0  0  0  0  0  0  0
    3.8477   15.9237   23.6457 H   0  0  0  0  0  0  0  0  0  0  0  0
    3.3939   13.5124   23.8920 H   0  0  0  0  0  0  0  0  0  0  0  0
    2.3505   11.4293   23.0050 H   0  0  0  0  0  0  0  0  0  0  0  0
    1.0660   10.3256   21.1867 H   0  0  0  0  0  0  0  0  0  0  0  0
   -0.7029   11.0803   19.2809 H   0  0  0  0  0  0  0  0  0  0  0  0
    0.7637   10.5537   18.4717 H   0  0  0  0  0  0  0  0  0  0  0  0
    0.0354   12.1364   18.0708 H   0  0  0  0  0  0  0  0  0  0  0  0
    0.7284   18.7290   18.5153 H   0  0  0  0  0  0  0  0  0  0  0  0
    0.9626   17.2547   17.5675 H   0  0  0  0  0  0  0  0  0  0  0  0
    2.2417   18.5004   17.6547 H   0  0  0  0  0  0  0  0  0  0  0  0
   -0.4292   15.9301   16.0195 H   0  0  0  0  0  0  0  0  0  0  0  0
    1.2408   15.5801   15.3475 H   0  0  0  0  0  0  0  0  0  0  0  0
   -0.8659   13.5465   16.2551 H   0  0  0  0  0  0  0  0  0  0  0  0
    0.7964   13.1539   15.5874 H   0  0  0  0  0  0  0  0  0  0  0  0
    2.6635   12.1549   17.4302 H   0  0  0  0  0  0  0  0  0  0  0  0
    5.0101   11.5825   16.8880 H   0  0  0  0  0  0  0  0  0  0  0  0
    6.6197   13.4254   16.3952 H   0  0  0  0  0  0  0  0  0  0  0  0
    5.7811   15.7753   16.4647 H   0  0  0  0  0  0  0  0  0  0  0  0
    3.4040   16.1826   17.0236 H   0  0  0  0  0  0  0  0  0  0  0  0
  3 16  1  0  0  0  0
  4 14  2  0  0  0  0
  4 15  1  0  0  0  0
  5  3  2  0  0  0  0
  5  6  1  0  0  0  0
  6  7  2  0  0  0  0
  7  8  1  0  0  0  0
  7 28  1  0  0  0  0
  8  9  1  0  0  0  0
  9 10  2  0  0  0  0
  9 29  1  0  0  0  0
 10 30  1  0  0  0  0
 11 12  1  0  0  0  0
 11 10  1  0  0  0  0
 12 31  1  0  0  0  0
 13 32  1  0  0  0  0
 13 12  2  0  0  0  0
 14 13  1  0  0  0  0
 15 11  2  0  0  0  0
 16 15  1  0  0  0  0
 16  8  2  0  0  0  0
 17 33  1  0  0  0  0
 17 14  1  0  0  0  0
 18 36  1  0  0  0  0
 18  5  1  0  0  0  0
 19 39  1  0  0  0  0
 19 20  1  0  0  0  0
 19  1  1  0  0  0  0
 20 41  1  0  0  0  0
 21  1  1  0  0  0  0
 22 21  1  0  0  0  0
 22 43  1  0  0  0  0
 23 22  1  0  0  0  0
 24 25  1  0  0  0  0
 24 23  2  0  0  0  0
 25 26  2  0  0  0  0
 26 47  1  0  0  0  0
 26 21  1  0  0  0  0
 27  6  1  0  0  0  0
 34 17  1  0  0  0  0
 35 17  1  0  0  0  0
 37 18  1  0  0  0  0
 38 18  1  0  0  0  0
 40 19  1  0  0  0  0
 42 20  1  0  0  0  0
 44 23  1  0  0  0  0
 45 24  1  0  0  0  0
 46 25  1  0  0  0  0
M  END
$$$$
