CSD_code = YAJYAJ | q = 0 | S = 0 | Stoichiometry = C12H19IN2O3Ru | MND = 6
 OpenBabel04212202123D

 38 38  0  0  0  0  0  0  0  0999 V2000
    4.1899    3.2959    4.3792 I   0  0  0  0  0  0  0  0  0  0  0  0
    1.7473    2.5968    3.3645 Ru  0  0  0  0  0  0  0  0  0  0  0  0
   -0.5317    0.9530    3.4303 O   0  0  0  0  0  0  0  0  0  0  0  0
    2.4426    3.3214    0.5330 O   0  0  0  0  0  1  0  0  0  0  0  0
    0.6873    5.3990    3.5299 O   0  0  0  0  0  1  0  0  0  0  0  0
    1.2465    2.1246    5.2711 N   0  0  0  0  0  0  0  0  0  0  0  0
    2.2524    0.6037    3.3809 N   0  0  0  0  0  0  0  0  0  0  0  0
    0.8085    3.0395    6.3112 C   0  0  0  0  0  0  0  0  0  0  0  0
    1.3087    2.6722    7.7094 C   0  0  0  0  0  0  0  0  0  0  0  0
   -0.7207    3.1276    6.2741 C   0  0  0  0  0  0  0  0  0  0  0  0
    1.3155    0.8592    5.5026 C   0  0  0  0  0  0  0  0  0  0  0  0
    1.8413    0.0359    4.4638 C   0  0  0  0  0  0  0  0  0  0  0  0
    2.8543   -0.2324    2.3637 C   0  0  0  0  0  0  0  0  0  0  0  0
    4.2126    0.3303    1.9487 C   0  0  0  0  0  0  0  0  0  0  0  0
    1.9068   -0.3425    1.1657 C   0  0  0  0  0  0  0  0  0  0  0  0
   -0.1226    1.9189    2.8341 C   0  0  0  0  0  0  0  0  0  0  0  0
   -0.9548    2.5866    1.7629 C   0  0  0  0  0  0  0  0  0  0  0  0
    2.1961    2.9817    1.6003 C   0  0  0  0  0  2  0  0  0  0  0  0
    1.1032    4.3330    3.4751 C   0  0  0  0  0  2  0  0  0  0  0  0
    1.2227    4.0236    6.0524 H   0  0  0  0  0  0  0  0  0  0  0  0
    1.1555    3.5196    8.3721 H   0  0  0  0  0  0  0  0  0  0  0  0
    2.3741    2.4500    7.6824 H   0  0  0  0  0  0  0  0  0  0  0  0
    0.7730    1.8218    8.1248 H   0  0  0  0  0  0  0  0  0  0  0  0
   -1.0651    3.8548    7.0041 H   0  0  0  0  0  0  0  0  0  0  0  0
   -1.1596    2.1582    6.5036 H   0  0  0  0  0  0  0  0  0  0  0  0
   -1.0636    3.4349    5.2867 H   0  0  0  0  0  0  0  0  0  0  0  0
    1.0602    0.4137    6.4589 H   0  0  0  0  0  0  0  0  0  0  0  0
    1.9497   -1.0353    4.6282 H   0  0  0  0  0  0  0  0  0  0  0  0
    3.0037   -1.2427    2.7777 H   0  0  0  0  0  0  0  0  0  0  0  0
    4.6605   -0.3143    1.1970 H   0  0  0  0  0  0  0  0  0  0  0  0
    4.8822    0.3858    2.8045 H   0  0  0  0  0  0  0  0  0  0  0  0
    4.1065    1.3290    1.5287 H   0  0  0  0  0  0  0  0  0  0  0  0
    2.3144   -1.0444    0.4430 H   0  0  0  0  0  0  0  0  0  0  0  0
    1.7864    0.6243    0.6804 H   0  0  0  0  0  0  0  0  0  0  0  0
    0.9288   -0.6971    1.4870 H   0  0  0  0  0  0  0  0  0  0  0  0
   -1.1140    3.6361    2.0077 H   0  0  0  0  0  0  0  0  0  0  0  0
   -1.9181    2.0836    1.6704 H   0  0  0  0  0  0  0  0  0  0  0  0
   -0.4327    2.5444    0.8077 H   0  0  0  0  0  0  0  0  0  0  0  0
  2  7  1  0  0  0  0
  2 19  1  0  0  0  0
  2  1  1  0  0  0  0
  2  6  1  0  0  0  0
  4 18  1  0  0  0  0
  6 11  1  0  0  0  0
  6  8  1  0  0  0  0
  7 12  1  0  0  0  0
  8  9  1  0  0  0  0
  9 23  1  0  0  0  0
  9 21  1  0  0  0  0
 10  8  1  0  0  0  0
 10 25  1  0  0  0  0
 10 24  1  0  0  0  0
 11 27  1  0  0  0  0
 12 28  1  0  0  0  0
 12 11  2  0  0  0  0
 13 29  1  0  0  0  0
 13  7  1  0  0  0  0
 14 13  1  0  0  0  0
 14 31  1  0  0  0  0
 15 35  1  0  0  0  0
 15 13  1  0  0  0  0
 16  2  1  0  0  0  0
 16  3  2  0  0  0  0
 17 36  1  0  0  0  0
 17 16  1  0  0  0  0
 18  2  1  0  0  0  0
 19  5  1  0  0  0  0
 20  8  1  0  0  0  0
 22  9  1  0  0  0  0
 26 10  1  0  0  0  0
 30 14  1  0  0  0  0
 32 14  1  0  0  0  0
 33 15  1  0  0  0  0
 34 15  1  0  0  0  0
 37 17  1  0  0  0  0
 38 17  1  0  0  0  0
M  END
$$$$
