CSD_code = YAKCAP | q = 0 | S = 0 | Stoichiometry = C26H24ClO3PPd | MND = 5
 OpenBabel04212202123D

 56 59  0  0  0  0  0  0  0  0999 V2000
    6.9069    9.2358   17.0812 Pd  0  0  0  0  0  0  0  0  0  0  0  0
    5.4423    7.5443   17.4585 P   0  0  0  0  0  0  0  0  0  0  0  0
    5.7922   10.1517   15.2941 Cl  0  0  0  0  0 15  0  0  0  0  0  0
    4.1999    8.2075   18.3025 O   0  0  0  0  0  0  0  0  0  0  0  0
    6.1672    6.6173   18.5656 O   0  0  0  0  0  0  0  0  0  0  0  0
    4.6295    6.4088   16.6930 O   0  0  0  0  0  0  0  0  0  0  0  0
    5.0796    8.7985   20.4544 C   0  0  0  0  0  0  0  0  0  0  0  0
    4.6972    9.1637   19.1780 C   0  0  0  0  0  0  0  0  0  0  0  0
    4.9760   10.4549   18.7128 C   0  0  0  0  0  0  0  0  0  0  0  0
    4.6154   10.7534   17.7301 H   0  0  0  0  0  0  0  0  0  0  0  0
    5.6262   11.3587   19.5428 C   0  0  0  0  0  0  0  0  0  0  0  0
    5.8108   12.3624   19.1882 H   0  0  0  0  0  0  0  0  0  0  0  0
    6.0680   10.9739   20.8050 C   0  0  0  0  0  0  0  0  0  0  0  0
    6.6279   11.6613   21.4221 H   0  0  0  0  0  0  0  0  0  0  0  0
    5.7948    9.6968   21.2488 C   0  0  0  0  0  0  0  0  0  0  0  0
    6.2308    9.0249   22.5183 C   0  0  0  0  0  0  0  0  0  0  0  0
    5.6061    9.3485   23.3545 H   0  0  0  0  0  0  0  0  0  0  0  0
    7.2665    9.2537   22.7706 H   0  0  0  0  0  0  0  0  0  0  0  0
    6.0159    7.5365   22.2062 C   0  0  0  0  0  0  0  0  0  0  0  0
    5.8086    6.9427   23.0939 H   0  0  0  0  0  0  0  0  0  0  0  0
    6.9039    7.1282   21.7198 H   0  0  0  0  0  0  0  0  0  0  0  0
    4.8393    7.5147   21.2007 C   0  0  0  0  0  0  0  0  0  0  0  0
    3.4849    7.5433   21.9505 C   0  0  0  0  0  0  0  0  0  0  0  0
    3.5213    8.1688   22.8400 H   0  0  0  0  0  0  0  0  0  0  0  0
    2.7205    7.9402   21.2803 H   0  0  0  0  0  0  0  0  0  0  0  0
    3.1842    6.0725   22.2631 C   0  0  0  0  0  0  0  0  0  0  0  0
    3.6262    5.7699   23.2161 H   0  0  0  0  0  0  0  0  0  0  0  0
    2.1153    5.8655   22.3115 H   0  0  0  0  0  0  0  0  0  0  0  0
    3.8494    5.3524   21.1274 C   0  0  0  0  0  0  0  0  0  0  0  0
    3.6452    4.0572   20.7001 C   0  0  0  0  0  0  0  0  0  0  0  0
    2.9546    3.4098   21.2192 H   0  0  0  0  0  0  0  0  0  0  0  0
    4.3304    3.6063   19.5806 C   0  0  0  0  0  0  0  0  0  0  0  0
    4.1864    2.5951   19.2314 H   0  0  0  0  0  0  0  0  0  0  0  0
    5.1687    4.4556   18.8833 C   0  0  0  0  0  0  0  0  0  0  0  0
    5.6699    4.1309   17.9850 H   0  0  0  0  0  0  0  0  0  0  0  0
    5.3710    5.7606   19.3184 C   0  0  0  0  0  0  0  0  0  0  0  0
    4.7359    6.2035   20.4649 C   0  0  0  0  0  0  0  0  0  0  0  0
    3.6324    6.5451   15.7452 C   0  0  0  0  0  0  0  0  0  0  0  0
    2.9070    5.3980   15.4514 C   0  0  0  0  0  0  0  0  0  0  0  0
    3.1395    4.4807   15.9700 H   0  0  0  0  0  0  0  0  0  0  0  0
    1.9011    5.4540   14.5037 C   0  0  0  0  0  0  0  0  0  0  0  0
    1.3372    4.5627   14.2722 H   0  0  0  0  0  0  0  0  0  0  0  0
    1.6203    6.6456   13.8552 C   0  0  0  0  0  0  0  0  0  0  0  0
    0.8364    6.6847   13.1138 H   0  0  0  0  0  0  0  0  0  0  0  0
    2.3478    7.7831   14.1599 C   0  0  0  0  0  0  0  0  0  0  0  0
    2.1389    8.7150   13.6577 H   0  0  0  0  0  0  0  0  0  0  0  0
    3.3555    7.7411   15.1090 C   0  0  0  0  0  0  0  0  0  0  0  0
    3.9394    8.6224   15.3375 H   0  0  0  0  0  0  0  0  0  0  0  0
    8.5466   10.5279   16.8854 C   0  0  0  0  0  0  0  0  0  0  0  0
    9.1089    9.9985   16.1085 H   0  0  0  0  0  0  0  0  0  0  0  0
    8.4655   11.6000   16.7364 H   0  0  0  0  0  0  0  0  0  0  0  0
    8.5379   10.0193   18.1962 C   0  0  0  0  0  3  0  0  0  0  0  0
    8.3269   10.6817   19.0344 H   0  0  0  0  0  0  0  0  0  0  0  0
    8.5010    8.6338   18.3814 C   0  0  0  0  0  3  0  0  0  0  0  0
    8.3783    8.2372   19.3817 H   0  0  0  0  0  0  0  0  0  0  0  0
    9.0372    7.9811   17.6879 H   0  0  0  0  0  0  0  0  0  0  0  0
  2  4  1  0  0  0  0
  2  5  1  0  0  0  0
  4  8  1  0  0  0  0
  5 36  1  0  0  0  0
  6  2  1  0  0  0  0
  7 22  1  0  0  0  0
  7 15  1  0  0  0  0
  8  7  2  0  0  0  0
  9  8  1  0  0  0  0
  9 11  2  0  0  0  0
 10  9  1  0  0  0  0
 11 13  1  0  0  0  0
 12 11  1  0  0  0  0
 13 15  2  0  0  0  0
 13 14  1  0  0  0  0
 15 16  1  0  0  0  0
 16 18  1  0  0  0  0
 16 17  1  0  0  0  0
 19 16  1  0  0  0  0
 19 20  1  0  0  0  0
 21 19  1  0  0  0  0
 22 23  1  0  0  0  0
 22 19  1  0  0  0  0
 23 26  1  0  0  0  0
 23 24  1  0  0  0  0
 25 23  1  0  0  0  0
 26 28  1  0  0  0  0
 26 27  1  0  0  0  0
 29 26  1  0  0  0  0
 30 29  1  0  0  0  0
 30 31  1  0  0  0  0
 32 30  2  0  0  0  0
 33 32  1  0  0  0  0
 34 36  2  0  0  0  0
 34 32  1  0  0  0  0
 35 34  1  0  0  0  0
 36 37  1  0  0  0  0
 37 29  2  0  0  0  0
 37 22  1  0  0  0  0
 38  6  1  0  0  0  0
 39 38  1  0  0  0  0
 39 40  1  0  0  0  0
 41 39  2  0  0  0  0
 42 41  1  0  0  0  0
 43 45  2  0  0  0  0
 43 41  1  0  0  0  0
 44 43  1  0  0  0  0
 45 47  1  0  0  0  0
 46 45  1  0  0  0  0
 47 48  1  0  0  0  0
 47 38  2  0  0  0  0
 49  1  1  0  0  0  0
 49 52  1  0  0  0  0
 50 49  1  0  0  0  0
 51 49  1  0  0  0  0
 52 54  1  0  0  0  0
 52 53  1  0  0  0  0
 54 55  1  0  0  0  0
 56 54  1  0  0  0  0
M  END
$$$$
