CSD_code = YAKCUK | q = 0 | S = 0 | Stoichiometry = C7H16Cl2N3PPd | MND = 4
 OpenBabel04212202123D

 30 32  0  0  1  0  0  0  0  0999 V2000
    0.4887    6.9024    1.7144 Pd  0  0  0  0  0  0  0  0  0  0  0  0
   -1.6898    6.4855    1.5902 Cl  0  0  0  0  0  0  0  0  0  0  0  0
    0.7029    5.2332    3.2018 Cl  0  0  0  0  0  0  0  0  0  0  0  0
    0.2730    8.5963    0.2775 P   0  0  1  0  0  4  0  0  0  0  0  0
    2.6660    7.5039    1.6997 N   0  0  2  0  0  4  0  0  0  0  0  0
    2.4377    9.9340    1.3186 N   0  0  1  0  0  0  0  0  0  0  0  0
    2.8879    8.4949   -0.5549 N   0  0  1  0  0  0  0  0  0  0  0  0
   -1.2294    9.2096   -0.5507 C   0  0  0  0  0  0  0  0  0  0  0  0
   -1.0085   10.0827   -1.1645 H   0  0  0  0  0  0  0  0  0  0  0  0
   -1.9659    9.4578    0.2127 H   0  0  0  0  0  0  0  0  0  0  0  0
   -1.6371    8.4076   -1.1651 H   0  0  0  0  0  0  0  0  0  0  0  0
    1.0144   10.1020    1.0900 C   0  0  0  0  0  0  0  0  0  0  0  0
    0.8742   10.9920    0.4656 H   0  0  0  0  0  0  0  0  0  0  0  0
    0.5178   10.2701    2.0533 H   0  0  0  0  0  0  0  0  0  0  0  0
    1.5374    8.4363   -1.0821 C   0  0  0  0  0  0  0  0  0  0  0  0
    1.3981    7.4768   -1.5937 H   0  0  0  0  0  0  0  0  0  0  0  0
    1.4239    9.2421   -1.8163 H   0  0  0  0  0  0  0  0  0  0  0  0
    2.8084    8.8847    2.2315 C   0  0  0  0  0  0  0  0  0  0  0  0
    2.2001    8.9616    3.1426 H   0  0  0  0  0  0  0  0  0  0  0  0
    3.8669    9.0558    2.4932 H   0  0  0  0  0  0  0  0  0  0  0  0
    3.1638    9.7717    0.0742 C   0  0  0  0  0  0  0  0  0  0  0  0
    2.8980   10.5798   -0.6104 H   0  0  0  0  0  0  0  0  0  0  0  0
    4.2360    9.8278    0.2885 H   0  0  0  0  0  0  0  0  0  0  0  0
    3.2584    7.4294    0.3386 C   0  0  0  0  0  0  0  0  0  0  0  0
    4.3578    7.4664    0.4305 H   0  0  0  0  0  0  0  0  0  0  0  0
    2.9718    6.4669   -0.1042 H   0  0  0  0  0  0  0  0  0  0  0  0
    3.3922    6.5847    2.5741 C   0  0  0  0  0  0  0  0  0  0  0  0
    4.4592    6.8450    2.6139 H   0  0  0  0  0  0  0  0  0  0  0  0
    3.2794    5.5654    2.2038 H   0  0  0  0  0  0  0  0  0  0  0  0
    2.9687    6.6252    3.5777 H   0  0  0  0  0  0  0  0  0  0  0  0
  1  3  1  0  0  0  0
  2  1  1  0  0  0  0
  4  8  1  6  0  0  0
  4 12  1  0  0  0  0
  4  1  1  0  0  0  0
  5  1  1  0  0  0  0
  5 18  1  0  0  0  0
  5 27  1  1  0  0  0
  6 21  1  6  0  0  0
  6 18  1  0  0  0  0
  7 15  1  1  0  0  0
  7 21  1  0  0  0  0
  7 24  1  0  0  0  0
  8 10  1  0  0  0  0
  9  8  1  0  0  0  0
 11  8  1  0  0  0  0
 12  6  1  0  0  0  0
 12 14  1  0  0  0  0
 13 12  1  0  0  0  0
 15  4  1  0  0  0  0
 16 15  1  0  0  0  0
 17 15  1  0  0  0  0
 18 20  1  0  0  0  0
 18 19  1  0  0  0  0
 21 23  1  0  0  0  0
 22 21  1  0  0  0  0
 24 25  1  0  0  0  0
 24  5  1  0  0  0  0
 26 24  1  0  0  0  0
 27 28  1  0  0  0  0
 27 30  1  0  0  0  0
 29 27  1  0  0  0  0
M  END
$$$$
