CSD_code = YAKLUR | q = 0 | S = 0 | Stoichiometry = C20H20AuClNP | MND = 2
 OpenBabel04212202123D

 44 46  0  0  0  0  0  0  0  0999 V2000
    1.8833    1.9218    0.0908 Au  0  0  0  0  0  0  0  0  0  0  0  0
    2.2755    3.1847   -1.7193 P   0  0  0  0  0  4  0  0  0  0  0  0
    1.4890    0.6117    1.8964 Cl  0  0  0  0  0  0  0  0  0  0  0  0
    5.6328    0.4928   -5.8710 N   0  0  0  0  0  0  0  0  0  0  0  0
    3.2675    2.3948   -2.9968 C   0  0  0  0  0  0  0  0  0  0  0  0
    4.0243    1.2729   -2.6658 C   0  0  0  0  0  0  0  0  0  0  0  0
    4.8016    0.6421   -3.6086 C   0  0  0  0  0  0  0  0  0  0  0  0
    4.8524    1.1055   -4.9362 C   0  0  0  0  0  0  0  0  0  0  0  0
    4.0707    2.2315   -5.2590 C   0  0  0  0  0  0  0  0  0  0  0  0
    3.2973    2.8595   -4.3115 C   0  0  0  0  0  0  0  0  0  0  0  0
    6.3625   -0.7072   -5.5388 C   0  0  0  0  0  0  0  0  0  0  0  0
    5.6186    0.9388   -7.2427 C   0  0  0  0  0  0  0  0  0  0  0  0
    0.7796    3.6899   -2.6148 C   0  0  0  0  0  0  0  0  0  0  0  0
   -0.1857    2.7044   -2.8034 C   0  0  0  0  0  0  0  0  0  0  0  0
   -1.3456    2.9938   -3.4955 C   0  0  0  0  0  0  0  0  0  0  0  0
   -1.5501    4.2706   -3.9960 C   0  0  0  0  0  0  0  0  0  0  0  0
   -0.5937    5.2540   -3.8052 C   0  0  0  0  0  0  0  0  0  0  0  0
    0.5731    4.9695   -3.1172 C   0  0  0  0  0  0  0  0  0  0  0  0
    3.1039    4.7558   -1.3536 C   0  0  0  0  0  0  0  0  0  0  0  0
    4.3308    5.1155   -1.8969 C   0  0  0  0  0  0  0  0  0  0  0  0
    4.9202    6.3113   -1.5233 C   0  0  0  0  0  0  0  0  0  0  0  0
    4.2952    7.1417   -0.6083 C   0  0  0  0  0  0  0  0  0  0  0  0
    3.0770    6.7772   -0.0539 C   0  0  0  0  0  0  0  0  0  0  0  0
    2.4853    5.5841   -0.4185 C   0  0  0  0  0  0  0  0  0  0  0  0
    3.9922    0.8966   -1.6508 H   0  0  0  0  0  0  0  0  0  0  0  0
    5.3695   -0.2223   -3.3088 H   0  0  0  0  0  0  0  0  0  0  0  0
    4.0627    2.6195   -6.2640 H   0  0  0  0  0  0  0  0  0  0  0  0
    2.7037    3.7205   -4.5887 H   0  0  0  0  0  0  0  0  0  0  0  0
    6.9174   -1.0474   -6.4093 H   0  0  0  0  0  0  0  0  0  0  0  0
    7.0787   -0.5169   -4.7350 H   0  0  0  0  0  0  0  0  0  0  0  0
    5.6899   -1.5122   -5.2258 H   0  0  0  0  0  0  0  0  0  0  0  0
    6.3114    0.3384   -7.8267 H   0  0  0  0  0  0  0  0  0  0  0  0
    5.9343    1.9831   -7.3154 H   0  0  0  0  0  0  0  0  0  0  0  0
    4.6227    0.8417   -7.6877 H   0  0  0  0  0  0  0  0  0  0  0  0
   -0.0155    1.7161   -2.3942 H   0  0  0  0  0  0  0  0  0  0  0  0
   -2.0939    2.2287   -3.6392 H   0  0  0  0  0  0  0  0  0  0  0  0
   -0.7560    6.2489   -4.1936 H   0  0  0  0  0  0  0  0  0  0  0  0
   -2.4591    4.5003   -4.5317 H   0  0  0  0  0  0  0  0  0  0  0  0
    1.3185    5.7387   -2.9671 H   0  0  0  0  0  0  0  0  0  0  0  0
    4.8181    4.4616   -2.6070 H   0  0  0  0  0  0  0  0  0  0  0  0
    5.8730    6.5938   -1.9467 H   0  0  0  0  0  0  0  0  0  0  0  0
    4.7605    8.0725   -0.3198 H   0  0  0  0  0  0  0  0  0  0  0  0
    2.5953    7.4211    0.6669 H   0  0  0  0  0  0  0  0  0  0  0  0
    1.5401    5.2782    0.0131 H   0  0  0  0  0  0  0  0  0  0  0  0
  1  3  1  0  0  0  0
  2 19  1  0  0  0  0
  2  1  1  0  0  0  0
  4 11  1  0  0  0  0
  4  8  1  0  0  0  0
  5  6  1  0  0  0  0
  5  2  1  0  0  0  0
  6 25  1  0  0  0  0
  7 26  1  0  0  0  0
  7  6  2  0  0  0  0
  8  7  1  0  0  0  0
  9  8  2  0  0  0  0
  9 10  1  0  0  0  0
 10  5  2  0  0  0  0
 11 31  1  0  0  0  0
 11 30  1  0  0  0  0
 12  4  1  0  0  0  0
 13  2  1  0  0  0  0
 14 13  1  0  0  0  0
 14 35  1  0  0  0  0
 15 14  2  0  0  0  0
 16 17  2  0  0  0  0
 16 15  1  0  0  0  0
 17 18  1  0  0  0  0
 18 39  1  0  0  0  0
 18 13  2  0  0  0  0
 19 24  1  0  0  0  0
 20 21  1  0  0  0  0
 20 19  2  0  0  0  0
 21 22  2  0  0  0  0
 22 42  1  0  0  0  0
 22 23  1  0  0  0  0
 23 43  1  0  0  0  0
 24 23  2  0  0  0  0
 24 44  1  0  0  0  0
 27  9  1  0  0  0  0
 28 10  1  0  0  0  0
 29 11  1  0  0  0  0
 32 12  1  0  0  0  0
 33 12  1  0  0  0  0
 34 12  1  0  0  0  0
 36 15  1  0  0  0  0
 37 17  1  0  0  0  0
 38 16  1  0  0  0  0
 40 20  1  0  0  0  0
 41 21  1  0  0  0  0
M  END
$$$$
