CSD_code = YAKYUE | q = 0 | S = 0 | Stoichiometry = C10H24Cl2N4Pd | MND = 4
 OpenBabel04212202123D

 41 42  0  0  0  0  0  0  0  0999 V2000
   -0.0002   -0.0003    0.0006 Pd  0  0  0  0  0  0  0  0  0  0  0  0
   -0.7396    0.2697    2.1528 Cl  0  0  0  0  0  0  0  0  0  0  0  0
    1.2133    1.6259    0.0724 N   0  0  0  0  0  4  0  0  0  0  0  0
    2.5222    3.9025    1.1893 N   0  0  0  0  0  0  0  0  0  0  0  0
    0.4999    2.8843    0.2981 C   0  0  0  0  0  0  0  0  0  0  0  0
    1.4695    4.0634    0.2035 C   0  0  0  0  0  0  0  0  0  0  0  0
    3.2531    2.6714    0.9522 C   0  0  0  0  0  0  0  0  0  0  0  0
    2.2940    1.4841    1.0503 C   0  0  0  0  0  0  0  0  0  0  0  0
    3.3937    5.0537    1.2525 C   0  0  0  0  0  0  0  0  0  0  0  0
    1.6292    1.6516   -0.8702 H   0  0  0  0  0  0  0  0  0  0  0  0
    0.0602    2.8523    1.3004 H   0  0  0  0  0  0  0  0  0  0  0  0
   -0.2991    2.9829   -0.4484 H   0  0  0  0  0  0  0  0  0  0  0  0
    0.9369    4.9931    0.4135 H   0  0  0  0  0  0  0  0  0  0  0  0
    1.8776    4.1245   -0.8246 H   0  0  0  0  0  0  0  0  0  0  0  0
    4.0305    2.5777    1.7131 H   0  0  0  0  0  0  0  0  0  0  0  0
    3.7416    2.6704   -0.0420 H   0  0  0  0  0  0  0  0  0  0  0  0
    2.8273    0.5429    0.8615 H   0  0  0  0  0  0  0  0  0  0  0  0
    1.8476    1.4567    2.0500 H   0  0  0  0  0  0  0  0  0  0  0  0
    2.8014    5.9346    1.4942 H   0  0  0  0  0  0  0  0  0  0  0  0
    3.9279    5.2373    0.3068 H   0  0  0  0  0  0  0  0  0  0  0  0
    4.1273    4.9008    2.0422 H   0  0  0  0  0  0  0  0  0  0  0  0
    0.7406   -0.2671   -2.1513 Cl  0  0  0  0  0  0  0  0  0  0  0  0
   -1.2135   -1.6262   -0.0726 N   0  0  0  0  0  4  0  0  0  0  0  0
   -0.4999   -2.8845   -0.2982 C   0  0  0  0  0  0  0  0  0  0  0  0
   -2.2941   -1.4842   -1.0505 C   0  0  0  0  0  0  0  0  0  0  0  0
   -1.6295   -1.6522    0.8699 H   0  0  0  0  0  0  0  0  0  0  0  0
   -1.4695   -4.0634   -0.2036 C   0  0  0  0  0  0  0  0  0  0  0  0
   -0.0602   -2.8523   -1.3006 H   0  0  0  0  0  0  0  0  0  0  0  0
    0.2990   -2.9829    0.4482 H   0  0  0  0  0  0  0  0  0  0  0  0
   -3.2531   -2.6715   -0.9523 C   0  0  0  0  0  0  0  0  0  0  0  0
   -2.8274   -0.5430   -0.8616 H   0  0  0  0  0  0  0  0  0  0  0  0
   -1.8477   -1.4567   -2.0502 H   0  0  0  0  0  0  0  0  0  0  0  0
   -2.5222   -3.9026   -1.1894 N   0  0  0  0  0  0  0  0  0  0  0  0
   -0.9369   -4.9932   -0.4136 H   0  0  0  0  0  0  0  0  0  0  0  0
   -1.8775   -4.1246    0.8245 H   0  0  0  0  0  0  0  0  0  0  0  0
   -4.0306   -2.5778   -1.7132 H   0  0  0  0  0  0  0  0  0  0  0  0
   -3.7416   -2.6705    0.0419 H   0  0  0  0  0  0  0  0  0  0  0  0
   -3.3938   -5.0538   -1.2525 C   0  0  0  0  0  0  0  0  0  0  0  0
   -2.8014   -5.9347   -1.4941 H   0  0  0  0  0  0  0  0  0  0  0  0
   -3.9279   -5.2373   -0.3068 H   0  0  0  0  0  0  0  0  0  0  0  0
   -4.1273   -4.9009   -2.0422 H   0  0  0  0  0  0  0  0  0  0  0  0
  1  3  1  0  0  0  0
  1  2  1  0  0  0  0
  3  5  1  0  0  0  0
  3  8  1  0  0  0  0
  4  9  1  0  0  0  0
  5 11  1  0  0  0  0
  6  5  1  0  0  0  0
  6 13  1  0  0  0  0
  6  4  1  0  0  0  0
  7  8  1  0  0  0  0
  7  4  1  0  0  0  0
  7 15  1  0  0  0  0
  8 18  1  0  0  0  0
  9 19  1  0  0  0  0
  9 21  1  0  0  0  0
 10  3  1  0  0  0  0
 12  5  1  0  0  0  0
 14  6  1  0  0  0  0
 16  7  1  0  0  0  0
 17  8  1  0  0  0  0
 20  9  1  0  0  0  0
 22  1  1  0  0  0  0
 23  1  1  0  0  0  0
 23 26  1  0  0  0  0
 24 27  1  0  0  0  0
 24 23  1  0  0  0  0
 24 29  1  0  0  0  0
 25 30  1  0  0  0  0
 25 31  1  0  0  0  0
 25 23  1  0  0  0  0
 27 35  1  0  0  0  0
 28 24  1  0  0  0  0
 30 37  1  0  0  0  0
 32 25  1  0  0  0  0
 33 30  1  0  0  0  0
 33 27  1  0  0  0  0
 34 27  1  0  0  0  0
 36 30  1  0  0  0  0
 38 33  1  0  0  0  0
 38 40  1  0  0  0  0
 39 38  1  0  0  0  0
 41 38  1  0  0  0  0
M  END
$$$$
