CSD_code = YAKYOA | q = 0 | S = 0 | Stoichiometry = C26H21FeINO3PS | MND = 6
 OpenBabel04212202123D

 55 59  0  0  1  0  0  0  0  0999 V2000
    3.5737    8.2831    1.4227 I   0  0  0  0  0  0  0  0  0  0  0  0
    1.9314    6.5837    2.3332 Fe  0  0  0  0  0  0  0  0  0  0  0  0
    3.6731    5.3634    2.9219 P   0  0  0  0  0  4  0  0  0  0  0  0
    1.4680    7.7051    4.4493 S   0  0  0  0  0  0  0  0  0  0  0  0
    1.7044    5.4619   -0.3279 O   0  0  0  0  0  1  0  0  0  0  0  0
    0.0616    4.5039    3.0154 O   0  0  0  0  0  1  0  0  0  0  0  0
   -0.3370    8.3990    1.1761 C   0  0  2  0  0  3  0  0  0  0  0  0
   -0.1314    7.7397    0.0240 O   0  0  0  0  0  0  0  0  0  0  0  0
    4.4959    4.6556    1.4683 C   0  0  0  0  0  0  0  0  0  0  0  0
    0.4161    7.9334    2.1688 N   0  0  0  0  0  0  0  0  0  0  0  0
    2.7102    1.9001    5.7890 C   0  0  0  0  0  0  0  0  0  0  0  0
    2.4754    1.1097    6.4864 H   0  0  0  0  0  0  0  0  0  0  0  0
    2.5011    4.1812    5.0907 C   0  0  0  0  0  0  0  0  0  0  0  0
    2.1172    5.1821    5.2454 H   0  0  0  0  0  0  0  0  0  0  0  0
    3.2993    3.9202    3.9788 C   0  0  0  0  0  0  0  0  0  0  0  0
    3.8401    3.6310    0.7864 C   0  0  0  0  0  0  0  0  0  0  0  0
    2.9078    3.2414    1.1804 H   0  0  0  0  0  0  0  0  0  0  0  0
    4.9460    7.2215    4.6244 C   0  0  0  0  0  0  0  0  0  0  0  0
    4.0657    7.8404    4.5356 H   0  0  0  0  0  0  0  0  0  0  0  0
   -1.2899   10.0116    2.6623 C   0  0  0  0  0  0  0  0  0  0  0  0
   -1.9689   10.8321    2.8392 H   0  0  0  0  0  0  0  0  0  0  0  0
    3.5204    1.6406    4.6966 C   0  0  0  0  0  0  0  0  0  0  0  0
    3.9220    0.6493    4.5442 H   0  0  0  0  0  0  0  0  0  0  0  0
    3.8229    2.6457    3.7945 C   0  0  0  0  0  0  0  0  0  0  0  0
    4.4599    2.4319    2.9475 H   0  0  0  0  0  0  0  0  0  0  0  0
    4.3734    3.1263   -0.3835 C   0  0  0  0  0  0  0  0  0  0  0  0
    3.8659    2.3291   -0.9066 H   0  0  0  0  0  0  0  0  0  0  0  0
    0.8194    5.3352    2.8087 C   0  0  0  0  0  2  0  0  0  0  0  0
    5.0383    6.0189    3.9377 C   0  0  0  0  0  0  0  0  0  0  0  0
    5.9916    7.6345    5.4323 C   0  0  0  0  0  0  0  0  0  0  0  0
    5.9183    8.5747    5.9575 H   0  0  0  0  0  0  0  0  0  0  0  0
    0.3583    8.4773    3.3971 C   0  0  0  0  0  0  0  0  0  0  0  0
    6.1694    5.2167    4.0892 C   0  0  0  0  0  0  0  0  0  0  0  0
    6.2316    4.2691    3.5705 H   0  0  0  0  0  0  0  0  0  0  0  0
    2.2057    3.1752    5.9898 C   0  0  0  0  0  0  0  0  0  0  0  0
    1.5822    3.3847    6.8462 H   0  0  0  0  0  0  0  0  0  0  0  0
    5.6660    5.1967    0.9464 C   0  0  0  0  0  0  0  0  0  0  0  0
    6.1548    6.0183    1.4513 H   0  0  0  0  0  0  0  0  0  0  0  0
    1.8211    5.9176    0.7112 C   0  0  0  0  0  2  0  0  0  0  0  0
    6.1906    4.6901   -0.2297 C   0  0  0  0  0  0  0  0  0  0  0  0
    7.0969    5.1143   -0.6351 H   0  0  0  0  0  0  0  0  0  0  0  0
   -0.7793    8.1858   -1.1478 C   0  0  0  0  0  0  0  0  0  0  0  0
   -0.4145    7.5398   -1.9439 H   0  0  0  0  0  0  0  0  0  0  0  0
   -0.5180    9.2235   -1.3717 H   0  0  0  0  0  0  0  0  0  0  0  0
   -1.8654    8.0852   -1.0637 H   0  0  0  0  0  0  0  0  0  0  0  0
   -1.2209    9.4500    1.3898 C   0  0  0  0  0  0  0  0  0  0  0  0
   -1.8364    9.8281    0.5920 H   0  0  0  0  0  0  0  0  0  0  0  0
    7.2087    5.6374    4.8944 C   0  0  0  0  0  0  0  0  0  0  0  0
    8.0876    5.0183    5.0022 H   0  0  0  0  0  0  0  0  0  0  0  0
   -0.5006    9.5367    3.6865 C   0  0  0  0  0  0  0  0  0  0  0  0
   -0.5185    9.9562    4.6782 H   0  0  0  0  0  0  0  0  0  0  0  0
    5.5514    3.6543   -0.8903 C   0  0  0  0  0  0  0  0  0  0  0  0
    5.9634    3.2636   -1.8088 H   0  0  0  0  0  0  0  0  0  0  0  0
    7.1231    6.8491    5.5638 C   0  0  0  0  0  0  0  0  0  0  0  0
    7.9393    7.1759    6.1909 H   0  0  0  0  0  0  0  0  0  0  0  0
  1  2  1  0  0  0  0
  2 28  1  0  0  0  0
  2  3  1  0  0  0  0
  2  4  1  0  0  0  0
  3 29  1  0  0  0  0
  3 15  1  0  0  0  0
  5 39  1  0  0  0  0
  7  8  1  1  0  0  0
  7 46  1  0  0  0  0
  7 10  1  0  0  0  0
  9  3  1  0  0  0  0
 10  2  1  0  0  0  0
 10 32  1  0  0  0  0
 11 35  1  0  0  0  0
 11 12  1  0  0  0  0
 13 14  1  0  0  0  0
 13 35  2  0  0  0  0
 15 13  1  0  0  0  0
 16 17  1  0  0  0  0
 16  9  2  0  0  0  0
 18 30  1  0  0  0  0
 19 18  1  0  0  0  0
 20 21  1  0  0  0  0
 20 50  1  0  0  0  0
 22 11  2  0  0  0  0
 23 22  1  0  0  0  0
 24 15  2  0  0  0  0
 24 22  1  0  0  0  0
 25 24  1  0  0  0  0
 26 16  1  0  0  0  0
 27 26  1  0  0  0  0
 28  6  1  0  0  0  0
 29 33  1  0  0  0  0
 29 18  2  0  0  0  0
 30 54  2  0  0  0  0
 30 31  1  0  0  0  0
 32 50  2  0  0  0  0
 32  4  1  0  0  0  0
 33 48  2  0  0  0  0
 34 33  1  0  0  0  0
 35 36  1  0  0  0  0
 37 38  1  0  0  0  0
 37  9  1  0  0  0  0
 39  2  1  0  0  0  0
 40 37  2  0  0  0  0
 41 40  1  0  0  0  0
 42 45  1  0  0  0  0
 42  8  1  0  0  0  0
 43 42  1  0  0  0  0
 44 42  1  0  0  0  0
 46 20  2  0  0  0  0
 47 46  1  0  0  0  0
 48 49  1  0  0  0  0
 48 54  1  0  0  0  0
 50 51  1  0  0  0  0
 52 26  2  0  0  0  0
 52 40  1  0  0  0  0
 53 52  1  0  0  0  0
 54 55  1  0  0  0  0
M  END
$$$$
