CSD_code = YALGOK | q = 0 | S = 0 | Stoichiometry = C21H20AuBrN2 | MND = 2
 OpenBabel04212202123D

 45 47  0  0  1  0  0  0  0  0999 V2000
   12.1180    2.6349   10.1080 Au  0  0  0  0  0  0  0  0  0  0  0  0
   11.8156    2.7518   12.4443 Br  0  0  0  0  0  0  0  0  0  0  0  0
   12.0595    1.4015    7.3930 N   0  0  0  0  0  0  0  0  0  0  0  0
   12.8288    3.3893    7.2187 N   0  0  0  0  0  0  0  0  0  0  0  0
   12.3627    2.4971    8.1086 C   0  0  2  0  0  3  0  0  0  0  0  0
   12.8128    2.8610    5.9552 C   0  0  0  0  0  0  0  0  0  0  0  0
   13.1348    3.4177    5.0997 H   0  0  0  0  0  0  0  0  0  0  0  0
   12.3265    1.6021    6.0657 C   0  0  0  0  0  0  0  0  0  0  0  0
   12.1512    0.8469    5.3275 H   0  0  0  0  0  0  0  0  0  0  0  0
   11.5343    0.2099    7.9631 C   0  0  0  0  0  0  0  0  0  0  0  0
   10.1535    0.0716    8.0954 C   0  0  0  0  0  0  0  0  0  0  0  0
    9.6638   -1.0890    8.6725 C   0  0  0  0  0  0  0  0  0  0  0  0
    8.5965   -1.2077    8.7886 H   0  0  0  0  0  0  0  0  0  0  0  0
   10.5138   -2.0938    9.1151 C   0  0  0  0  0  0  0  0  0  0  0  0
   11.8835   -1.9263    8.9666 C   0  0  0  0  0  0  0  0  0  0  0  0
   12.5540   -2.6992    9.3127 H   0  0  0  0  0  0  0  0  0  0  0  0
   12.4144   -0.7811    8.3944 C   0  0  0  0  0  0  0  0  0  0  0  0
    9.2356    1.1669    7.6461 C   0  0  0  0  0  0  0  0  0  0  0  0
    9.3900    2.0576    8.2564 H   0  0  0  0  0  0  0  0  0  0  0  0
    8.1983    0.8598    7.7439 H   0  0  0  0  0  0  0  0  0  0  0  0
    9.4245    1.4372    6.6072 H   0  0  0  0  0  0  0  0  0  0  0  0
    9.9598   -3.3196    9.7711 C   0  0  0  0  0  0  0  0  0  0  0  0
    9.7803   -3.1181   10.8276 H   0  0  0  0  0  0  0  0  0  0  0  0
   10.6565   -4.1510    9.6990 H   0  0  0  0  0  0  0  0  0  0  0  0
    9.0128   -3.6081    9.3201 H   0  0  0  0  0  0  0  0  0  0  0  0
   13.8945   -0.5902    8.2608 C   0  0  0  0  0  0  0  0  0  0  0  0
   14.1704   -0.3713    7.2293 H   0  0  0  0  0  0  0  0  0  0  0  0
   14.4250   -1.4820    8.5815 H   0  0  0  0  0  0  0  0  0  0  0  0
   14.2211    0.2460    8.8800 H   0  0  0  0  0  0  0  0  0  0  0  0
   13.2739    4.7269    7.5376 C   0  0  0  0  0  0  0  0  0  0  0  0
   14.3437    4.8231    7.3102 H   0  0  0  0  0  0  0  0  0  0  0  0
   13.1264    4.8781    8.6134 H   0  0  0  0  0  0  0  0  0  0  0  0
   12.5252    5.7162    6.7855 C   0  0  0  0  0  0  0  0  0  0  0  0
   11.8829    6.4910    6.1268 C   0  0  0  0  0  0  0  0  0  0  0  0
   11.1423    7.4336    5.3740 C   0  0  0  0  0  0  0  0  0  0  0  0
    9.7573    7.5101    5.5191 C   0  0  0  0  0  0  0  0  0  0  0  0
    9.2579    6.8460    6.2095 H   0  0  0  0  0  0  0  0  0  0  0  0
    9.0385    8.4335    4.7846 C   0  0  0  0  0  0  0  0  0  0  0  0
    7.9662    8.4923    4.8998 H   0  0  0  0  0  0  0  0  0  0  0  0
    9.6890    9.2838    3.9045 C   0  0  0  0  0  0  0  0  0  0  0  0
    9.1238   10.0053    3.3337 H   0  0  0  0  0  0  0  0  0  0  0  0
   11.0652    9.2097    3.7576 C   0  0  0  0  0  0  0  0  0  0  0  0
   11.5716    9.8732    3.0721 H   0  0  0  0  0  0  0  0  0  0  0  0
   11.7940    8.2895    4.4862 C   0  0  0  0  0  0  0  0  0  0  0  0
   12.8672    8.2277    4.3788 H   0  0  0  0  0  0  0  0  0  0  0  0
  1  2  1  0  0  0  0
  3 10  1  0  0  0  0
  3  5  1  0  0  0  0
  4 30  1  0  0  0  0
  4  5  1  0  0  0  0
  5  1  1  1  0  0  0
  6  8  2  0  0  0  0
  6  4  1  0  0  0  0
  7  6  1  0  0  0  0
  8  3  1  0  0  0  0
  9  8  1  0  0  0  0
 10 11  2  0  0  0  0
 10 17  1  0  0  0  0
 11 12  1  0  0  0  0
 12 13  1  0  0  0  0
 12 14  2  0  0  0  0
 14 22  1  0  0  0  0
 15 14  1  0  0  0  0
 15 16  1  0  0  0  0
 17 15  2  0  0  0  0
 18 20  1  0  0  0  0
 18 11  1  0  0  0  0
 18 19  1  0  0  0  0
 21 18  1  0  0  0  0
 22 23  1  0  0  0  0
 24 22  1  0  0  0  0
 25 22  1  0  0  0  0
 26 17  1  0  0  0  0
 26 28  1  0  0  0  0
 26 29  1  0  0  0  0
 27 26  1  0  0  0  0
 30 32  1  0  0  0  0
 31 30  1  0  0  0  0
 33 30  1  0  0  0  0
 34 33  3  0  0  0  0
 35 36  1  0  0  0  0
 35 34  1  0  0  0  0
 36 37  1  0  0  0  0
 38 39  1  0  0  0  0
 38 36  2  0  0  0  0
 40 38  1  0  0  0  0
 41 40  1  0  0  0  0
 42 40  2  0  0  0  0
 42 44  1  0  0  0  0
 43 42  1  0  0  0  0
 44 35  2  0  0  0  0
 45 44  1  0  0  0  0
M  END
$$$$
