CSD_code = YAMHUS | q = 0 | S = 0 | Stoichiometry = C28H35F2INPPt | MND = 4
 OpenBabel04212202123D

 69 72  0  0  1  0  0  0  0  0999 V2000
    0.7736    7.6125   11.8602 Pt  0  0  1  0  0  0  0  0  0  0  0  0
   -1.2020    6.4898   13.2708 I   0  0  0  0  0  0  0  0  0  0  0  0
    1.9572    5.6689   12.1111 P   0  0  0  0  0  4  0  0  0  0  0  0
    1.3867    8.1466   10.0103 C   0  0  0  0  0  0  0  0  0  0  0  0
    2.1879    7.4617    9.1062 C   0  0  0  0  0  0  0  0  0  0  0  0
    2.8421    6.6615    9.4146 H   0  0  0  0  0  0  0  0  0  0  0  0
    2.1726    7.7946    7.7653 C   0  0  0  0  0  0  0  0  0  0  0  0
    1.3528    8.7845    7.2538 C   0  0  0  0  0  0  0  0  0  0  0  0
    1.3566    9.0003    6.1976 H   0  0  0  0  0  0  0  0  0  0  0  0
    0.5403    9.4688    8.1328 C   0  0  0  0  0  0  0  0  0  0  0  0
   -0.1187   10.2320    7.7478 H   0  0  0  0  0  0  0  0  0  0  0  0
    2.9847    7.1151    6.9228 F   0  0  0  0  0  0  0  0  0  0  0  0
    0.5517    9.1688    9.4953 C   0  0  0  0  0  0  0  0  0  0  0  0
   -0.2088    9.9234   10.4810 C   0  0  1  0  0  3  0  0  0  0  0  0
   -0.0839    9.4632   11.7428 N   0  0  0  0  0  0  0  0  0  0  0  0
   -0.9298   11.0867   10.2166 C   0  0  0  0  0  0  0  0  0  0  0  0
   -1.0548   11.4280    9.2026 H   0  0  0  0  0  0  0  0  0  0  0  0
   -1.4660   11.8061   11.2665 C   0  0  0  0  0  0  0  0  0  0  0  0
   -2.0305   12.7076   11.0827 H   0  0  0  0  0  0  0  0  0  0  0  0
   -1.2306   11.3756   12.5614 C   0  0  0  0  0  0  0  0  0  0  0  0
   -1.5697   11.9453   13.4111 H   0  0  0  0  0  0  0  0  0  0  0  0
   -0.5323   10.1908   12.7700 C   0  0  0  0  0  0  0  0  0  0  0  0
   -0.2169    9.7775   14.1567 C   0  0  0  0  0  0  0  0  0  0  0  0
   -1.2460    9.5525   15.0786 C   0  0  0  0  0  0  0  0  0  0  0  0
   -2.6933    9.6141   14.6988 C   0  0  0  0  0  0  0  0  0  0  0  0
   -2.8347    9.5469   13.6246 H   0  0  0  0  0  0  0  0  0  0  0  0
   -3.1376   10.5442   15.0533 H   0  0  0  0  0  0  0  0  0  0  0  0
   -3.2259    8.7874   15.1623 H   0  0  0  0  0  0  0  0  0  0  0  0
   -0.9229    9.2228   16.3877 C   0  0  0  0  0  0  0  0  0  0  0  0
   -1.6987    9.0213   17.1086 H   0  0  0  0  0  0  0  0  0  0  0  0
    0.4014    9.1422   16.7623 C   0  0  0  0  0  0  0  0  0  0  0  0
    0.7107    8.8316   18.0391 F   0  0  0  0  0  0  0  0  0  0  0  0
    1.4268    9.3810   15.8693 C   0  0  0  0  0  0  0  0  0  0  0  0
    2.4513    9.3167   16.2009 H   0  0  0  0  0  0  0  0  0  0  0  0
    1.1266    9.6957   14.5520 C   0  0  0  0  0  0  0  0  0  0  0  0
    2.2514    9.9579   13.5935 C   0  0  0  0  0  0  0  0  0  0  0  0
    2.3694    9.1086   12.8997 H   0  0  0  0  0  0  0  0  0  0  0  0
    3.1873   10.0810   14.1322 H   0  0  0  0  0  0  0  0  0  0  0  0
    2.0658   10.8523   12.9999 H   0  0  0  0  0  0  0  0  0  0  0  0
    1.1702    4.2332   11.2705 C   0  0  0  0  0  0  0  0  0  0  0  0
    1.8516    3.3806   11.2353 H   0  0  0  0  0  0  0  0  0  0  0  0
    0.3230    3.9634   11.9100 H   0  0  0  0  0  0  0  0  0  0  0  0
    0.6359    4.5826    9.8840 C   0  0  0  0  0  0  0  0  0  0  0  0
    0.0789    5.5261    9.9518 H   0  0  0  0  0  0  0  0  0  0  0  0
    1.4605    4.7347    9.1852 H   0  0  0  0  0  0  0  0  0  0  0  0
   -0.2824    3.4898    9.3537 C   0  0  0  0  0  0  0  0  0  0  0  0
   -0.6474    3.7488    8.3629 H   0  0  0  0  0  0  0  0  0  0  0  0
   -1.1383    3.3603   10.0122 H   0  0  0  0  0  0  0  0  0  0  0  0
    0.2485    2.5419    9.2873 H   0  0  0  0  0  0  0  0  0  0  0  0
    3.7751    5.6740   11.7134 C   0  0  0  0  0  0  0  0  0  0  0  0
    3.9933    6.4948   11.0287 H   0  0  0  0  0  0  0  0  0  0  0  0
    4.2752    5.9176   12.6562 H   0  0  0  0  0  0  0  0  0  0  0  0
    4.3433    4.3715   11.1596 C   0  0  0  0  0  0  0  0  0  0  0  0
    3.8858    4.1469   10.1937 H   0  0  0  0  0  0  0  0  0  0  0  0
    4.1181    3.5470   11.8406 H   0  0  0  0  0  0  0  0  0  0  0  0
    5.8544    4.4729   10.9831 C   0  0  0  0  0  0  0  0  0  0  0  0
    6.1055    5.2759   10.2935 H   0  0  0  0  0  0  0  0  0  0  0  0
    6.2537    3.5429   10.5857 H   0  0  0  0  0  0  0  0  0  0  0  0
    6.3395    4.6752   11.9358 H   0  0  0  0  0  0  0  0  0  0  0  0
    2.0446    5.0440   13.8432 C   0  0  0  0  0  0  0  0  0  0  0  0
    1.0733    4.6185   14.1047 H   0  0  0  0  0  0  0  0  0  0  0  0
    2.7931    4.2470   13.8965 H   0  0  0  0  0  0  0  0  0  0  0  0
    2.3735    6.1746   14.8153 C   0  0  0  0  0  0  0  0  0  0  0  0
    3.3955    6.5289   14.6549 H   0  0  0  0  0  0  0  0  0  0  0  0
    1.6982    7.0143   14.6145 H   0  0  0  0  0  0  0  0  0  0  0  0
    2.2035    5.7358   16.2631 C   0  0  0  0  0  0  0  0  0  0  0  0
    2.8582    4.8964   16.4901 H   0  0  0  0  0  0  0  0  0  0  0  0
    1.1754    5.4312   16.4444 H   0  0  0  0  0  0  0  0  0  0  0  0
    2.4408    6.5505   16.9423 H   0  0  0  0  0  0  0  0  0  0  0  0
  1  3  1  0  0  0  0
  1  2  1  6  0  0  0
  3 60  1  0  0  0  0
  4  1  1  0  0  0  0
  5  6  1  0  0  0  0
  5  4  2  0  0  0  0
  7  5  1  0  0  0  0
  8  7  2  0  0  0  0
  8 10  1  0  0  0  0
  9  8  1  0  0  0  0
 10 13  2  0  0  0  0
 11 10  1  0  0  0  0
 12  7  1  0  0  0  0
 13  4  1  0  0  0  0
 14 13  1  1  0  0  0
 14 15  1  0  0  0  0
 15  1  1  0  0  0  0
 15 22  1  0  0  0  0
 16 14  1  0  0  0  0
 16 18  2  0  0  0  0
 17 16  1  0  0  0  0
 18 20  1  0  0  0  0
 19 18  1  0  0  0  0
 20 22  2  0  0  0  0
 20 21  1  0  0  0  0
 22 23  1  0  0  0  0
 23 35  2  0  0  0  0
 23 24  1  0  0  0  0
 24 29  2  0  0  0  0
 25 27  1  0  0  0  0
 25 24  1  0  0  0  0
 25 28  1  0  0  0  0
 26 25  1  0  0  0  0
 29 31  1  0  0  0  0
 29 30  1  0  0  0  0
 31 32  1  0  0  0  0
 33 34  1  0  0  0  0
 33 31  2  0  0  0  0
 35 33  1  0  0  0  0
 36 38  1  0  0  0  0
 36 35  1  0  0  0  0
 37 36  1  0  0  0  0
 39 36  1  0  0  0  0
 40 42  1  0  0  0  0
 40  3  1  0  0  0  0
 41 40  1  0  0  0  0
 43 44  1  0  0  0  0
 43 40  1  0  0  0  0
 45 43  1  0  0  0  0
 46 43  1  0  0  0  0
 46 48  1  0  0  0  0
 47 46  1  0  0  0  0
 49 46  1  0  0  0  0
 50  3  1  0  0  0  0
 50 52  1  0  0  0  0
 51 50  1  0  0  0  0
 53 50  1  0  0  0  0
 53 55  1  0  0  0  0
 54 53  1  0  0  0  0
 56 53  1  0  0  0  0
 56 59  1  0  0  0  0
 57 56  1  0  0  0  0
 58 56  1  0  0  0  0
 60 62  1  0  0  0  0
 60 61  1  0  0  0  0
 60 63  1  0  0  0  0
 63 66  1  0  0  0  0
 64 63  1  0  0  0  0
 65 63  1  0  0  0  0
 66 68  1  0  0  0  0
 66 67  1  0  0  0  0
 66 69  1  0  0  0  0
M  END
$$$$
