CSD_code = YAMKEF | q = 0 | S = 0 | Stoichiometry = C26H16Cl2Zr | MND = 12
 OpenBabel04212202123D

 45 52  0  0  1  0  0  0  0  0999 V2000
    2.6421    3.8304    9.1344 Zr  0  0  0  0  0  0  0  0  0  0  0  0
    0.8577    5.1100    8.3386 Cl  0  0  0  0  0  0  0  0  0  0  0  0
    3.9022    5.7047    9.6937 Cl  0  0  0  0  0  0  0  0  0  0  0  0
    4.1414    2.0813    8.2018 C   0  0  0  0  0  0  0  0  0  0  0  0
    4.6208    3.3312    7.7478 C   0  0  0  0  0  3  0  0  0  0  0  0
    3.6408    3.8910    6.8933 C   0  0  1  0  0  0  0  0  0  0  0  0
    2.5603    2.9797    6.8119 C   0  0  0  0  0  3  0  0  0  0  0  0
    2.8660    1.8645    7.6224 C   0  0  0  0  0  0  0  0  0  0  0  0
    3.1105    2.8685   11.2299 C   0  0  0  0  0  0  0  0  0  0  0  0
    2.1935    3.9456   11.6204 C   0  0  0  0  0  0  0  0  0  0  0  0
    2.1318    4.9270   12.6378 C   0  0  0  0  0  0  0  0  0  0  0  0
    0.9090    5.4071   13.1156 C   0  0  0  0  0  0  0  0  0  0  0  0
   -0.3156    4.9587   12.6079 C   0  0  0  0  0  0  0  0  0  0  0  0
   -1.7303    4.8439   13.1755 C   0  0  0  0  0  0  0  0  0  0  0  0
   -2.2855    3.6138   12.4593 C   0  0  0  0  0  0  0  0  0  0  0  0
   -3.1905    2.6203   12.7975 C   0  0  0  0  0  0  0  0  0  0  0  0
   -3.1289    1.3395   12.2068 C   0  0  0  0  0  0  0  0  0  0  0  0
   -2.1622    1.0261   11.2647 C   0  0  0  0  0  0  0  0  0  0  0  0
   -1.4868   -0.2697   10.8201 C   0  0  0  0  0  0  0  0  0  0  0  0
   -0.0882    0.1985   10.4194 C   0  0  0  0  0  0  0  0  0  0  0  0
    1.1831   -0.3806   10.4953 C   0  0  0  0  0  0  0  0  0  0  0  0
    2.3452    0.3883   10.6025 C   0  0  0  0  0  0  0  0  0  0  0  0
    2.2995    1.8032   10.6471 C   0  0  0  0  0  0  0  0  0  0  0  0
    1.0133    2.3760   10.3589 C   0  0  0  0  0  0  0  0  0  0  0  0
    0.9476    3.6677   10.9753 C   0  0  0  0  0  0  0  0  0  0  0  0
   -0.2563    4.1446   11.4844 C   0  0  0  0  0  0  0  0  0  0  0  0
   -1.4277    3.3348   11.3923 C   0  0  0  0  0  0  0  0  0  0  0  0
   -1.3684    2.0830   10.8116 C   0  0  0  0  0  0  0  0  0  0  0  0
   -0.1326    1.5828   10.2973 C   0  0  0  0  0  0  0  0  0  0  0  0
    4.7128    1.3548    8.7672 H   0  0  0  0  0  0  0  0  0  0  0  0
    5.6065    3.7414    7.9354 H   0  0  0  0  0  0  0  0  0  0  0  0
    3.7417    4.8100    6.3255 H   0  0  0  0  0  0  0  0  0  0  0  0
    1.6989    3.0758    6.1610 H   0  0  0  0  0  0  0  0  0  0  0  0
    2.2908    0.9475    7.6783 H   0  0  0  0  0  0  0  0  0  0  0  0
    4.0665    2.6998   11.7187 H   0  0  0  0  0  0  0  0  0  0  0  0
    3.0350    5.2200   13.1561 H   0  0  0  0  0  0  0  0  0  0  0  0
    0.9289    6.0542   13.9814 H   0  0  0  0  0  0  0  0  0  0  0  0
   -1.7225    4.7094   14.2572 H   0  0  0  0  0  0  0  0  0  0  0  0
   -2.3215    5.7352   12.9505 H   0  0  0  0  0  0  0  0  0  0  0  0
   -3.8781    2.7608   13.6197 H   0  0  0  0  0  0  0  0  0  0  0  0
   -3.7721    0.5695   12.6094 H   0  0  0  0  0  0  0  0  0  0  0  0
   -2.0127   -0.7233    9.9756 H   0  0  0  0  0  0  0  0  0  0  0  0
   -1.4522   -1.0019   11.6267 H   0  0  0  0  0  0  0  0  0  0  0  0
    1.2796   -1.4519   10.6040 H   0  0  0  0  0  0  0  0  0  0  0  0
    3.2753   -0.1262   10.8052 H   0  0  0  0  0  0  0  0  0  0  0  0
  1  3  1  0  0  0  0
  1  9  1  0  0  0  0
  2  1  1  0  0  0  0
  4 30  1  0  0  0  0
  5 31  1  0  0  0  0
  5  4  1  0  0  0  0
  6 32  1  6  0  0  0
  6  5  1  0  0  0  0
  6  1  1  0  0  0  0
  7  6  1  0  0  0  0
  7  8  1  0  0  0  0
  8 34  1  0  0  0  0
  8  4  2  0  0  0  0
  9 10  1  0  0  0  0
  9 35  1  0  0  0  0
 10 11  1  0  0  0  0
 11 12  2  0  0  0  0
 11 36  1  0  0  0  0
 12 37  1  0  0  0  0
 13 12  1  0  0  0  0
 13 14  1  0  0  0  0
 14 38  1  0  0  0  0
 15 16  1  0  0  0  0
 15 14  1  0  0  0  0
 16 40  1  0  0  0  0
 17 41  1  0  0  0  0
 17 16  2  0  0  0  0
 18 17  1  0  0  0  0
 19 18  1  0  0  0  0
 19 43  1  0  0  0  0
 20 21  1  0  0  0  0
 20 19  1  0  0  0  0
 21 22  2  0  0  0  0
 21 44  1  0  0  0  0
 22 23  1  0  0  0  0
 22 45  1  0  0  0  0
 23  9  1  0  0  0  0
 24 23  2  0  0  0  0
 24 25  1  0  0  0  0
 25 26  1  0  0  0  0
 25 10  2  0  0  0  0
 26 13  2  0  0  0  0
 27 26  1  0  0  0  0
 27 15  2  0  0  0  0
 28 18  2  0  0  0  0
 28 27  1  0  0  0  0
 29 24  1  0  0  0  0
 29 20  2  0  0  0  0
 29 28  1  0  0  0  0
 33  7  1  0  0  0  0
 39 14  1  0  0  0  0
 42 19  1  0  0  0  0
M  END
$$$$
