CSD_code = YAMKIJ | q = 0 | S = 0 | Stoichiometry = C31H26Cl2Zr | MND = 12
 OpenBabel04212202123D

 60 67  0  0  1  0  0  0  0  0999 V2000
    1.7450    4.0061    6.8254 Zr  0  0  0  0  0  0  0  0  0  0  0  0
    3.2280    5.6950    7.4809 Cl  0  0  0  0  0  0  0  0  0  0  0  0
   -0.5709    4.7186    7.3791 C   0  0  0  0  0  0  0  0  0  0  0  0
    0.3002    5.1576    8.4144 C   0  0  0  0  0  0  0  0  0  0  0  0
    0.8516    4.0060    9.0521 C   0  0  2  0  0  0  0  0  0  0  0  0
   -1.4422    5.6475    6.5790 C   0  0  0  0  0  0  0  0  0  0  0  0
    0.4728    6.5951    8.8164 C   0  0  0  0  0  0  0  0  0  0  0  0
    1.8168    4.0061   10.2049 C   0  0  0  0  0  0  0  0  0  0  0  0
    0.7601    4.0060    4.7004 C   0  0  0  0  0  0  0  0  0  0  0  0
    1.6164    2.8244    4.5830 C   0  0  0  0  0  0  0  0  0  0  0  0
    1.4810    1.5035    4.0894 C   0  0  0  0  0  0  0  0  0  0  0  0
    2.5613    0.8134    3.5291 C   0  0  0  0  0  0  0  0  0  0  0  0
    3.8364    1.3787    3.4368 C   0  0  0  0  0  0  0  0  0  0  0  0
    5.0263    1.1836    2.4966 C   0  0  0  0  0  0  0  0  0  0  0  0
    5.6509    2.5777    2.4442 C   0  0  0  0  0  0  0  0  0  0  0  0
    6.3401    3.2996    1.4830 C   0  0  0  0  0  0  0  0  0  0  0  0
    2.9667    3.2946    4.6640 C   0  0  0  0  0  0  0  0  0  0  0  0
    4.0183    2.5952    4.0836 C   0  0  0  0  0  0  0  0  0  0  0  0
    5.0997    3.3155    3.4946 C   0  0  0  0  0  0  0  0  0  0  0  0
   -2.1495    6.1531    7.2396 H   0  0  0  0  0  0  0  0  0  0  0  0
   -0.8465    6.4174    6.0832 H   0  0  0  0  0  0  0  0  0  0  0  0
   -2.0167    5.1114    5.8267 H   0  0  0  0  0  0  0  0  0  0  0  0
    1.2888    6.7072    9.5262 H   0  0  0  0  0  0  0  0  0  0  0  0
    0.6884    7.2218    7.9481 H   0  0  0  0  0  0  0  0  0  0  0  0
   -0.4419    6.9658    9.2848 H   0  0  0  0  0  0  0  0  0  0  0  0
    2.4571    3.1232   10.1666 H   0  0  0  0  0  0  0  0  0  0  0  0
    1.2858    4.0060   11.1596 H   0  0  0  0  0  0  0  0  0  0  0  0
   -0.2771    4.0060    4.3841 H   0  0  0  0  0  0  0  0  0  0  0  0
    0.4974    1.0597    3.9944 H   0  0  0  0  0  0  0  0  0  0  0  0
    2.3557   -0.1355    3.0530 H   0  0  0  0  0  0  0  0  0  0  0  0
    5.7305    0.4487    2.8954 H   0  0  0  0  0  0  0  0  0  0  0  0
    4.7107    0.8464    1.5088 H   0  0  0  0  0  0  0  0  0  0  0  0
    6.7828    2.7988    0.6331 H   0  0  0  0  0  0  0  0  0  0  0  0
   -0.5709    3.2934    7.3791 C   0  0  0  0  0  0  0  0  0  0  0  0
    0.3004    2.8544    8.4144 C   0  0  0  0  0  0  0  0  0  0  0  0
   -1.4421    2.3644    6.5790 C   0  0  0  0  0  0  0  0  0  0  0  0
    0.4730    1.4169    8.8164 C   0  0  0  0  0  0  0  0  0  0  0  0
   -2.1494    1.8588    7.2396 H   0  0  0  0  0  0  0  0  0  0  0  0
   -0.8463    1.5946    6.0832 H   0  0  0  0  0  0  0  0  0  0  0  0
   -2.0166    2.9005    5.8267 H   0  0  0  0  0  0  0  0  0  0  0  0
    1.2890    1.3049    9.5263 H   0  0  0  0  0  0  0  0  0  0  0  0
    0.6884    0.7902    7.9481 H   0  0  0  0  0  0  0  0  0  0  0  0
   -0.4417    1.0463    9.2849 H   0  0  0  0  0  0  0  0  0  0  0  0
    2.4569    4.8891   10.1666 H   0  0  0  0  0  0  0  0  0  0  0  0
    1.6165    5.1876    4.5830 C   0  0  0  0  0  0  0  0  0  0  0  0
    1.4811    6.5085    4.0894 C   0  0  0  0  0  0  0  0  0  0  0  0
    2.5614    7.1985    3.5292 C   0  0  0  0  0  0  0  0  0  0  0  0
    3.8365    6.6333    3.4369 C   0  0  0  0  0  0  0  0  0  0  0  0
    5.0264    6.8284    2.4968 C   0  0  0  0  0  0  0  0  0  0  0  0
    5.6511    5.4344    2.4443 C   0  0  0  0  0  0  0  0  0  0  0  0
    6.3402    4.7124    1.4831 C   0  0  0  0  0  0  0  0  0  0  0  0
    2.9668    4.7174    4.6641 C   0  0  0  0  0  0  0  0  0  0  0  0
    4.0184    5.4168    4.0837 C   0  0  0  0  0  0  0  0  0  0  0  0
    5.0998    4.6964    3.4947 C   0  0  0  0  0  0  0  0  0  0  0  0
    0.4975    6.9523    3.9942 H   0  0  0  0  0  0  0  0  0  0  0  0
    2.3558    8.1474    3.0530 H   0  0  0  0  0  0  0  0  0  0  0  0
    5.7307    7.5633    2.8958 H   0  0  0  0  0  0  0  0  0  0  0  0
    4.7110    7.1658    1.5091 H   0  0  0  0  0  0  0  0  0  0  0  0
    6.7830    5.2133    0.6332 H   0  0  0  0  0  0  0  0  0  0  0  0
    3.2274    2.3165    7.4826 Cl  0  0  0  0  0  0  0  0  0  0  0  0
  1  2  1  0  0  0  0
  1 60  1  0  0  0  0
  1  5  1  0  0  0  0
  3  4  2  0  0  0  0
  4  7  1  0  0  0  0
  4  5  1  0  0  0  0
  5  8  1  1  0  0  0
  6 20  1  0  0  0  0
  6  3  1  0  0  0  0
  7 25  1  0  0  0  0
  7 23  1  0  0  0  0
  8 27  1  0  0  0  0
  9  1  1  0  0  0  0
 10 17  1  0  0  0  0
 10  9  1  0  0  0  0
 11 10  2  0  0  0  0
 12 11  1  0  0  0  0
 13 12  2  0  0  0  0
 13 18  1  0  0  0  0
 14 31  1  0  0  0  0
 14 13  1  0  0  0  0
 15 14  1  0  0  0  0
 15 19  1  0  0  0  0
 16 51  1  0  0  0  0
 16 15  2  0  0  0  0
 17 52  1  0  0  0  0
 18 17  2  0  0  0  0
 19 54  2  0  0  0  0
 19 18  1  0  0  0  0
 21  6  1  0  0  0  0
 22  6  1  0  0  0  0
 24  7  1  0  0  0  0
 26  8  1  0  0  0  0
 28  9  1  0  0  0  0
 29 11  1  0  0  0  0
 30 12  1  0  0  0  0
 32 14  1  0  0  0  0
 33 16  1  0  0  0  0
 34  3  1  0  0  0  0
 34 35  2  0  0  0  0
 35 37  1  0  0  0  0
 35  5  1  0  0  0  0
 36 38  1  0  0  0  0
 36 34  1  0  0  0  0
 37 43  1  0  0  0  0
 37 41  1  0  0  0  0
 39 36  1  0  0  0  0
 40 36  1  0  0  0  0
 42 37  1  0  0  0  0
 44  8  1  0  0  0  0
 45 52  1  0  0  0  0
 45  9  1  0  0  0  0
 46 45  2  0  0  0  0
 47 46  1  0  0  0  0
 48 47  2  0  0  0  0
 48 53  1  0  0  0  0
 49 57  1  0  0  0  0
 49 48  1  0  0  0  0
 50 49  1  0  0  0  0
 50 54  1  0  0  0  0
 51 50  2  0  0  0  0
 53 52  2  0  0  0  0
 54 53  1  0  0  0  0
 55 46  1  0  0  0  0
 56 47  1  0  0  0  0
 58 49  1  0  0  0  0
 59 51  1  0  0  0  0
M  END
$$$$
