CSD_code = YAMLUV | q = 0 | S = 0 | Stoichiometry = C11H12AuBrN2 | MND = 2
 OpenBabel04212202123D

 27 28  0  0  1  0  0  0  0  0999 V2000
    0.7709    3.5528    3.3567 Au  0  0  0  0  0  0  0  0  0  0  0  0
   -1.0034    4.9015    4.1365 Br  0  0  0  0  0  0  0  0  0  0  0  0
    3.8118    2.5490    4.6226 C   0  0  0  0  0  0  0  0  0  0  0  0
    4.7734    3.0599    4.5517 H   0  0  0  0  0  0  0  0  0  0  0  0
    3.8980    1.7309    5.3400 H   0  0  0  0  0  0  0  0  0  0  0  0
    3.0569    3.2521    4.9724 H   0  0  0  0  0  0  0  0  0  0  0  0
    2.3165    1.6859    1.5339 N   0  0  0  0  0  0  0  0  0  0  0  0
    0.5100    0.3776    0.5762 C   0  0  0  0  0  0  0  0  0  0  0  0
    2.2794    2.3665    2.6930 C   0  0  2  0  0  3  0  0  0  0  0  0
    3.4606    0.9409    1.4534 C   0  0  0  0  0  0  0  0  0  0  0  0
    3.6811    0.3177    0.6120 H   0  0  0  0  0  0  0  0  0  0  0  0
    4.1574    1.1724    2.5908 C   0  0  0  0  0  0  0  0  0  0  0  0
    5.1024    0.7937    2.9211 H   0  0  0  0  0  0  0  0  0  0  0  0
    3.4162    2.0482    3.3372 N   0  0  0  0  0  0  0  0  0  0  0  0
    1.2758    1.6780    0.5340 C   0  0  0  0  0  0  0  0  0  0  0  0
    1.7271    1.8245   -0.4515 H   0  0  0  0  0  0  0  0  0  0  0  0
    0.6071    2.5171    0.7499 H   0  0  0  0  0  0  0  0  0  0  0  0
    0.5708   -0.5220   -0.4779 C   0  0  0  0  0  0  0  0  0  0  0  0
    1.1541   -0.2836   -1.3563 H   0  0  0  0  0  0  0  0  0  0  0  0
   -0.1225   -1.7188   -0.4147 C   0  0  0  0  0  0  0  0  0  0  0  0
   -0.0745   -2.4106   -1.2425 H   0  0  0  0  0  0  0  0  0  0  0  0
   -0.8739   -2.0270    0.7058 C   0  0  0  0  0  0  0  0  0  0  0  0
   -1.4142   -2.9603    0.7546 H   0  0  0  0  0  0  0  0  0  0  0  0
   -0.9351   -1.1340    1.7630 C   0  0  0  0  0  0  0  0  0  0  0  0
   -1.5239   -1.3675    2.6371 H   0  0  0  0  0  0  0  0  0  0  0  0
   -0.2463    0.0630    1.6985 C   0  0  0  0  0  0  0  0  0  0  0  0
   -0.2987    0.7655    2.5188 H   0  0  0  0  0  0  0  0  0  0  0  0
  1  2  1  0  0  0  0
  3  6  1  0  0  0  0
  3  5  1  0  0  0  0
  4  3  1  0  0  0  0
  7  9  1  0  0  0  0
  8 26  1  0  0  0  0
  9 14  1  0  0  0  0
  9  1  1  1  0  0  0
 10  7  1  0  0  0  0
 10 12  2  0  0  0  0
 11 10  1  0  0  0  0
 12 13  1  0  0  0  0
 12 14  1  0  0  0  0
 14  3  1  0  0  0  0
 15  8  1  0  0  0  0
 15 17  1  0  0  0  0
 15  7  1  0  0  0  0
 16 15  1  0  0  0  0
 18 20  1  0  0  0  0
 18  8  2  0  0  0  0
 19 18  1  0  0  0  0
 20 22  2  0  0  0  0
 21 20  1  0  0  0  0
 22 23  1  0  0  0  0
 22 24  1  0  0  0  0
 24 25  1  0  0  0  0
 26 24  2  0  0  0  0
 26 27  1  0  0  0  0
M  END
$$$$
