CSD_code = YAMNAD | q = 1 | S = 0 | Stoichiometry = C22H24AuBr2N4(1+) | MND = 4
 OpenBabel04212202123D

 53 56  0  0  1  0  0  0  0  0999 V2000
   -3.9495   -2.2351    3.4055 Au  0  0  0  0  0  0  0  0  0  0  0  0
   -2.7762   -1.4374    5.4099 Br  0  0  0  0  0  0  0  0  0  0  0  0
   -5.1339   -3.0910    1.4370 Br  0  0  0  0  0  0  0  0  0  0  0  0
   -1.7052   -1.8767    1.4281 N   0  0  0  0  0  0  0  0  0  0  0  0
   -2.4254    0.0379    2.1080 N   0  0  0  0  0  0  0  0  0  0  0  0
   -5.2062   -4.6165    4.7386 N   0  0  0  0  0  0  0  0  0  0  0  0
   -6.1480   -2.8020    5.4191 N   0  0  0  0  0  0  0  0  0  0  0  0
   -2.6034   -1.2850    2.2308 C   0  0  2  0  0  3  0  0  0  0  0  0
   -1.5400   -3.2939    1.2402 C   0  0  0  0  0  0  0  0  0  0  0  0
   -0.9665   -0.9227    0.7924 C   0  0  0  0  0  0  0  0  0  0  0  0
   -1.4212    0.2823    1.2198 C   0  0  0  0  0  0  0  0  0  0  0  0
   -3.1794    1.0535    2.8037 C   0  0  0  0  0  0  0  0  0  0  0  0
   -4.6707    0.9116    2.6041 C   0  0  0  0  0  0  0  0  0  0  0  0
   -5.1951    0.4405    1.4062 C   0  0  0  0  0  0  0  0  0  0  0  0
   -6.5656    0.3774    1.2199 C   0  0  0  0  0  0  0  0  0  0  0  0
   -7.4227    0.8084    2.2174 C   0  0  0  0  0  0  0  0  0  0  0  0
   -6.9068    1.2908    3.4087 C   0  0  0  0  0  0  0  0  0  0  0  0
   -5.5373    1.3328    3.6067 C   0  0  0  0  0  0  0  0  0  0  0  0
   -5.2100   -3.2806    4.5952 C   0  0  0  0  0  0  0  0  0  0  0  0
   -4.3539   -5.5404    4.0378 C   0  0  0  0  0  0  0  0  0  0  0  0
   -6.1550   -4.9759    5.6507 C   0  0  0  0  0  0  0  0  0  0  0  0
   -6.7494   -3.8344    6.0778 C   0  0  0  0  0  0  0  0  0  0  0  0
   -6.5470   -1.4231    5.5728 C   0  0  0  0  0  0  0  0  0  0  0  0
   -7.9808   -1.2344    5.1357 C   0  0  0  0  0  0  0  0  0  0  0  0
   -8.8830   -0.5653    5.9501 C   0  0  0  0  0  0  0  0  0  0  0  0
  -10.1922   -0.3855    5.5368 C   0  0  0  0  0  0  0  0  0  0  0  0
  -10.6093   -0.8840    4.3143 C   0  0  0  0  0  0  0  0  0  0  0  0
   -9.7135   -1.5595    3.5018 C   0  0  0  0  0  0  0  0  0  0  0  0
   -8.4024   -1.7298    3.9081 C   0  0  0  0  0  0  0  0  0  0  0  0
   -2.3689   -3.7030    0.6584 H   0  0  0  0  0  0  0  0  0  0  0  0
   -1.4966   -3.8026    2.2039 H   0  0  0  0  0  0  0  0  0  0  0  0
   -0.6111   -3.4767    0.7048 H   0  0  0  0  0  0  0  0  0  0  0  0
   -0.1891   -1.1662    0.0985 H   0  0  0  0  0  0  0  0  0  0  0  0
   -1.1085    1.2734    0.9645 H   0  0  0  0  0  0  0  0  0  0  0  0
   -2.8524    2.0261    2.4234 H   0  0  0  0  0  0  0  0  0  0  0  0
   -2.9378    1.0151    3.8718 H   0  0  0  0  0  0  0  0  0  0  0  0
   -4.5380    0.1301    0.6056 H   0  0  0  0  0  0  0  0  0  0  0  0
   -6.9583   -0.0012    0.2892 H   0  0  0  0  0  0  0  0  0  0  0  0
   -8.4900    0.7765    2.0663 H   0  0  0  0  0  0  0  0  0  0  0  0
   -7.5715    1.6355    4.1856 H   0  0  0  0  0  0  0  0  0  0  0  0
   -5.1340    1.7153    4.5338 H   0  0  0  0  0  0  0  0  0  0  0  0
   -4.5931   -5.5491    2.9724 H   0  0  0  0  0  0  0  0  0  0  0  0
   -3.3057   -5.2672    4.1684 H   0  0  0  0  0  0  0  0  0  0  0  0
   -4.5069   -6.5396    4.4390 H   0  0  0  0  0  0  0  0  0  0  0  0
   -6.3315   -5.9957    5.9228 H   0  0  0  0  0  0  0  0  0  0  0  0
   -7.5392   -3.6757    6.7820 H   0  0  0  0  0  0  0  0  0  0  0  0
   -5.8845   -0.7986    4.9634 H   0  0  0  0  0  0  0  0  0  0  0  0
   -6.4249   -1.1351    6.6210 H   0  0  0  0  0  0  0  0  0  0  0  0
   -8.5608   -0.1785    6.9060 H   0  0  0  0  0  0  0  0  0  0  0  0
  -10.8868    0.1395    6.1740 H   0  0  0  0  0  0  0  0  0  0  0  0
  -11.6312   -0.7486    3.9960 H   0  0  0  0  0  0  0  0  0  0  0  0
  -10.0316   -1.9495    2.5473 H   0  0  0  0  0  0  0  0  0  0  0  0
   -7.7067   -2.2468    3.2620 H   0  0  0  0  0  0  0  0  0  0  0  0
  1 19  2  0  0  0  0
  1  2  1  0  0  0  0
  3  1  1  0  0  0  0
  4  8  1  0  0  0  0
  5  8  1  0  0  0  0
  5 12  1  0  0  0  0
  6 21  1  0  0  0  0
  7 23  1  0  0  0  0
  7 22  1  0  0  0  0
  8  1  1  1  0  0  0
  9  4  1  0  0  0  0
  9 31  1  0  0  0  0
 10 11  2  0  0  0  0
 10  4  1  0  0  0  0
 11  5  1  0  0  0  0
 12 36  1  0  0  0  0
 13 12  1  0  0  0  0
 13 18  1  0  0  0  0
 14 13  2  0  0  0  0
 15 14  1  0  0  0  0
 15 16  2  0  0  0  0
 16 17  1  0  0  0  0
 17 18  2  0  0  0  0
 17 40  1  0  0  0  0
 18 41  1  0  0  0  0
 19  6  1  0  0  0  0
 19  7  1  0  0  0  0
 20 43  1  0  0  0  0
 20 44  1  0  0  0  0
 20  6  1  0  0  0  0
 21 45  1  0  0  0  0
 21 22  2  0  0  0  0
 22 46  1  0  0  0  0
 23 48  1  0  0  0  0
 24 23  1  0  0  0  0
 24 25  1  0  0  0  0
 25 49  1  0  0  0  0
 26 25  2  0  0  0  0
 26 50  1  0  0  0  0
 27 26  1  0  0  0  0
 28 29  1  0  0  0  0
 28 27  2  0  0  0  0
 29 24  2  0  0  0  0
 30  9  1  0  0  0  0
 32  9  1  0  0  0  0
 33 10  1  0  0  0  0
 34 11  1  0  0  0  0
 35 12  1  0  0  0  0
 37 14  1  0  0  0  0
 38 15  1  0  0  0  0
 39 16  1  0  0  0  0
 42 20  1  0  0  0  0
 47 23  1  0  0  0  0
 51 27  1  0  0  0  0
 52 28  1  0  0  0  0
 53 29  1  0  0  0  0
M  END
$$$$
