CSD_code = YAMQIO | q = 0 | S = 0 | Stoichiometry = C19H30I2N5Rh | MND = 6
 OpenBabel04212202123D

 57 60  0  0  1  0  0  0  0  0999 V2000
    7.0428    6.7636    5.1585 Rh  0  0  0  0  0  0  0  0  0  0  0  0
    8.4199    7.3214    7.4273 I   0  0  0  0  0  0  0  0  0  0  0  0
    8.4824    8.3864    3.5213 I   0  0  0  0  0  0  0  0  0  0  0  0
    5.6619    5.6017    2.5919 N   0  0  0  0  0  0  0  0  0  0  0  0
    4.8948    7.4271    3.4305 N   0  0  0  0  0  0  0  0  0  0  0  0
    4.8246    6.4670    6.8934 N   0  0  0  0  0  0  0  0  0  0  0  0
    5.5961    4.4653    6.7356 N   0  0  0  0  0  0  0  0  0  0  0  0
    8.4737    5.2811    4.7582 N   0  0  0  0  0  2  0  0  0  0  0  0
    5.8368    6.4827    3.5969 C   0  0  2  0  0  3  0  0  0  0  0  0
    4.6249    6.0155    1.7943 C   0  0  0  0  0  0  0  0  0  0  0  0
    4.3193    5.4630    0.9299 H   0  0  0  0  0  0  0  0  0  0  0  0
    4.1420    7.1641    2.3232 C   0  0  0  0  0  0  0  0  0  0  0  0
    3.3425    7.8000    2.0032 H   0  0  0  0  0  0  0  0  0  0  0  0
    4.8777    8.5900    4.2843 C   0  0  0  0  0  0  0  0  0  0  0  0
    3.8385    8.8571    4.5110 H   0  0  0  0  0  0  0  0  0  0  0  0
    5.3344    9.4219    3.7346 H   0  0  0  0  0  0  0  0  0  0  0  0
    5.6974    8.2953    5.5518 C   0  0  1  0  0  0  0  0  0  0  0  0
    6.2329    9.2152    5.8207 H   0  0  0  0  0  0  0  0  0  0  0  0
    4.8172    7.9027    6.7500 C   0  0  0  0  0  0  0  0  0  0  0  0
    5.2292    8.3373    7.6688 H   0  0  0  0  0  0  0  0  0  0  0  0
    3.7825    8.2487    6.6396 H   0  0  0  0  0  0  0  0  0  0  0  0
    5.7955    5.7330    6.3222 C   0  0  1  0  0  3  0  0  0  0  0  0
    4.0242    5.6822    7.6716 C   0  0  0  0  0  0  0  0  0  0  0  0
    3.1945    6.0711    8.2250 H   0  0  0  0  0  0  0  0  0  0  0  0
    4.5089    4.4224    7.5717 C   0  0  0  0  0  0  0  0  0  0  0  0
    4.1721    3.5094    8.0177 H   0  0  0  0  0  0  0  0  0  0  0  0
    6.5087    4.4754    2.2945 C   0  0  0  0  0  0  0  0  0  0  0  0
    5.9094    3.7094    1.7936 H   0  0  0  0  0  0  0  0  0  0  0  0
    6.8830    4.0664    3.2375 H   0  0  0  0  0  0  0  0  0  0  0  0
    7.6927    4.8923    1.4187 C   0  0  0  0  0  0  0  0  0  0  0  0
    8.2032    5.7302    1.8972 H   0  0  0  0  0  0  0  0  0  0  0  0
    7.3274    5.2383    0.4496 H   0  0  0  0  0  0  0  0  0  0  0  0
    8.6791    3.7462    1.2223 C   0  0  0  0  0  0  0  0  0  0  0  0
    8.9924    3.3727    2.2012 H   0  0  0  0  0  0  0  0  0  0  0  0
    8.1878    2.9225    0.6983 H   0  0  0  0  0  0  0  0  0  0  0  0
    9.9007    4.2000    0.4334 C   0  0  0  0  0  0  0  0  0  0  0  0
    9.6088    4.5348   -0.5589 H   0  0  0  0  0  0  0  0  0  0  0  0
   10.6133    3.3857    0.3246 H   0  0  0  0  0  0  0  0  0  0  0  0
   10.3909    5.0296    0.9374 H   0  0  0  0  0  0  0  0  0  0  0  0
    6.4525    3.3359    6.4738 C   0  0  0  0  0  0  0  0  0  0  0  0
    6.7812    3.3820    5.4312 H   0  0  0  0  0  0  0  0  0  0  0  0
    5.8654    2.4242    6.6174 H   0  0  0  0  0  0  0  0  0  0  0  0
    7.6785    3.3305    7.3922 C   0  0  0  0  0  0  0  0  0  0  0  0
    8.3364    2.5170    7.0795 H   0  0  0  0  0  0  0  0  0  0  0  0
    8.2180    4.2695    7.2627 H   0  0  0  0  0  0  0  0  0  0  0  0
    7.3241    3.1680    8.8671 C   0  0  0  0  0  0  0  0  0  0  0  0
    6.8206    2.2093    9.0227 H   0  0  0  0  0  0  0  0  0  0  0  0
    6.6392    3.9634    9.1679 H   0  0  0  0  0  0  0  0  0  0  0  0
    8.5716    3.2457    9.7374 C   0  0  0  0  0  0  0  0  0  0  0  0
    9.2806    2.4671    9.4638 H   0  0  0  0  0  0  0  0  0  0  0  0
    8.3133    3.1234   10.7861 H   0  0  0  0  0  0  0  0  0  0  0  0
    9.0522    4.2129    9.6125 H   0  0  0  0  0  0  0  0  0  0  0  0
    9.6007    5.0959    4.6286 C   0  0  0  0  0  2  0  0  0  0  0  0
   11.0058    4.9158    4.4698 C   0  0  0  0  0  0  0  0  0  0  0  0
   11.4451    4.6213    5.4227 H   0  0  0  0  0  0  0  0  0  0  0  0
   11.4339    5.8711    4.1602 H   0  0  0  0  0  0  0  0  0  0  0  0
   11.2148    4.1605    3.7130 H   0  0  0  0  0  0  0  0  0  0  0  0
  1 17  1  0  0  0  0
  1 22  1  0  0  0  0
  1  2  1  0  0  0  0
  3  1  1  0  0  0  0
  5  9  1  0  0  0  0
  5 14  1  0  0  0  0
  6 23  1  0  0  0  0
  7 25  1  0  0  0  0
  8  1  1  0  0  0  0
  9  4  1  6  0  0  0
  9  1  1  0  0  0  0
 10 12  2  0  0  0  0
 10  4  1  0  0  0  0
 11 10  1  0  0  0  0
 12  5  1  0  0  0  0
 13 12  1  0  0  0  0
 14 15  1  0  0  0  0
 14 17  1  0  0  0  0
 16 14  1  0  0  0  0
 17 18  1  1  0  0  0
 17 19  1  0  0  0  0
 19  6  1  0  0  0  0
 19 20  1  0  0  0  0
 21 19  1  0  0  0  0
 22  7  1  6  0  0  0
 22  6  1  0  0  0  0
 23 24  1  0  0  0  0
 25 23  2  0  0  0  0
 25 26  1  0  0  0  0
 27  4  1  0  0  0  0
 27 29  1  0  0  0  0
 28 27  1  0  0  0  0
 30 31  1  0  0  0  0
 30 27  1  0  0  0  0
 32 30  1  0  0  0  0
 33 30  1  0  0  0  0
 33 34  1  0  0  0  0
 35 33  1  0  0  0  0
 36 39  1  0  0  0  0
 36 33  1  0  0  0  0
 37 36  1  0  0  0  0
 38 36  1  0  0  0  0
 40 42  1  0  0  0  0
 40  7  1  0  0  0  0
 40 43  1  0  0  0  0
 41 40  1  0  0  0  0
 43 46  1  0  0  0  0
 44 43  1  0  0  0  0
 45 43  1  0  0  0  0
 46 47  1  0  0  0  0
 46 48  1  0  0  0  0
 46 49  1  0  0  0  0
 49 51  1  0  0  0  0
 50 49  1  0  0  0  0
 52 49  1  0  0  0  0
 53  8  1  0  0  0  0
 54 53  1  0  0  0  0
 54 55  1  0  0  0  0
 56 54  1  0  0  0  0
 57 54  1  0  0  0  0
M  END
$$$$
