CSD_code = YAMQEK | q = 0 | S = 0 | Stoichiometry = C19H31Br2N4O2Rh | MND = 6
 OpenBabel04212202123D

 59 60  0  0  1  0  0  0  0  0999 V2000
   13.7276    1.1073    8.0106 C   0  0  2  0  0  3  0  0  0  0  0  0
   14.7837    2.1591    6.3539 C   0  0  0  0  0  0  0  0  0  0  0  0
   15.2656    2.9758    5.8579 H   0  0  0  0  0  0  0  0  0  0  0  0
   14.5497    0.8947    5.9447 C   0  0  0  0  0  0  0  0  0  0  0  0
   14.7799    0.4000    5.0241 H   0  0  0  0  0  0  0  0  0  0  0  0
   13.6294   -1.1497    6.9397 C   0  0  0  0  0  0  0  0  0  0  0  0
   13.4183   -1.4423    5.9091 H   0  0  0  0  0  0  0  0  0  0  0  0
   12.7432   -1.3596    7.5422 H   0  0  0  0  0  0  0  0  0  0  0  0
   14.8475   -1.9153    7.4688 C   0  0  0  0  0  0  0  0  0  0  0  0
   15.7191   -1.6946    6.8507 H   0  0  0  0  0  0  0  0  0  0  0  0
   14.6438   -2.9856    7.4095 H   0  0  0  0  0  0  0  0  0  0  0  0
   15.1569   -1.5257    8.9188 C   0  0  0  0  0  0  0  0  0  0  0  0
   16.0263   -2.0782    9.2809 H   0  0  0  0  0  0  0  0  0  0  0  0
   15.3731   -0.4587    8.9996 H   0  0  0  0  0  0  0  0  0  0  0  0
   12.9400   -1.0807    9.9855 C   0  0  2  0  0  3  0  0  0  0  0  0
   12.6323   -3.1114   10.8501 C   0  0  0  0  0  0  0  0  0  0  0  0
   12.1116   -3.8921   11.3646 H   0  0  0  0  0  0  0  0  0  0  0  0
   13.8533   -3.0985   10.2757 C   0  0  0  0  0  0  0  0  0  0  0  0
   14.6031   -3.8584   10.2017 H   0  0  0  0  0  0  0  0  0  0  0  0
   14.3493    3.5348    8.3243 C   0  0  0  0  0  0  0  0  0  0  0  0
   15.3602    3.9358    8.2023 H   0  0  0  0  0  0  0  0  0  0  0  0
   14.1693    3.3702    9.3858 H   0  0  0  0  0  0  0  0  0  0  0  0
   13.3126    4.5202    7.7837 C   0  0  0  0  0  0  0  0  0  0  0  0
   12.3251    4.0641    7.8679 H   0  0  0  0  0  0  0  0  0  0  0  0
   13.5062    4.7253    6.7273 H   0  0  0  0  0  0  0  0  0  0  0  0
   13.3307    5.8211    8.5792 C   0  0  0  0  0  0  0  0  0  0  0  0
   13.1298    5.5915    9.6268 H   0  0  0  0  0  0  0  0  0  0  0  0
   14.3238    6.2738    8.5204 H   0  0  0  0  0  0  0  0  0  0  0  0
   12.2878    6.8051    8.0655 C   0  0  0  0  0  0  0  0  0  0  0  0
   12.4786    7.0591    7.0246 H   0  0  0  0  0  0  0  0  0  0  0  0
   12.3053    7.7215    8.6508 H   0  0  0  0  0  0  0  0  0  0  0  0
   11.2930    6.3712    8.1342 H   0  0  0  0  0  0  0  0  0  0  0  0
   10.7683   -1.5705   11.1827 C   0  0  0  0  0  0  0  0  0  0  0  0
   10.1000   -2.3921   10.9055 H   0  0  0  0  0  0  0  0  0  0  0  0
   10.4030   -0.6524   10.7276 H   0  0  0  0  0  0  0  0  0  0  0  0
   10.8073   -1.4064   12.7029 C   0  0  0  0  0  0  0  0  0  0  0  0
   11.3916   -0.5158   12.9376 H   0  0  0  0  0  0  0  0  0  0  0  0
   11.3071   -2.2702   13.1503 H   0  0  0  0  0  0  0  0  0  0  0  0
    9.4083   -1.2685   13.3000 C   0  0  0  0  0  0  0  0  0  0  0  0
    8.8211   -2.1614   13.0688 H   0  0  0  0  0  0  0  0  0  0  0  0
    9.5077   -1.2112   14.3863 H   0  0  0  0  0  0  0  0  0  0  0  0
    8.6755   -0.0290   12.8005 C   0  0  0  0  0  0  0  0  0  0  0  0
    9.3215    0.8406   12.8854 H   0  0  0  0  0  0  0  0  0  0  0  0
    7.7766    0.1441   13.3882 H   0  0  0  0  0  0  0  0  0  0  0  0
    8.3834   -0.1385   11.7593 H   0  0  0  0  0  0  0  0  0  0  0  0
   11.3659    2.5613   11.0331 C   0  0  1  0  0  3  0  0  0  0  0  0
   10.5721    3.5681   11.8261 C   0  0  0  0  0  0  0  0  0  0  0  0
   10.8507    3.5043   12.8754 H   0  0  0  0  0  0  0  0  0  0  0  0
    9.5128    3.3346   11.7341 H   0  0  0  0  0  0  0  0  0  0  0  0
   10.7612    4.5673   11.4453 H   0  0  0  0  0  0  0  0  0  0  0  0
   14.2816    2.2750    7.6203 N   0  0  0  0  0  0  0  0  0  0  0  0
   13.8952    0.2628    6.9667 N   0  0  0  0  0  0  0  0  0  0  0  0
   12.0820   -1.8736   10.6621 N   0  0  0  0  0  0  0  0  0  0  0  0
   14.0325   -1.8458    9.7555 N   0  0  0  0  0  0  0  0  0  0  0  0
   11.3949    1.3560   11.3879 O   0  0  0  0  0  0  0  0  0  0  0  0
   11.9974    2.9189   10.0085 O   0  0  0  0  0  0  0  0  0  0  0  0
   12.6503    0.9013    9.7095 Rh  0  0  2  0  0  0  0  0  0  0  0  0
   14.6253    1.2783   11.1642 Br  0  0  0  0  0 15  0  0  0  0  0  0
   10.6680    0.5472    8.2578 Br  0  0  0  0  0 15  0  0  0  0  0  0
  1 52  1  6  0  0  0
  1 57  1  0  0  0  0
  2 51  1  0  0  0  0
  3  2  1  0  0  0  0
  4  2  2  0  0  0  0
  4 52  1  0  0  0  0
  5  4  1  0  0  0  0
  6 52  1  0  0  0  0
  6  9  1  0  0  0  0
  6  8  1  0  0  0  0
  7  6  1  0  0  0  0
  9 12  1  0  0  0  0
 10  9  1  0  0  0  0
 11  9  1  0  0  0  0
 12 14  1  0  0  0  0
 12 13  1  0  0  0  0
 12 54  1  0  0  0  0
 15 54  1  1  0  0  0
 15 53  1  0  0  0  0
 16 17  1  0  0  0  0
 18 16  2  0  0  0  0
 19 18  1  0  0  0  0
 20 22  1  0  0  0  0
 21 20  1  0  0  0  0
 23 24  1  0  0  0  0
 23 20  1  0  0  0  0
 23 26  1  0  0  0  0
 25 23  1  0  0  0  0
 26 27  1  0  0  0  0
 28 26  1  0  0  0  0
 29 32  1  0  0  0  0
 29 26  1  0  0  0  0
 29 31  1  0  0  0  0
 30 29  1  0  0  0  0
 33 36  1  0  0  0  0
 34 33  1  0  0  0  0
 35 33  1  0  0  0  0
 36 37  1  0  0  0  0
 36 38  1  0  0  0  0
 36 39  1  0  0  0  0
 39 41  1  0  0  0  0
 40 39  1  0  0  0  0
 42 43  1  0  0  0  0
 42 39  1  0  0  0  0
 42 44  1  0  0  0  0
 45 42  1  0  0  0  0
 46 55  1  0  0  0  0
 46 47  1  6  0  0  0
 47 48  1  0  0  0  0
 49 47  1  0  0  0  0
 50 47  1  0  0  0  0
 51  1  1  0  0  0  0
 51 20  1  0  0  0  0
 53 16  1  0  0  0  0
 53 33  1  0  0  0  0
 54 18  1  0  0  0  0
 56 46  1  0  0  0  0
 57 15  1  0  0  0  0
 57 56  1  1  0  0  0
 57 55  1  0  0  0  0
M  END
$$$$
