CSD_code = YANRUB | q = 0 | S = 0 | Stoichiometry = C15H16Cl2Ti | MND = 12
 OpenBabel04212202123D

 34 37  0  0  1  0  0  0  0  0999 V2000
    5.2234    5.7342    3.5450 Ti  0  0  0  0  0  0  0  0  0  0  0  0
    7.3558    5.1874    3.5539 Cl  0  0  0  0  0  0  0  0  0  0  0  0
    4.5868    3.7540    4.2646 Cl  0  0  0  0  0  0  0  0  0  0  0  0
    4.1495    7.0292    2.0026 C   0  0  1  0  0  0  0  0  0  0  0  0
    5.4615    6.8030    1.5122 C   0  0  0  0  0  3  0  0  0  0  0  0
    5.5700    5.4422    1.1467 C   0  0  0  0  0  0  0  0  0  0  0  0
    4.3590    4.8088    1.4599 C   0  0  0  0  0  0  0  0  0  0  0  0
    3.4911    5.7728    2.0212 C   0  0  0  0  0  3  0  0  0  0  0  0
    4.3282    7.7474    4.1353 C   0  0  1  0  0  0  0  0  0  0  0  0
    3.7325    6.7720    4.9739 C   0  0  0  0  0  3  0  0  0  0  0  0
    4.7210    6.2988    5.8666 C   0  0  0  0  0  0  0  0  0  0  0  0
    5.9332    6.9304    5.5519 C   0  0  0  0  0  0  0  0  0  0  0  0
    5.7069    7.8005    4.4613 C   0  0  0  0  0  3  0  0  0  0  0  0
    3.7370    8.2321    2.8321 C   0  0  0  0  0  0  0  0  0  0  0  0
    2.2261    8.5005    2.8527 C   0  0  0  0  0  0  0  0  0  0  0  0
    1.9583    9.3336    1.5907 C   0  0  0  0  0  0  0  0  0  0  0  0
    3.3211    9.9135    1.1691 C   0  0  0  0  0  0  0  0  0  0  0  0
    4.2793    9.5670    2.3092 C   0  0  0  0  0  0  0  0  0  0  0  0
    6.2154    7.5529    1.3096 H   0  0  0  0  0  0  0  0  0  0  0  0
    6.4182    4.9874    0.6522 H   0  0  0  0  0  0  0  0  0  0  0  0
    4.1056    3.7781    1.2498 H   0  0  0  0  0  0  0  0  0  0  0  0
    2.4569    5.5867    2.2811 H   0  0  0  0  0  0  0  0  0  0  0  0
    2.6784    6.5307    5.0267 H   0  0  0  0  0  0  0  0  0  0  0  0
    4.5536    5.6174    6.6902 H   0  0  0  0  0  0  0  0  0  0  0  0
    6.8658    6.8223    6.0897 H   0  0  0  0  0  0  0  0  0  0  0  0
    6.4355    8.4889    4.0522 H   0  0  0  0  0  0  0  0  0  0  0  0
    1.6298    7.5907    2.8724 H   0  0  0  0  0  0  0  0  0  0  0  0
    1.9914    9.0788    3.7483 H   0  0  0  0  0  0  0  0  0  0  0  0
    1.2342   10.1214    1.7928 H   0  0  0  0  0  0  0  0  0  0  0  0
    1.5527    8.7059    0.7982 H   0  0  0  0  0  0  0  0  0  0  0  0
    3.2736   10.9868    0.9933 H   0  0  0  0  0  0  0  0  0  0  0  0
    3.6622    9.4361    0.2501 H   0  0  0  0  0  0  0  0  0  0  0  0
    4.2100   10.3091    3.1069 H   0  0  0  0  0  0  0  0  0  0  0  0
    5.3135    9.5174    1.9752 H   0  0  0  0  0  0  0  0  0  0  0  0
  1  2  1  0  0  0  0
  1  9  1  0  0  0  0
  1  3  1  0  0  0  0
  4  5  1  6  0  0  0
  4  8  1  0  0  0  0
  4 14  1  0  0  0  0
  4  1  1  0  0  0  0
  6  7  2  0  0  0  0
  6  5  1  0  0  0  0
  7  8  1  0  0  0  0
  8 22  1  0  0  0  0
  9 13  1  1  0  0  0
  9 10  1  0  0  0  0
 10 23  1  0  0  0  0
 10 11  1  0  0  0  0
 11 24  1  0  0  0  0
 12 11  2  0  0  0  0
 12 25  1  0  0  0  0
 13 12  1  0  0  0  0
 14 15  1  0  0  0  0
 14  9  1  0  0  0  0
 15 27  1  0  0  0  0
 15 28  1  0  0  0  0
 16 29  1  0  0  0  0
 16 15  1  0  0  0  0
 17 16  1  0  0  0  0
 17 18  1  0  0  0  0
 18 14  1  0  0  0  0
 18 33  1  0  0  0  0
 19  5  1  0  0  0  0
 20  6  1  0  0  0  0
 21  7  1  0  0  0  0
 26 13  1  0  0  0  0
 30 16  1  0  0  0  0
 31 17  1  0  0  0  0
 32 17  1  0  0  0  0
 34 18  1  0  0  0  0
M  END
$$$$
