CSD_code = YANSOY | q = 0 | S = 0 | Stoichiometry = C23H13Cl2N5O2Ru | MND = 6
 OpenBabel04212202123D

 46 52  0  0  1  0  0  0  0  0999 V2000
    2.2280    6.8678    2.9320 Ru  0  0  0  0  0  0  0  0  0  0  0  0
    3.6065    5.1981    1.9903 Cl  0  0  0  0  0  0  0  0  0  0  0  0
    0.6271    8.4523    3.6770 Cl  0  0  0  0  0  0  0  0  0  0  0  0
    1.0433    4.9788    4.8749 O   0  0  0  0  0  0  0  0  0  0  0  0
    4.1465    6.9789    5.2408 O   0  0  0  0  0  1  0  0  0  0  0  0
    0.0317    5.1342    2.8228 N   0  0  0  0  0  0  0  0  0  0  0  0
    1.0758    6.5714    1.4090 N   0  0  0  0  0  0  0  0  0  0  0  0
    3.0353    8.2163    1.3649 N   0  0  0  0  0  0  0  0  0  0  0  0
    5.9894    9.2780    2.8689 N   0  0  0  0  0  0  0  0  0  0  0  0
    7.8737    9.5152    4.1334 N   0  0  0  0  0  0  0  0  0  0  0  0
    3.4005    7.0132    4.3789 C   0  0  0  0  0  2  0  0  0  0  0  0
    1.1101    5.5175    3.8153 C   0  0  0  0  0  0  0  0  0  0  0  0
   -0.9231    4.2416    3.1178 C   0  0  0  0  0  3  0  0  0  0  0  0
   -1.8645    3.8741    2.1775 C   0  0  0  0  0  0  0  0  0  0  0  0
   -1.8248    4.4130    0.8990 C   0  0  0  0  0  0  0  0  0  0  0  0
   -0.8245    5.3423    0.5731 C   0  0  0  0  0  0  0  0  0  0  0  0
    0.0951    5.6977    1.5901 C   0  0  1  0  0  3  0  0  0  0  0  0
   -0.6270    5.9602   -0.6852 C   0  0  0  0  0  0  0  0  0  0  0  0
    0.4315    6.8152   -0.8675 C   0  0  0  0  0  0  0  0  0  0  0  0
    1.2960    7.1103    0.2013 C   0  0  0  0  0  0  0  0  0  0  0  0
    2.4806    7.9542    0.1616 C   0  0  2  0  0  3  0  0  0  0  0  0
    3.0508    8.4216   -1.0244 C   0  0  0  0  0  0  0  0  0  0  0  0
    4.2382    9.1264   -0.9681 C   0  0  0  0  0  0  0  0  0  0  0  0
    4.7996    9.3922    0.2692 C   0  0  0  0  0  0  0  0  0  0  0  0
    4.1478    8.9461    1.4172 C   0  0  0  0  0  0  0  0  0  0  0  0
    4.6866    9.3140    2.7406 C   0  0  0  0  0  0  0  0  0  0  0  0
    3.8069    9.7455    3.7628 C   0  0  0  0  0  0  0  0  0  0  0  0
    4.3407   10.0868    4.9759 C   0  0  0  0  0  0  0  0  0  0  0  0
    5.7320    9.9862    5.1685 C   0  0  0  0  0  0  0  0  0  0  0  0
    6.5336    9.5903    4.0543 C   0  0  0  0  0  0  0  0  0  0  0  0
    6.3881   10.2700    6.3826 C   0  0  0  0  0  0  0  0  0  0  0  0
    7.7508   10.1643    6.4377 C   0  0  0  0  0  0  0  0  0  0  0  0
    8.4446    9.7871    5.2711 C   0  0  0  0  0  0  0  0  0  0  0  0
   -0.8877    3.8447    4.1227 H   0  0  0  0  0  0  0  0  0  0  0  0
   -2.6243    3.1575    2.4442 H   0  0  0  0  0  0  0  0  0  0  0  0
   -2.5463    4.1213    0.1522 H   0  0  0  0  0  0  0  0  0  0  0  0
   -1.3063    5.7378   -1.4929 H   0  0  0  0  0  0  0  0  0  0  0  0
    0.5946    7.2721   -1.8300 H   0  0  0  0  0  0  0  0  0  0  0  0
    2.5862    8.2026   -1.9719 H   0  0  0  0  0  0  0  0  0  0  0  0
    4.7176    9.4637   -1.8744 H   0  0  0  0  0  0  0  0  0  0  0  0
    5.7267    9.9299    0.3779 H   0  0  0  0  0  0  0  0  0  0  0  0
    2.7480    9.8389    3.5692 H   0  0  0  0  0  0  0  0  0  0  0  0
    3.7112   10.4263    5.7865 H   0  0  0  0  0  0  0  0  0  0  0  0
    5.8040   10.5607    7.2451 H   0  0  0  0  0  0  0  0  0  0  0  0
    8.2953   10.3652    7.3472 H   0  0  0  0  0  0  0  0  0  0  0  0
    9.5245    9.7077    5.2841 H   0  0  0  0  0  0  0  0  0  0  0  0
  1  3  1  0  0  0  0
  1 12  1  0  0  0  0
  1 11  1  0  0  0  0
  2  1  1  0  0  0  0
  6 13  1  0  0  0  0
  6 12  1  0  0  0  0
  7 17  1  0  0  0  0
  7  1  1  0  0  0  0
  8 25  1  0  0  0  0
  8  1  1  0  0  0  0
  9 30  2  0  0  0  0
 10 33  2  0  0  0  0
 11  5  1  0  0  0  0
 12  4  2  0  0  0  0
 13 34  1  0  0  0  0
 14 35  1  0  0  0  0
 14 13  1  0  0  0  0
 15 14  2  0  0  0  0
 16 15  1  0  0  0  0
 17 16  1  6  0  0  0
 17  6  1  0  0  0  0
 18 16  2  0  0  0  0
 19 18  1  0  0  0  0
 19 20  2  0  0  0  0
 20  7  1  0  0  0  0
 21 22  1  6  0  0  0
 21 20  1  0  0  0  0
 21  8  1  0  0  0  0
 22 23  2  0  0  0  0
 23 24  1  0  0  0  0
 24 41  1  0  0  0  0
 24 25  2  0  0  0  0
 25 26  1  0  0  0  0
 26  9  1  0  0  0  0
 26 27  2  0  0  0  0
 27 28  1  0  0  0  0
 28 29  2  0  0  0  0
 28 43  1  0  0  0  0
 29 31  1  0  0  0  0
 30 10  1  0  0  0  0
 30 29  1  0  0  0  0
 31 32  2  0  0  0  0
 31 44  1  0  0  0  0
 32 45  1  0  0  0  0
 33 46  1  0  0  0  0
 33 32  1  0  0  0  0
 36 15  1  0  0  0  0
 37 18  1  0  0  0  0
 38 19  1  0  0  0  0
 39 22  1  0  0  0  0
 40 23  1  0  0  0  0
 42 27  1  0  0  0  0
M  END
$$$$
