CSD_code = YANSAI | q = 0 | S = 0 | Stoichiometry = C16H18Cl2Ti | MND = 12
 OpenBabel04212202123D

 37 40  0  0  1  0  0  0  0  0999 V2000
   -0.3390   14.6782    6.7271 Ti  0  0  0  0  0  0  0  0  0  0  0  0
    1.8129   14.7899    7.1787 Cl  0  0  0  0  0  0  0  0  0  0  0  0
   -0.8586   13.9935    8.7525 Cl  0  0  0  0  0  0  0  0  0  0  0  0
   -1.5125   16.1299    5.4209 C   0  0  2  0  0  0  0  0  0  0  0  0
   -0.2233   16.6921    5.6081 C   0  0  0  0  0  3  0  0  0  0  0  0
   -0.1079   17.0973    6.9575 C   0  0  0  0  0  0  0  0  0  0  0  0
   -1.2904   16.7432    7.6221 C   0  0  0  0  0  0  0  0  0  0  0  0
   -2.1469   16.1145    6.6906 C   0  0  0  0  0  3  0  0  0  0  0  0
   -1.2604   13.9878    4.7589 C   0  0  1  0  0  0  0  0  0  0  0  0
    0.1280   13.7052    4.6842 C   0  0  0  0  0  3  0  0  0  0  0  0
    0.4154   12.6534    5.5836 C   0  0  0  0  0  0  0  0  0  0  0  0
   -0.7683   12.3170    6.2543 C   0  0  0  0  0  0  0  0  0  0  0  0
   -1.7984   13.1584    5.7776 C   0  0  0  0  0  3  0  0  0  0  0  0
   -1.9157   15.2585    4.2423 C   0  0  0  0  0  0  0  0  0  0  0  0
   -1.3288   15.7415    2.9090 C   0  0  0  0  0  0  0  0  0  0  0  0
   -1.9322   17.0865    2.5115 C   0  0  0  0  0  0  0  0  0  0  0  0
   -3.4465   16.9754    2.3774 C   0  0  0  0  0  0  0  0  0  0  0  0
   -4.0477   16.4754    3.6859 C   0  0  0  0  0  0  0  0  0  0  0  0
   -3.4364   15.1324    4.0788 C   0  0  0  0  0  0  0  0  0  0  0  0
    0.5041   16.9154    4.8385 H   0  0  0  0  0  0  0  0  0  0  0  0
    0.7232   17.6447    7.3823 H   0  0  0  0  0  0  0  0  0  0  0  0
   -1.5351   16.9678    8.6518 H   0  0  0  0  0  0  0  0  0  0  0  0
   -3.1652   15.8150    6.9015 H   0  0  0  0  0  0  0  0  0  0  0  0
    0.8334   14.1066    3.9684 H   0  0  0  0  0  0  0  0  0  0  0  0
    1.3699   12.1542    5.6844 H   0  0  0  0  0  0  0  0  0  0  0  0
   -0.8914   11.5116    6.9660 H   0  0  0  0  0  0  0  0  0  0  0  0
   -2.8409   13.0635    6.0519 H   0  0  0  0  0  0  0  0  0  0  0  0
   -0.2444   15.8350    2.9728 H   0  0  0  0  0  0  0  0  0  0  0  0
   -1.5533   14.9972    2.1412 H   0  0  0  0  0  0  0  0  0  0  0  0
   -1.6913   17.8282    3.2765 H   0  0  0  0  0  0  0  0  0  0  0  0
   -1.4958   17.4195    1.5680 H   0  0  0  0  0  0  0  0  0  0  0  0
   -3.6912   16.2773    1.5734 H   0  0  0  0  0  0  0  0  0  0  0  0
   -3.8709   17.9468    2.1184 H   0  0  0  0  0  0  0  0  0  0  0  0
   -3.8503   17.2040    4.4756 H   0  0  0  0  0  0  0  0  0  0  0  0
   -5.1295   16.3703    3.5851 H   0  0  0  0  0  0  0  0  0  0  0  0
   -3.6416   14.3937    3.3003 H   0  0  0  0  0  0  0  0  0  0  0  0
   -3.8990   14.7792    5.0006 H   0  0  0  0  0  0  0  0  0  0  0  0
  1  2  1  0  0  0  0
  1  3  1  0  0  0  0
  4  5  1  6  0  0  0
  4  8  1  0  0  0  0
  4  1  1  0  0  0  0
  5  6  1  0  0  0  0
  6 21  1  0  0  0  0
  6  7  2  0  0  0  0
  7 22  1  0  0  0  0
  8 23  1  0  0  0  0
  8  7  1  0  0  0  0
  9 10  1  6  0  0  0
  9 13  1  0  0  0  0
  9  1  1  0  0  0  0
 10 11  1  0  0  0  0
 11 25  1  0  0  0  0
 11 12  2  0  0  0  0
 12 26  1  0  0  0  0
 13 27  1  0  0  0  0
 13 12  1  0  0  0  0
 14  9  1  0  0  0  0
 14  4  1  0  0  0  0
 15 28  1  0  0  0  0
 15 14  1  0  0  0  0
 16 15  1  0  0  0  0
 16 30  1  0  0  0  0
 17 16  1  0  0  0  0
 17 18  1  0  0  0  0
 18 19  1  0  0  0  0
 18 34  1  0  0  0  0
 19 14  1  0  0  0  0
 19 37  1  0  0  0  0
 20  5  1  0  0  0  0
 24 10  1  0  0  0  0
 29 15  1  0  0  0  0
 31 16  1  0  0  0  0
 32 17  1  0  0  0  0
 33 17  1  0  0  0  0
 35 18  1  0  0  0  0
 36 19  1  0  0  0  0
M  END
$$$$
