CSD_code = YANSOW | q = 0 | S = 0 | Stoichiometry = C16H18Cl2Zr | MND = 12
 OpenBabel04212202123D

 37 40  0  0  1  0  0  0  0  0999 V2000
    0.1777   10.0844    5.0259 Zr  0  0  0  0  0  0  0  0  0  0  0  0
    0.7925   10.7925    2.9053 Cl  0  0  0  0  0  0  0  0  0  0  0  0
   -2.1030   10.0195    4.6084 Cl  0  0  0  0  0  0  0  0  0  0  0  0
    2.0208    8.4982    5.1549 C   0  0  0  0  0  0  0  0  0  0  0  0
    1.1522    7.8835    4.2196 C   0  0  0  0  0  0  0  0  0  0  0  0
   -0.0481    7.5624    4.8829 C   0  0  0  0  0  0  0  0  0  0  0  0
    0.0710    7.9760    6.2330 C   0  0  0  0  0  0  0  0  0  0  0  0
    1.3701    8.5238    6.4195 C   0  0  2  0  0  0  0  0  0  0  0  0
    1.7770    9.4243    7.5875 C   0  0  0  0  0  0  0  0  0  0  0  0
    1.1672    8.9632    8.9205 C   0  0  0  0  0  0  0  0  0  0  0  0
    1.7318    7.6073    9.3377 C   0  0  0  0  0  0  0  0  0  0  0  0
    3.2468    7.6818    9.4866 C   0  0  0  0  0  0  0  0  0  0  0  0
    3.8714    8.1473    8.1765 C   0  0  0  0  0  0  0  0  0  0  0  0
    3.3017    9.5021    7.7628 C   0  0  0  0  0  0  0  0  0  0  0  0
    1.1823   10.7511    7.1114 C   0  0  2  0  0  0  0  0  0  0  0  0
   -0.1924   11.1025    7.2056 C   0  0  0  0  0  3  0  0  0  0  0  0
   -0.4380   12.1791    6.3180 C   0  0  0  0  0  0  0  0  0  0  0  0
    0.7638   12.4752    5.6462 C   0  0  0  0  0  0  0  0  0  0  0  0
    1.7602   11.5835    6.1132 C   0  0  0  0  0  3  0  0  0  0  0  0
    3.0502    8.7694    4.9493 H   0  0  0  0  0  0  0  0  0  0  0  0
    1.4102    7.6140    3.2021 H   0  0  0  0  0  0  0  0  0  0  0  0
   -0.8770    7.0024    4.4658 H   0  0  0  0  0  0  0  0  0  0  0  0
   -0.6664    7.7762    7.0024 H   0  0  0  0  0  0  0  0  0  0  0  0
    1.4023    9.7078    9.6843 H   0  0  0  0  0  0  0  0  0  0  0  0
    0.0814    8.8961    8.8454 H   0  0  0  0  0  0  0  0  0  0  0  0
    1.4812    6.8643    8.5780 H   0  0  0  0  0  0  0  0  0  0  0  0
    1.2773    7.2956   10.2799 H   0  0  0  0  0  0  0  0  0  0  0  0
    3.5013    8.3852   10.2827 H   0  0  0  0  0  0  0  0  0  0  0  0
    3.6438    6.7039    9.7636 H   0  0  0  0  0  0  0  0  0  0  0  0
    4.9550    8.2229    8.2841 H   0  0  0  0  0  0  0  0  0  0  0  0
    3.6581    7.4145    7.3957 H   0  0  0  0  0  0  0  0  0  0  0  0
    3.7803    9.8298    6.8396 H   0  0  0  0  0  0  0  0  0  0  0  0
    3.5242   10.2435    8.5335 H   0  0  0  0  0  0  0  0  0  0  0  0
   -0.9128   10.7209    7.9200 H   0  0  0  0  0  0  0  0  0  0  0  0
   -1.3615   12.7421    6.2508 H   0  0  0  0  0  0  0  0  0  0  0  0
    0.9284   13.3067    4.9711 H   0  0  0  0  0  0  0  0  0  0  0  0
    2.8080   11.6378    5.8407 H   0  0  0  0  0  0  0  0  0  0  0  0
  1  8  1  0  0  0  0
  1 15  1  0  0  0  0
  2  1  1  0  0  0  0
  3  1  1  0  0  0  0
  5  6  1  0  0  0  0
  5  4  2  0  0  0  0
  6  7  2  0  0  0  0
  7  8  1  0  0  0  0
  7 23  1  0  0  0  0
  8  4  1  6  0  0  0
  8  9  1  0  0  0  0
  9 14  1  0  0  0  0
  9 10  1  0  0  0  0
 10 11  1  0  0  0  0
 10 24  1  0  0  0  0
 11 12  1  0  0  0  0
 11 27  1  0  0  0  0
 12 29  1  0  0  0  0
 12 28  1  0  0  0  0
 13 30  1  0  0  0  0
 13 12  1  0  0  0  0
 14 13  1  0  0  0  0
 14 33  1  0  0  0  0
 15 19  1  6  0  0  0
 15 16  1  0  0  0  0
 15  9  1  0  0  0  0
 16 34  1  0  0  0  0
 17 16  1  0  0  0  0
 18 19  1  0  0  0  0
 18 17  2  0  0  0  0
 20  4  1  0  0  0  0
 21  5  1  0  0  0  0
 22  6  1  0  0  0  0
 25 10  1  0  0  0  0
 26 11  1  0  0  0  0
 31 13  1  0  0  0  0
 32 14  1  0  0  0  0
 35 17  1  0  0  0  0
 36 18  1  0  0  0  0
 37 19  1  0  0  0  0
M  END
$$$$
