CSD_code = YANTEP | q = 1 | S = 0 | Stoichiometry = C24H16ClN6ORu(1+) | MND = 6
 OpenBabel04212202123D

 49 55  0  0  1  0  0  0  0  0999 V2000
    8.3496    4.2716    4.0601 Ru  0  0  0  0  0  0  0  0  0  0  0  0
    7.2594    5.9822    2.8807 Cl  0  0  0  0  0  0  0  0  0  0  0  0
    9.7247    6.6669    5.2568 O   0  0  0  0  0  1  0  0  0  0  0  0
    9.2774    2.8825    5.0647 N   0  0  0  0  0  2  0  0  0  0  0  0
    7.7010    5.4149    6.9092 N   0  0  0  0  0  0  0  0  0  0  0  0
    6.7324    4.1739    5.2726 N   0  0  0  0  0  0  0  0  0  0  0  0
    7.2187    3.1149    3.0220 N   0  0  0  0  0  0  0  0  0  0  0  0
    9.5201    3.9978    2.4324 N   0  0  0  0  0  0  0  0  0  0  0  0
   11.2569    5.1763    3.2989 N   0  0  0  0  0  0  0  0  0  0  0  0
    9.2890    5.6867    4.8930 C   0  0  0  0  0  2  0  0  0  0  0  0
    9.8711    2.1367    5.7119 C   0  0  0  0  0  2  0  0  0  0  0  0
   10.6052    1.2101    6.5121 C   0  0  0  0  0  0  0  0  0  0  0  0
    7.6290    6.0811    8.0306 C   0  0  0  0  0  0  0  0  0  0  0  0
    6.4534    6.1855    8.7976 C   0  0  0  0  0  0  0  0  0  0  0  0
    5.3206    5.5464    8.3660 C   0  0  0  0  0  0  0  0  0  0  0  0
    5.3633    4.8178    7.1593 C   0  0  0  0  0  0  0  0  0  0  0  0
    6.5964    4.8054    6.4543 C   0  0  2  0  0  3  0  0  0  0  0  0
    4.2800    4.1112    6.5972 C   0  0  0  0  0  0  0  0  0  0  0  0
    4.4530    3.4553    5.4085 C   0  0  0  0  0  0  0  0  0  0  0  0
    5.6978    3.5103    4.7491 C   0  0  0  0  0  0  0  0  0  0  0  0
    5.9610    2.9104    3.4401 C   0  0  1  0  0  3  0  0  0  0  0  0
    5.0420    2.2538    2.6236 C   0  0  0  0  0  0  0  0  0  0  0  0
    5.4427    1.8526    1.3582 C   0  0  0  0  0  0  0  0  0  0  0  0
    6.7192    2.1549    0.9085 C   0  0  0  0  0  0  0  0  0  0  0  0
    7.5944    2.8133    1.7705 C   0  0  0  0  0  0  0  0  0  0  0  0
    8.9309    3.3149    1.4469 C   0  0  0  0  0  0  0  0  0  0  0  0
    9.5546    3.1521    0.1931 C   0  0  0  0  0  0  0  0  0  0  0  0
   10.7781    3.7195   -0.0400 C   0  0  0  0  0  0  0  0  0  0  0  0
   11.4111    4.4426    0.9920 C   0  0  0  0  0  0  0  0  0  0  0  0
   10.7368    4.5416    2.2382 C   0  0  0  0  0  0  0  0  0  0  0  0
   12.6615    5.0862    0.8853 C   0  0  0  0  0  3  0  0  0  0  0  0
   13.1616    5.7524    1.9734 C   0  0  0  0  0  0  0  0  0  0  0  0
   12.4179    5.7606    3.1685 C   0  0  0  0  0  0  0  0  0  0  0  0
   11.6386    1.1647    6.1680 H   0  0  0  0  0  0  0  0  0  0  0  0
   10.1610    0.2169    6.4426 H   0  0  0  0  0  0  0  0  0  0  0  0
   10.5914    1.5360    7.5523 H   0  0  0  0  0  0  0  0  0  0  0  0
    8.5414    6.5649    8.3514 H   0  0  0  0  0  0  0  0  0  0  0  0
    6.4573    6.7607    9.7093 H   0  0  0  0  0  0  0  0  0  0  0  0
    4.3978    5.5907    8.9251 H   0  0  0  0  0  0  0  0  0  0  0  0
    3.3290    4.1000    7.1075 H   0  0  0  0  0  0  0  0  0  0  0  0
    3.6383    2.9089    4.9629 H   0  0  0  0  0  0  0  0  0  0  0  0
    4.0327    2.0773    2.9556 H   0  0  0  0  0  0  0  0  0  0  0  0
    4.7501    1.3391    0.7104 H   0  0  0  0  0  0  0  0  0  0  0  0
    7.0160    1.9015   -0.0953 H   0  0  0  0  0  0  0  0  0  0  0  0
    9.0550    2.5945   -0.5816 H   0  0  0  0  0  0  0  0  0  0  0  0
   11.2627    3.6262   -0.9999 H   0  0  0  0  0  0  0  0  0  0  0  0
   13.1997    5.0453   -0.0501 H   0  0  0  0  0  0  0  0  0  0  0  0
   14.1090    6.2646    1.9278 H   0  0  0  0  0  0  0  0  0  0  0  0
   12.7921    6.2681    4.0471 H   0  0  0  0  0  0  0  0  0  0  0  0
  1 10  1  0  0  0  0
  1  4  1  0  0  0  0
  1  6  1  0  0  0  0
  2  1  1  0  0  0  0
  4 11  1  0  0  0  0
  5 13  2  0  0  0  0
  6 17  1  0  0  0  0
  7 21  1  0  0  0  0
  7  1  1  0  0  0  0
  8  1  1  0  0  0  0
 10  3  1  0  0  0  0
 11 12  1  0  0  0  0
 12 36  1  0  0  0  0
 13 37  1  0  0  0  0
 13 14  1  0  0  0  0
 14 38  1  0  0  0  0
 15 14  2  0  0  0  0
 15 39  1  0  0  0  0
 16 15  1  0  0  0  0
 17  5  1  6  0  0  0
 17 16  1  0  0  0  0
 18 40  1  0  0  0  0
 18 16  2  0  0  0  0
 19 18  1  0  0  0  0
 20  6  1  0  0  0  0
 20 19  2  0  0  0  0
 21 22  1  6  0  0  0
 21 20  1  0  0  0  0
 22 42  1  0  0  0  0
 23 22  2  0  0  0  0
 24 23  1  0  0  0  0
 24 25  2  0  0  0  0
 25  7  1  0  0  0  0
 26 25  1  0  0  0  0
 26  8  1  0  0  0  0
 27 26  2  0  0  0  0
 28 27  1  0  0  0  0
 28 29  2  0  0  0  0
 29 30  1  0  0  0  0
 30  8  1  0  0  0  0
 30  9  2  0  0  0  0
 31 29  1  0  0  0  0
 31 32  1  0  0  0  0
 32 33  2  0  0  0  0
 33  9  1  0  0  0  0
 33 49  1  0  0  0  0
 34 12  1  0  0  0  0
 35 12  1  0  0  0  0
 41 19  1  0  0  0  0
 43 23  1  0  0  0  0
 44 24  1  0  0  0  0
 45 27  1  0  0  0  0
 46 28  1  0  0  0  0
 47 31  1  0  0  0  0
 48 32  1  0  0  0  0
M  END
$$$$
