CSD_code = YAPGOL | q = 0 | S = 0 | Stoichiometry = C6H15Cl3IrN3 | MND = 6
 OpenBabel04212202123D

 28 30  0  0  1  0  0  0  0  0999 V2000
    0.8030    0.5630   -0.3589 Ir  0  0  0  0  0  0  0  0  0  0  0  0
    0.5239    2.0227   -2.1221 Cl  0  0  0  0  0  0  0  0  0  0  0  0
    0.6941    2.2273    1.2324 Cl  0  0  0  0  0  0  0  0  0  0  0  0
   -1.4455    0.0727   -0.2143 Cl  0  0  0  0  0  0  0  0  0  0  0  0
    1.1575   -1.0627   -1.6790 N   0  0  2  0  0  4  0  0  0  0  0  0
    1.2831   -0.9099    1.0948 N   0  0  1  0  0  4  0  0  0  0  0  0
    2.9187    0.7134   -0.4618 N   0  0  1  0  0  4  0  0  0  0  0  0
    0.7321   -2.2420   -0.9212 C   0  0  0  0  0  0  0  0  0  0  0  0
    1.3716   -2.2426    0.4770 C   0  0  0  0  0  0  0  0  0  0  0  0
    2.5224   -0.4235    1.7058 C   0  0  0  0  0  0  0  0  0  0  0  0
    3.5501   -0.0555    0.6227 C   0  0  0  0  0  0  0  0  0  0  0  0
    3.2469    0.2647   -1.8172 C   0  0  0  0  0  0  0  0  0  0  0  0
    2.5604   -1.0767   -2.1232 C   0  0  0  0  0  0  0  0  0  0  0  0
    0.5383   -0.9269   -2.4743 H   0  0  0  0  0  0  0  0  0  0  0  0
    0.5332   -0.8900    1.7816 H   0  0  0  0  0  0  0  0  0  0  0  0
    3.1405    1.7015   -0.3672 H   0  0  0  0  0  0  0  0  0  0  0  0
    0.9782   -3.1758   -1.4429 H   0  0  0  0  0  0  0  0  0  0  0  0
   -0.3520   -2.1653   -0.8060 H   0  0  0  0  0  0  0  0  0  0  0  0
    0.8664   -2.9951    1.0886 H   0  0  0  0  0  0  0  0  0  0  0  0
    2.4240   -2.5282    0.4096 H   0  0  0  0  0  0  0  0  0  0  0  0
    2.9564   -1.1598    2.3945 H   0  0  0  0  0  0  0  0  0  0  0  0
    2.2637    0.4826    2.2594 H   0  0  0  0  0  0  0  0  0  0  0  0
    4.3561    0.5153    1.0917 H   0  0  0  0  0  0  0  0  0  0  0  0
    3.9930   -0.9602    0.1997 H   0  0  0  0  0  0  0  0  0  0  0  0
    4.3303    0.1697   -1.9664 H   0  0  0  0  0  0  0  0  0  0  0  0
    2.8513    1.0198   -2.5010 H   0  0  0  0  0  0  0  0  0  0  0  0
    2.6310   -1.2634   -3.1982 H   0  0  0  0  0  0  0  0  0  0  0  0
    3.0813   -1.8914   -1.6147 H   0  0  0  0  0  0  0  0  0  0  0  0
  1  4  1  0  0  0  0
  1  6  1  0  0  0  0
  1  3  1  0  0  0  0
  2  1  1  0  0  0  0
  5 14  1  6  0  0  0
  5  8  1  0  0  0  0
  5  1  1  0  0  0  0
  6 10  1  0  0  0  0
  6 15  1  1  0  0  0
  7 16  1  1  0  0  0
  7  1  1  0  0  0  0
  7 11  1  0  0  0  0
  8 18  1  0  0  0  0
  8  9  1  0  0  0  0
  9 19  1  0  0  0  0
  9  6  1  0  0  0  0
 10 22  1  0  0  0  0
 10 21  1  0  0  0  0
 11 23  1  0  0  0  0
 11 10  1  0  0  0  0
 12  7  1  0  0  0  0
 13 12  1  0  0  0  0
 13  5  1  0  0  0  0
 13 28  1  0  0  0  0
 17  8  1  0  0  0  0
 20  9  1  0  0  0  0
 24 11  1  0  0  0  0
 25 12  1  0  0  0  0
 26 12  1  0  0  0  0
 27 13  1  0  0  0  0
M  END
$$$$
