CSD_code = YAPHEF | q = 0 | S = 0 | Stoichiometry = C20H19ClN2OPd | MND = 5
 OpenBabel04212202123D

 44 47  0  0  1  0  0  0  0  0999 V2000
    4.1819    2.3813   16.2262 Pd  0  0  0  0  0  0  0  0  0  0  0  0
    5.5407    1.7506   17.9620 Cl  0  0  0  0  0 15  0  0  0  0  0  0
    2.8065    4.0911   16.4067 C   0  0  1  0  0  3  0  0  0  0  0  0
    5.4164    1.4429   14.8915 N   0  0  0  0  0  0  0  0  0  0  0  0
    4.8429    1.2384   13.6945 C   0  0  2  0  0  3  0  0  0  0  0  0
    2.9806    2.2645   14.6499 N   0  0  0  0  0  0  0  0  0  0  0  0
    7.4664    0.6056   14.0288 C   0  0  0  0  0  0  0  0  0  0  0  0
    8.5044    0.3727   14.2053 H   0  0  0  0  0  0  0  0  0  0  0  0
    5.2376    4.8338   17.6777 C   0  0  0  0  0  0  0  0  0  0  0  0
    6.2200    4.8251   18.1246 H   0  0  0  0  0  0  0  0  0  0  0  0
    3.0858    3.6206   17.6716 C   0  0  2  0  0  0  0  0  0  0  0  0
    2.3602    3.0050   18.2053 H   0  0  0  0  0  0  0  0  0  0  0  0
    2.6914    1.2160   12.6354 O   0  0  0  0  0  0  0  0  0  0  0  0
    6.7008    1.1386   15.0533 C   0  0  0  0  0  0  0  0  0  0  0  0
    7.1183    1.3112   16.0392 H   0  0  0  0  0  0  0  0  0  0  0  0
    3.3748    1.5646   13.5920 C   0  0  0  0  0  0  0  0  0  0  0  0
    6.8794    0.3739   12.7933 C   0  0  0  0  0  0  0  0  0  0  0  0
    7.4514   -0.0473   11.9803 H   0  0  0  0  0  0  0  0  0  0  0  0
    4.0782    4.3871   18.5243 C   0  0  0  0  0  0  0  0  0  0  0  0
    4.4269    3.7770   19.3574 H   0  0  0  0  0  0  0  0  0  0  0  0
    3.5645    5.2663   18.9378 H   0  0  0  0  0  0  0  0  0  0  0  0
    1.5079    3.8163   15.6649 C   0  0  0  0  0  0  0  0  0  0  0  0
    1.3654    4.5913   14.9101 H   0  0  0  0  0  0  0  0  0  0  0  0
    0.6662    3.8490   16.3594 H   0  0  0  0  0  0  0  0  0  0  0  0
   -0.8136    0.4681   17.1376 C   0  0  0  0  0  0  0  0  0  0  0  0
   -1.8715    0.4839   17.3548 H   0  0  0  0  0  0  0  0  0  0  0  0
    1.5898    2.4369   14.9748 C   0  0  2  0  0  0  0  0  0  0  0  0
    0.9863    2.4015   14.0561 H   0  0  0  0  0  0  0  0  0  0  0  0
    0.0120   -0.4498   17.7661 C   0  0  0  0  0  0  0  0  0  0  0  0
   -0.3963   -1.1475   18.4817 H   0  0  0  0  0  0  0  0  0  0  0  0
    3.6311    5.2465   15.8670 C   0  0  0  0  0  0  0  0  0  0  0  0
    3.6403    5.2239   14.7726 H   0  0  0  0  0  0  0  0  0  0  0  0
    3.1475    6.1840   16.1756 H   0  0  0  0  0  0  0  0  0  0  0  0
    1.0745    1.3675   15.9303 C   0  0  0  0  0  0  0  0  0  0  0  0
    1.8924    0.4215   16.5435 C   0  0  0  0  0  0  0  0  0  0  0  0
    2.9572    0.3214   16.2886 H   0  0  0  0  0  0  0  0  0  0  0  0
    5.0343    5.2049   16.4179 C   0  0  0  0  0  0  0  0  0  0  0  0
    5.8385    5.5402   15.7768 H   0  0  0  0  0  0  0  0  0  0  0  0
   -0.2850    1.3672   16.2313 C   0  0  0  0  0  0  0  0  0  0  0  0
   -0.9350    2.0792   15.7423 H   0  0  0  0  0  0  0  0  0  0  0  0
    1.3600   -0.4751   17.4595 C   0  0  0  0  0  0  0  0  0  0  0  0
    2.0091   -1.1979   17.9313 H   0  0  0  0  0  0  0  0  0  0  0  0
    5.5436    0.6934   12.6278 C   0  0  0  0  0  0  0  0  0  0  0  0
    5.0134    0.5359   11.7014 H   0  0  0  0  0  0  0  0  0  0  0  0
  1 11  1  0  0  0  0
  3 22  1  1  0  0  0
  3 11  1  0  0  0  0
  4 14  1  0  0  0  0
  4  1  1  0  0  0  0
  5 43  1  1  0  0  0
  5  4  1  0  0  0  0
  6 27  1  0  0  0  0
  6  1  1  0  0  0  0
  7  8  1  0  0  0  0
  7 14  2  0  0  0  0
  9 10  1  0  0  0  0
  9 19  1  0  0  0  0
 11 12  1  1  0  0  0
 11 19  1  0  0  0  0
 13 16  2  0  0  0  0
 14 15  1  0  0  0  0
 16  5  1  0  0  0  0
 16  6  1  0  0  0  0
 17  7  1  0  0  0  0
 18 17  1  0  0  0  0
 19 21  1  0  0  0  0
 19 20  1  0  0  0  0
 22 24  1  0  0  0  0
 23 22  1  0  0  0  0
 25 26  1  0  0  0  0
 25 29  1  0  0  0  0
 27 28  1  6  0  0  0
 27 22  1  0  0  0  0
 27 34  1  0  0  0  0
 29 30  1  0  0  0  0
 31 33  1  0  0  0  0
 31  3  1  0  0  0  0
 31 37  1  0  0  0  0
 32 31  1  0  0  0  0
 34 39  1  0  0  0  0
 34 35  2  0  0  0  0
 35 41  1  0  0  0  0
 36 35  1  0  0  0  0
 37  9  2  0  0  0  0
 38 37  1  0  0  0  0
 39 25  2  0  0  0  0
 40 39  1  0  0  0  0
 41 29  2  0  0  0  0
 41 42  1  0  0  0  0
 43 17  2  0  0  0  0
 44 43  1  0  0  0  0
M  END
$$$$
