CSD_code = YAPZIA | q = 0 | S = 0 | Stoichiometry = C19H24Cl2N2NiO | MND = 5
 OpenBabel04212202123D

 49 51  0  0  0  0  0  0  0  0999 V2000
   12.9275   12.0908    7.3208 Ni  0  0  0  0  0  0  0  0  0  0  0  0
   11.4050   10.5040    7.9848 N   0  0  0  0  0  0  0  0  0  0  0  0
   12.5842   12.7006    8.9851 N   0  0  0  0  0  0  0  0  0  0  0  0
   11.7016   12.0283    9.7480 C   0  0  0  0  0  0  0  0  0  0  0  0
    9.3838   10.9652   10.9838 C   0  0  0  0  0  0  0  0  0  0  0  0
    8.8047   11.6846   10.4008 H   0  0  0  0  0  0  0  0  0  0  0  0
    8.6907   10.3893   11.5988 H   0  0  0  0  0  0  0  0  0  0  0  0
   13.1912   13.7953    9.4463 C   0  0  0  0  0  0  0  0  0  0  0  0
   10.3788   11.7084   11.8672 C   0  0  0  0  0  0  0  0  0  0  0  0
    9.8625   12.4052   12.5301 H   0  0  0  0  0  0  0  0  0  0  0  0
   10.9134   10.9895   12.4975 H   0  0  0  0  0  0  0  0  0  0  0  0
   11.0916   10.8205    9.1771 C   0  0  0  0  0  0  0  0  0  0  0  0
    9.1348   10.8678    6.3560 C   0  0  0  0  0  0  0  0  0  0  0  0
    8.4578   10.8926    5.5062 H   0  0  0  0  0  0  0  0  0  0  0  0
    9.8725   11.6623    6.2485 H   0  0  0  0  0  0  0  0  0  0  0  0
    8.5599   11.0769    7.2596 H   0  0  0  0  0  0  0  0  0  0  0  0
   10.9061    9.3796    7.3182 C   0  0  0  0  0  0  0  0  0  0  0  0
   14.1429   14.5026    8.5435 C   0  0  0  0  0  0  0  0  0  0  0  0
   14.8499   13.7852    8.1138 H   0  0  0  0  0  0  0  0  0  0  0  0
   14.6904   15.2767    9.0736 H   0  0  0  0  0  0  0  0  0  0  0  0
   13.5850   14.9557    7.7194 H   0  0  0  0  0  0  0  0  0  0  0  0
   11.5602    8.1488    7.4338 C   0  0  0  0  0  0  0  0  0  0  0  0
   11.1004    7.0806    6.6781 C   0  0  0  0  0  0  0  0  0  0  0  0
   11.6031    6.1276    6.7585 H   0  0  0  0  0  0  0  0  0  0  0  0
    9.8141    9.5379    6.4566 C   0  0  0  0  0  0  0  0  0  0  0  0
   12.0104   13.5939   11.5242 C   0  0  0  0  0  0  0  0  0  0  0  0
   11.7846   13.9515   12.5179 H   0  0  0  0  0  0  0  0  0  0  0  0
   10.1440   10.0396   10.0420 C   0  0  0  0  0  0  0  0  0  0  0  0
   10.7266    9.3218   10.6286 H   0  0  0  0  0  0  0  0  0  0  0  0
    9.4639    9.4704    9.4047 H   0  0  0  0  0  0  0  0  0  0  0  0
    9.3825    8.4450    5.7219 C   0  0  0  0  0  0  0  0  0  0  0  0
    8.5396    8.5601    5.0558 H   0  0  0  0  0  0  0  0  0  0  0  0
   12.7394    7.9992    8.3459 C   0  0  0  0  0  0  0  0  0  0  0  0
   13.2978    7.0985    8.1039 H   0  0  0  0  0  0  0  0  0  0  0  0
   12.4171    7.9287    9.3858 H   0  0  0  0  0  0  0  0  0  0  0  0
   13.4023    8.8588    8.2615 H   0  0  0  0  0  0  0  0  0  0  0  0
   10.0182    7.2211    5.8288 C   0  0  0  0  0  0  0  0  0  0  0  0
    9.6737    6.3791    5.2470 H   0  0  0  0  0  0  0  0  0  0  0  0
   11.3781   12.4568   11.0373 C   0  0  0  0  0  0  0  0  0  0  0  0
   11.5976   13.5739    6.5304 Cl  0  0  0  0  0  0  0  0  0  0  0  0
   14.7132   11.0828    8.0298 Cl  0  0  0  0  0  0  0  0  0  0  0  0
   13.2832   11.2571    5.5541 O   0  0  0  0  0  0  0  0  0  0  0  0
   12.9210   14.2602   10.7298 C   0  0  0  0  0  0  0  0  0  0  0  0
   13.4223   15.1453   11.0878 H   0  0  0  0  0  0  0  0  0  0  0  0
   13.0741   11.6718    4.2185 C   0  0  0  0  0  0  0  0  0  0  0  0
   12.8821   10.8007    3.5845 H   0  0  0  0  0  0  0  0  0  0  0  0
   13.9322   12.2280    3.8296 H   0  0  0  0  0  0  0  0  0  0  0  0
   12.1997   12.3215    4.2156 H   0  0  0  0  0  0  0  0  0  0  0  0
   14.1031   10.7424    5.6244 H   0  0  0  0  0  0  0  0  0  0  0  0
  1  2  1  0  0  0  0
  1 41  1  0  0  0  0
  1  3  1  0  0  0  0
  2 12  1  0  0  0  0
  3  8  1  0  0  0  0
  3  4  1  0  0  0  0
  4 39  1  0  0  0  0
  5  7  1  0  0  0  0
  5  9  1  0  0  0  0
  6  5  1  0  0  0  0
  8 43  2  0  0  0  0
  9 11  1  0  0  0  0
  9 10  1  0  0  0  0
 12  4  2  0  0  0  0
 12 28  1  0  0  0  0
 13 25  1  0  0  0  0
 13 16  1  0  0  0  0
 14 13  1  0  0  0  0
 15 13  1  0  0  0  0
 17 22  1  0  0  0  0
 17  2  1  0  0  0  0
 18 20  1  0  0  0  0
 18  8  1  0  0  0  0
 19 18  1  0  0  0  0
 21 18  1  0  0  0  0
 22 33  1  0  0  0  0
 23 24  1  0  0  0  0
 23 22  2  0  0  0  0
 25 17  2  0  0  0  0
 26 27  1  0  0  0  0
 28 29  1  0  0  0  0
 28  5  1  0  0  0  0
 30 28  1  0  0  0  0
 31 37  2  0  0  0  0
 31 25  1  0  0  0  0
 32 31  1  0  0  0  0
 33 35  1  0  0  0  0
 34 33  1  0  0  0  0
 36 33  1  0  0  0  0
 37 23  1  0  0  0  0
 38 37  1  0  0  0  0
 39 26  2  0  0  0  0
 39  9  1  0  0  0  0
 40  1  1  0  0  0  0
 42 49  1  0  0  0  0
 43 44  1  0  0  0  0
 43 26  1  0  0  0  0
 45 42  1  0  0  0  0
 46 45  1  0  0  0  0
 47 45  1  0  0  0  0
 48 45  1  0  0  0  0
M  END
$$$$
