CSD_code = YAQSAK | q = 0 | S = 0 | Stoichiometry = C28H22Cl2O2Zr | MND = 12
 OpenBabel04212202123D

 55 60  0  0  1  0  0  0  0  0999 V2000
    2.0995    5.2975    3.0246 Zr  0  0  0  0  0  0  0  0  0  0  0  0
    1.8400    6.5967    4.9450 Cl  0  0  0  0  0  0  0  0  0  0  0  0
    1.8516    3.3999    4.3552 Cl  0  0  0  0  0  0  0  0  0  0  0  0
   -0.1831    4.4530    2.3620 C   0  0  0  0  0  0  0  0  0  0  0  0
    0.6713    3.9105    1.3626 C   0  0  0  0  0  0  0  0  0  0  0  0
    0.9549    2.5885    0.9747 C   0  0  0  0  0  0  0  0  0  0  0  0
    1.7537    2.3755   -0.1211 C   0  0  0  0  0  0  0  0  0  0  0  0
    2.2955    3.4463   -0.8548 C   0  0  0  0  0  0  0  0  0  0  0  0
    2.0682    4.7502   -0.4913 C   0  0  0  0  0  0  0  0  0  0  0  0
    1.2634    5.0131    0.6353 C   0  0  0  0  0  0  0  0  0  0  0  0
    0.8009    6.2241    1.2310 C   0  0  1  0  0  0  0  0  0  0  0  0
   -0.1259    5.8618    2.2619 C   0  0  0  0  0  0  0  0  0  0  0  0
   -0.7647    6.8090    3.1512 C   0  0  0  0  0  0  0  0  0  0  0  0
   -1.8164    6.7326    4.0247 C   0  0  0  0  0  0  0  0  0  0  0  0
   -1.8626    7.9772    4.6967 C   0  0  0  0  0  0  0  0  0  0  0  0
   -0.8384    8.7287    4.2013 C   0  0  0  0  0  0  0  0  0  0  0  0
   -0.3538   10.0925    4.5350 C   0  0  0  0  0  0  0  0  0  0  0  0
   -0.1740    8.0320    3.2513 O   0  0  0  0  0  0  0  0  0  0  0  0
    4.1588    4.9452    2.1252 C   0  0  2  0  0  0  0  0  0  0  0  0
    4.4950    3.6145    2.5662 C   0  0  0  0  0  0  0  0  0  0  0  0
    4.4767    2.3815    1.9086 C   0  0  0  0  0  0  0  0  0  0  0  0
    4.8262    1.2493    2.6102 C   0  0  0  0  0  0  0  0  0  0  0  0
    5.1987    1.3148    3.9573 C   0  0  0  0  0  0  0  0  0  0  0  0
    5.2487    2.5164    4.6242 C   0  0  0  0  0  0  0  0  0  0  0  0
    4.9106    3.6850    3.9349 C   0  0  0  0  0  0  0  0  0  0  0  0
    4.8937    5.0461    4.3404 C   0  0  0  0  0  0  0  0  0  0  0  0
    4.4984    5.8151    3.2533 C   0  0  0  0  0  0  0  0  0  0  0  0
    4.2729    7.2456    3.1828 C   0  0  0  0  0  0  0  0  0  0  0  0
    4.8422    8.3565    3.7306 C   0  0  0  0  0  0  0  0  0  0  0  0
    4.1059    9.4692    3.2450 C   0  0  0  0  0  0  0  0  0  0  0  0
    3.1279    8.9805    2.4375 C   0  0  0  0  0  0  0  0  0  0  0  0
    2.1000    9.6745    1.6193 C   0  0  0  0  0  0  0  0  0  0  0  0
    3.2046    7.6124    2.3860 O   0  0  0  0  0  0  0  0  0  0  0  0
   -0.8217    3.8895    3.0299 H   0  0  0  0  0  0  0  0  0  0  0  0
    0.5238    1.7616    1.5206 H   0  0  0  0  0  0  0  0  0  0  0  0
    1.9627    1.3665   -0.4434 H   0  0  0  0  0  0  0  0  0  0  0  0
    2.8973    3.2303   -1.7254 H   0  0  0  0  0  0  0  0  0  0  0  0
    2.4735    5.5688   -1.0733 H   0  0  0  0  0  0  0  0  0  0  0  0
    0.8957    7.2135    0.8030 H   0  0  0  0  0  0  0  0  0  0  0  0
   -2.4711    5.8973    4.1685 H   0  0  0  0  0  0  0  0  0  0  0  0
   -2.5589    8.2661    5.4569 H   0  0  0  0  0  0  0  0  0  0  0  0
   -0.4726   10.7675    3.6872 H   0  0  0  0  0  0  0  0  0  0  0  0
    0.7037   10.0498    4.7927 H   0  0  0  0  0  0  0  0  0  0  0  0
   -0.9135   10.4831    5.3788 H   0  0  0  0  0  0  0  0  0  0  0  0
    4.2776    5.2709    1.0889 H   0  0  0  0  0  0  0  0  0  0  0  0
    4.1949    2.3240    0.8663 H   0  0  0  0  0  0  0  0  0  0  0  0
    4.8139    0.2891    2.1155 H   0  0  0  0  0  0  0  0  0  0  0  0
    5.4546    0.4022    4.4751 H   0  0  0  0  0  0  0  0  0  0  0  0
    5.5403    2.5650    5.6629 H   0  0  0  0  0  0  0  0  0  0  0  0
    5.1419    5.4185    5.3211 H   0  0  0  0  0  0  0  0  0  0  0  0
    5.6856    8.3817    4.3895 H   0  0  0  0  0  0  0  0  0  0  0  0
    4.2918   10.4988    3.4734 H   0  0  0  0  0  0  0  0  0  0  0  0
    2.2040   10.7477    1.7465 H   0  0  0  0  0  0  0  0  0  0  0  0
    1.1009    9.3747    1.9303 H   0  0  0  0  0  0  0  0  0  0  0  0
    2.2251    9.4334    0.5631 H   0  0  0  0  0  0  0  0  0  0  0  0
  1  3  1  0  0  0  0
  1  2  1  0  0  0  0
  4 34  1  0  0  0  0
  5  4  1  0  0  0  0
  6  5  1  0  0  0  0
  6 35  1  0  0  0  0
  7  6  2  0  0  0  0
  8  9  2  0  0  0  0
  8  7  1  0  0  0  0
  9 10  1  0  0  0  0
 10 11  1  0  0  0  0
 10  5  2  0  0  0  0
 11 39  1  6  0  0  0
 11 12  1  0  0  0  0
 11  1  1  0  0  0  0
 12  4  2  0  0  0  0
 12 13  1  0  0  0  0
 13 18  1  0  0  0  0
 13 14  2  0  0  0  0
 14 40  1  0  0  0  0
 14 15  1  0  0  0  0
 15 41  1  0  0  0  0
 16 17  1  0  0  0  0
 16 15  2  0  0  0  0
 17 43  1  0  0  0  0
 17 44  1  0  0  0  0
 18 16  1  0  0  0  0
 19 45  1  6  0  0  0
 19 20  1  0  0  0  0
 19  1  1  0  0  0  0
 19 27  1  0  0  0  0
 20 25  1  0  0  0  0
 21 20  2  0  0  0  0
 21 22  1  0  0  0  0
 22 23  2  0  0  0  0
 23 48  1  0  0  0  0
 23 24  1  0  0  0  0
 24 49  1  0  0  0  0
 25 26  1  0  0  0  0
 25 24  2  0  0  0  0
 26 50  1  0  0  0  0
 27 26  2  0  0  0  0
 28 27  1  0  0  0  0
 28 29  2  0  0  0  0
 29 51  1  0  0  0  0
 30 52  1  0  0  0  0
 30 29  1  0  0  0  0
 31 30  2  0  0  0  0
 32 53  1  0  0  0  0
 32 54  1  0  0  0  0
 32 31  1  0  0  0  0
 33 31  1  0  0  0  0
 33 28  1  0  0  0  0
 36  7  1  0  0  0  0
 37  8  1  0  0  0  0
 38  9  1  0  0  0  0
 42 17  1  0  0  0  0
 46 21  1  0  0  0  0
 47 22  1  0  0  0  0
 55 32  1  0  0  0  0
M  END
$$$$
