CSD_code = YAQVIX | q = 0 | S = 0 | Stoichiometry = C8H8Cl2N6O2Ru | MND = 6
 OpenBabel04212202123D

 27 29  0  0  1  0  0  0  0  0999 V2000
    6.1701    6.8213    0.3492 C   0  0  1  0  0  3  0  0  0  0  0  0
    3.9717    6.5198    0.4247 C   0  0  0  0  0  0  0  0  0  0  0  0
    2.9201    6.7077    0.3700 H   0  0  0  0  0  0  0  0  0  0  0  0
    9.0637    6.8071    0.3617 C   0  0  0  0  0  2  0  0  0  0  0  0
    6.7260    4.4910    0.9892 C   0  0  0  0  0  0  0  0  0  0  0  0
    7.3655    4.2825    0.1305 H   0  0  0  0  0  0  0  0  0  0  0  0
    6.1151    3.6202    1.2171 H   0  0  0  0  0  0  0  0  0  0  0  0
    7.3497    4.7422    1.8481 H   0  0  0  0  0  0  0  0  0  0  0  0
    7.4620    8.7323    2.3094 Cl  0  0  0  0  0  0  0  0  0  0  0  0
    4.9581    7.4233    0.1801 N   0  0  0  0  0  0  0  0  0  0  0  0
    5.8399    5.5791    0.6890 N   0  0  0  0  0  0  0  0  0  0  0  0
    4.5095    5.3871    0.7376 N   0  0  0  0  0  0  0  0  0  0  0  0
    9.8710    6.0343    0.5857 O   0  0  0  0  0  1  0  0  0  0  0  0
    7.7518    8.0757   -0.0003 Ru  0  0  0  0  0  0  0  0  0  0  0  0
    6.1701    9.3299   -0.3504 C   0  0  1  0  0  3  0  0  0  0  0  0
    3.9717    9.6317   -0.4248 C   0  0  0  0  0  0  0  0  0  0  0  0
    2.9201    9.4438   -0.3698 H   0  0  0  0  0  0  0  0  0  0  0  0
    9.0639    9.3443   -0.3620 C   0  0  0  0  0  2  0  0  0  0  0  0
    6.7260   11.6606   -0.9886 C   0  0  0  0  0  0  0  0  0  0  0  0
    7.3658   11.8682   -0.1300 H   0  0  0  0  0  0  0  0  0  0  0  0
    6.1151   12.5318   -1.2154 H   0  0  0  0  0  0  0  0  0  0  0  0
    7.3494   11.4103   -1.8480 H   0  0  0  0  0  0  0  0  0  0  0  0
    7.4623    7.4192   -2.3098 Cl  0  0  0  0  0  0  0  0  0  0  0  0
    4.9581    8.7279   -0.1810 N   0  0  0  0  0  0  0  0  0  0  0  0
    5.8399   10.5723   -0.6893 N   0  0  0  0  0  0  0  0  0  0  0  0
    4.5095   10.7645   -0.7373 N   0  0  0  0  0  0  0  0  0  0  0  0
    9.8710   10.1173   -0.5857 O   0  0  0  0  0  1  0  0  0  0  0  0
  1 10  1  6  0  0  0
  1 11  1  0  0  0  0
  2 12  2  0  0  0  0
  3  2  1  0  0  0  0
  4 13  1  0  0  0  0
  5  7  1  0  0  0  0
  5  8  1  0  0  0  0
  6  5  1  0  0  0  0
 10  2  1  0  0  0  0
 11 12  1  0  0  0  0
 11  5  1  0  0  0  0
 14  1  1  0  0  0  0
 14  4  1  0  0  0  0
 14  9  1  0  0  0  0
 15 25  1  1  0  0  0
 15 24  1  0  0  0  0
 15 14  1  0  0  0  0
 16 17  1  0  0  0  0
 16 24  1  0  0  0  0
 18 14  1  0  0  0  0
 19 25  1  0  0  0  0
 19 20  1  0  0  0  0
 21 19  1  0  0  0  0
 22 19  1  0  0  0  0
 23 14  1  0  0  0  0
 24 10  1  0  0  0  0
 26 25  1  0  0  0  0
 26 16  2  0  0  0  0
 27 18  1  0  0  0  0
M  END
$$$$
