CSD_code = YAQVUJ | q = 0 | S = 0 | Stoichiometry = C10H12Br2N6O2Ru | MND = 6
 OpenBabel04212202123D

 33 35  0  0  1  0  0  0  0  0999 V2000
    0.7878    9.2098   -1.0874 Br  0  0  0  0  0  0  0  0  0  0  0  0
    2.1768    9.2130    3.8388 Br  0  0  0  0  0  0  0  0  0  0  0  0
    2.8138    7.9025    0.9891 C   0  0  2  0  0  3  0  0  0  0  0  0
    4.9188    7.6005    0.3426 C   0  0  0  0  0  0  0  0  0  0  0  0
    5.9217    7.8036    0.0321 H   0  0  0  0  0  0  0  0  0  0  0  0
   -0.0121    7.9074    1.7970 C   0  0  0  0  0  2  0  0  0  0  0  0
    2.3055    5.4765    1.1886 C   0  0  0  0  0  0  0  0  0  0  0  0
    2.7416    4.6232    0.6663 H   0  0  0  0  0  0  0  0  0  0  0  0
    1.3020    5.6663    0.7988 H   0  0  0  0  0  0  0  0  0  0  0  0
    2.2649    5.2279    2.6926 C   0  0  0  0  0  0  0  0  0  0  0  0
    3.2592    4.9964    3.0664 H   0  0  0  0  0  0  0  0  0  0  0  0
    1.6061    4.3921    2.9071 H   0  0  0  0  0  0  0  0  0  0  0  0
    1.8937    6.1056    3.2183 H   0  0  0  0  0  0  0  0  0  0  0  0
    3.9730    8.5340    0.6353 N   0  0  0  0  0  0  0  0  0  0  0  0
    3.1350    6.6158    0.8846 N   0  0  0  0  0  0  0  0  0  0  0  0
    4.4085    6.4247    0.4971 N   0  0  0  0  0  0  0  0  0  0  0  0
   -0.8204    7.1355    2.0227 O   0  0  0  0  0  1  0  0  0  0  0  0
    1.2724    9.2115    1.4358 Ru  0  0  0  0  0  0  0  0  0  0  0  0
    2.8136   10.5206    0.9884 C   0  0  1  0  0  3  0  0  0  0  0  0
    4.9191   10.8226    0.3436 C   0  0  0  0  0  0  0  0  0  0  0  0
    5.9223   10.6195    0.0338 H   0  0  0  0  0  0  0  0  0  0  0  0
   -0.0128   10.5157    1.7943 C   0  0  0  0  0  2  0  0  0  0  0  0
    2.3058   12.9468    1.1889 C   0  0  0  0  0  0  0  0  0  0  0  0
    2.7422   13.8002    0.6670 H   0  0  0  0  0  0  0  0  0  0  0  0
    1.3023   12.7574    0.7988 H   0  0  0  0  0  0  0  0  0  0  0  0
    2.2648   13.1948    2.6930 C   0  0  0  0  0  0  0  0  0  0  0  0
    3.2591   13.4256    3.0672 H   0  0  0  0  0  0  0  0  0  0  0  0
    1.6063   14.0307    2.9076 H   0  0  0  0  0  0  0  0  0  0  0  0
    1.8931   12.3169    3.2182 H   0  0  0  0  0  0  0  0  0  0  0  0
    3.9730    9.8891    0.6353 N   0  0  0  0  0  0  0  0  0  0  0  0
    3.1350   11.8073    0.8846 N   0  0  0  0  0  0  0  0  0  0  0  0
    4.4089   11.9985    0.4981 N   0  0  0  0  0  0  0  0  0  0  0  0
   -0.8217   11.2876    2.0179 O   0  0  0  0  0  1  0  0  0  0  0  0
  1 18  1  0  0  0  0
  3 14  1  6  0  0  0
  3 18  1  0  0  0  0
  4 16  2  0  0  0  0
  4 14  1  0  0  0  0
  5  4  1  0  0  0  0
  6 17  1  0  0  0  0
  7 10  1  0  0  0  0
  8  7  1  0  0  0  0
  9  7  1  0  0  0  0
 10 12  1  0  0  0  0
 10 11  1  0  0  0  0
 10 13  1  0  0  0  0
 15  3  1  0  0  0  0
 15  7  1  0  0  0  0
 16 15  1  0  0  0  0
 18 22  1  0  0  0  0
 18  6  1  0  0  0  0
 18  2  1  0  0  0  0
 19 30  1  6  0  0  0
 19 18  1  0  0  0  0
 20 32  2  0  0  0  0
 20 30  1  0  0  0  0
 21 20  1  0  0  0  0
 22 33  1  0  0  0  0
 23 26  1  0  0  0  0
 24 23  1  0  0  0  0
 25 23  1  0  0  0  0
 26 28  1  0  0  0  0
 26 27  1  0  0  0  0
 26 29  1  0  0  0  0
 30 14  1  0  0  0  0
 31 19  1  0  0  0  0
 31 23  1  0  0  0  0
 32 31  1  0  0  0  0
M  END
$$$$
