CSD_code = YARBOL | q = 0 | S = 0 | Stoichiometry = C11H8ClN2O4Re | MND = 6
 OpenBabel04212202123D

 27 29  0  0  1  0  0  0  0  0999 V2000
    5.4533    6.6195    2.5893 Re  0  0  0  0  0  0  0  0  0  0  0  0
    7.2662    5.2925    3.3464 Cl  0  0  0  0  0  0  0  0  0  0  0  0
    5.2236    7.7965    5.4352 O   0  0  0  0  0  1  0  0  0  0  0  0
    7.5338    8.7134    1.6859 O   0  0  0  0  0  1  0  0  0  0  0  0
    2.9926    8.0739    1.4128 O   0  0  0  0  0  1  0  0  0  0  0  0
    4.1330    2.6559    2.6603 O   0  0  0  0  0  0  0  0  0  0  0  0
    5.7368    5.3240    0.8611 N   0  0  0  0  0  0  0  0  0  0  0  0
    4.3640    4.8372    3.0876 N   0  0  1  0  0  0  0  0  0  0  0  0
    5.2836    7.4285    4.3542 C   0  0  0  0  0  2  0  0  0  0  0  0
    6.7155    7.9900    2.0262 C   0  0  0  0  0  2  0  0  0  0  0  0
    3.9126    7.5517    1.8606 C   0  0  0  0  0  2  0  0  0  0  0  0
    6.4356    5.5836   -0.2371 C   0  0  0  0  0  3  0  0  0  0  0  0
    6.7156    6.6170   -0.3945 H   0  0  0  0  0  0  0  0  0  0  0  0
    6.8056    4.6032   -1.1436 C   0  0  0  0  0  0  0  0  0  0  0  0
    7.3841    4.8701   -2.0133 H   0  0  0  0  0  0  0  0  0  0  0  0
    6.4318    3.2871   -0.9092 C   0  0  0  0  0  0  0  0  0  0  0  0
    6.7142    2.5009   -1.5921 H   0  0  0  0  0  0  0  0  0  0  0  0
    5.6918    3.0041    0.2240 C   0  0  0  0  0  0  0  0  0  0  0  0
    5.3715    2.0039    0.4684 H   0  0  0  0  0  0  0  0  0  0  0  0
    5.3688    4.0488    1.0828 C   0  0  0  0  0  0  0  0  0  0  0  0
    4.6159    3.8517    2.3083 C   0  0  2  0  0  3  0  0  0  0  0  0
    3.4704    2.8355    3.9172 C   0  0  0  0  0  0  0  0  0  0  0  0
    3.9617    2.1986    4.6566 H   0  0  0  0  0  0  0  0  0  0  0  0
    2.4301    2.5217    3.8014 H   0  0  0  0  0  0  0  0  0  0  0  0
    3.6206    4.3425    4.2242 C   0  0  0  0  0  0  0  0  0  0  0  0
    2.6636    4.8672    4.2951 H   0  0  0  0  0  0  0  0  0  0  0  0
    4.1875    4.5339    5.1397 H   0  0  0  0  0  0  0  0  0  0  0  0
  1  8  1  0  0  0  0
  1  2  1  0  0  0  0
  1  9  1  0  0  0  0
  4 10  1  0  0  0  0
  5 11  1  0  0  0  0
  6 22  1  0  0  0  0
  7 20  1  0  0  0  0
  7  1  1  0  0  0  0
  8 25  1  1  0  0  0
  9  3  1  0  0  0  0
 10  1  1  0  0  0  0
 11  1  1  0  0  0  0
 12  7  1  0  0  0  0
 13 12  1  0  0  0  0
 14 16  2  0  0  0  0
 14 12  1  0  0  0  0
 15 14  1  0  0  0  0
 16 18  1  0  0  0  0
 17 16  1  0  0  0  0
 18 19  1  0  0  0  0
 18 20  2  0  0  0  0
 21 20  1  6  0  0  0
 21  6  1  0  0  0  0
 21  8  1  0  0  0  0
 22 25  1  0  0  0  0
 22 23  1  0  0  0  0
 24 22  1  0  0  0  0
 25 26  1  0  0  0  0
 25 27  1  0  0  0  0
M  END
$$$$
