CSD_code = YASCOM | q = 0 | S = 0 | Stoichiometry = C32H28I2N4Zn | MND = 4
 OpenBabel04212202123D

 67 72  0  0  0  0  0  0  0  0999 V2000
   17.6921   12.4417   15.2640 C   0  0  0  0  0  3  0  0  0  0  0  0
   18.3165   12.7673   16.0718 H   0  0  0  0  0  0  0  0  0  0  0  0
   19.8048   12.5429   10.6552 C   0  0  0  0  0  3  0  0  0  0  0  0
   19.8928   13.5101   10.2023 H   0  0  0  0  0  0  0  0  0  0  0  0
   16.7890   12.2204   13.3324 C   0  0  0  0  0  0  0  0  0  0  0  0
   19.7092   10.9527   12.0897 C   0  0  0  0  0  0  0  0  0  0  0  0
   16.1344   11.3573   14.1878 C   0  0  0  0  0  0  0  0  0  0  0  0
   19.5743   10.3812   10.8406 C   0  0  0  0  0  0  0  0  0  0  0  0
   16.3883   10.8811   16.6528 C   0  0  0  0  0  0  0  0  0  0  0  0
   16.9735    9.9683   16.7854 H   0  0  0  0  0  0  0  0  0  0  0  0
   15.3272   10.6336   16.6580 H   0  0  0  0  0  0  0  0  0  0  0  0
   16.6074   11.5567   17.4788 H   0  0  0  0  0  0  0  0  0  0  0  0
   19.5932   11.3509    8.5109 C   0  0  0  0  0  0  0  0  0  0  0  0
   18.5655   11.4609    8.1573 H   0  0  0  0  0  0  0  0  0  0  0  0
   19.9899   10.3933    8.1751 H   0  0  0  0  0  0  0  0  0  0  0  0
   20.1923   12.1588    8.0925 H   0  0  0  0  0  0  0  0  0  0  0  0
   16.5504   12.4214   11.9062 C   0  0  0  0  0  0  0  0  0  0  0  0
   19.6899   10.2850   13.3878 C   0  0  0  0  0  0  0  0  0  0  0  0
   16.4478   13.7081   11.3875 C   0  0  0  0  0  0  0  0  0  0  0  0
   16.5051   14.5553   12.0519 H   0  0  0  0  0  0  0  0  0  0  0  0
   20.6596   10.5781   14.3412 C   0  0  0  0  0  0  0  0  0  0  0  0
   21.4492   11.2716   14.1005 H   0  0  0  0  0  0  0  0  0  0  0  0
   16.2444   13.9052   10.0342 C   0  0  0  0  0  0  0  0  0  0  0  0
   16.1893   14.9103    9.6455 H   0  0  0  0  0  0  0  0  0  0  0  0
   20.6336    9.9654   15.5803 C   0  0  0  0  0  0  0  0  0  0  0  0
   21.3807   10.2209   16.3158 H   0  0  0  0  0  0  0  0  0  0  0  0
   16.1080   12.8171    9.1896 C   0  0  0  0  0  0  0  0  0  0  0  0
   15.9384   12.9691    8.1334 H   0  0  0  0  0  0  0  0  0  0  0  0
   19.6568    9.0277   15.8679 C   0  0  0  0  0  0  0  0  0  0  0  0
   19.6412    8.5399   16.8318 H   0  0  0  0  0  0  0  0  0  0  0  0
   16.1703   11.5319    9.7057 C   0  0  0  0  0  0  0  0  0  0  0  0
   16.0285   10.6809    9.0537 H   0  0  0  0  0  0  0  0  0  0  0  0
   18.7102    8.7022   14.9087 C   0  0  0  0  0  0  0  0  0  0  0  0
   17.9678    7.9444   15.1184 H   0  0  0  0  0  0  0  0  0  0  0  0
   16.4014   11.3299   11.0532 C   0  0  0  0  0  0  0  0  0  0  0  0
   16.4627   10.3267   11.4503 H   0  0  0  0  0  0  0  0  0  0  0  0
   18.7154    9.3326   13.6789 C   0  0  0  0  0  0  0  0  0  0  0  0
   17.9681    9.0863   12.9382 H   0  0  0  0  0  0  0  0  0  0  0  0
   14.9923   10.4938   13.9148 C   0  0  0  0  0  0  0  0  0  0  0  0
   19.4634    8.9708   10.4898 C   0  0  0  0  0  0  0  0  0  0  0  0
   13.9350   10.9870   13.1498 C   0  0  0  0  0  0  0  0  0  0  0  0
   13.9712   12.0038   12.7886 H   0  0  0  0  0  0  0  0  0  0  0  0
   20.2810    8.0434   11.1361 C   0  0  0  0  0  0  0  0  0  0  0  0
   20.9944    8.3867   11.8704 H   0  0  0  0  0  0  0  0  0  0  0  0
   12.8467   10.1860   12.8638 C   0  0  0  0  0  0  0  0  0  0  0  0
   12.0334   10.5806   12.2735 H   0  0  0  0  0  0  0  0  0  0  0  0
   20.1865    6.6989   10.8343 C   0  0  0  0  0  0  0  0  0  0  0  0
   20.8270    5.9916   11.3394 H   0  0  0  0  0  0  0  0  0  0  0  0
   12.7950    8.8841   13.3357 C   0  0  0  0  0  0  0  0  0  0  0  0
   11.9428    8.2601   13.1127 H   0  0  0  0  0  0  0  0  0  0  0  0
   19.2780    6.2589    9.8849 C   0  0  0  0  0  0  0  0  0  0  0  0
   19.2065    5.2079    9.6492 H   0  0  0  0  0  0  0  0  0  0  0  0
   13.8415    8.3858   14.0924 C   0  0  0  0  0  0  0  0  0  0  0  0
   13.8098    7.3698   14.4576 H   0  0  0  0  0  0  0  0  0  0  0  0
   18.4608    7.1721    9.2412 C   0  0  0  0  0  0  0  0  0  0  0  0
   17.7465    6.8345    8.5047 H   0  0  0  0  0  0  0  0  0  0  0  0
   14.9342    9.1828   14.3818 C   0  0  0  0  0  0  0  0  0  0  0  0
   15.7563    8.7778   14.9513 H   0  0  0  0  0  0  0  0  0  0  0  0
   18.5506    8.5197    9.5394 C   0  0  0  0  0  0  0  0  0  0  0  0
   17.8923    9.2210    9.0504 H   0  0  0  0  0  0  0  0  0  0  0  0
   16.7301   11.5224   15.4144 N   0  0  0  0  0  0  0  0  0  0  0  0
   19.6421   11.4198    9.9443 N   0  0  0  0  0  0  0  0  0  0  0  0
   17.7576   12.8864   14.0299 N   0  0  0  0  0  0  0  0  0  0  0  0
   19.8521   12.3045   11.9459 N   0  0  0  0  0  0  0  0  0  0  0  0
   19.5257   13.9060   13.3469 Zn  0  0  0  0  0  0  0  0  0  0  0  0
   19.2602   15.9441   11.8632 I   0  0  0  0  0  0  0  0  0  0  0  0
   20.9778   14.0248   15.4213 I   0  0  0  0  0  0  0  0  0  0  0  0
  1 61  1  0  0  0  0
  1  2  1  0  0  0  0
  3 64  1  0  0  0  0
  4  3  1  0  0  0  0
  5 63  1  0  0  0  0
  5  7  2  0  0  0  0
  6 18  1  0  0  0  0
  7 61  1  0  0  0  0
  8  6  2  0  0  0  0
  9 11  1  0  0  0  0
  9 10  1  0  0  0  0
  9 12  1  0  0  0  0
 13 62  1  0  0  0  0
 14 13  1  0  0  0  0
 15 13  1  0  0  0  0
 16 13  1  0  0  0  0
 17  5  1  0  0  0  0
 18 37  2  0  0  0  0
 18 21  1  0  0  0  0
 19 17  1  0  0  0  0
 19 20  1  0  0  0  0
 21 25  2  0  0  0  0
 22 21  1  0  0  0  0
 23 19  2  0  0  0  0
 24 23  1  0  0  0  0
 25 29  1  0  0  0  0
 25 26  1  0  0  0  0
 27 31  2  0  0  0  0
 27 23  1  0  0  0  0
 28 27  1  0  0  0  0
 29 30  1  0  0  0  0
 31 35  1  0  0  0  0
 32 31  1  0  0  0  0
 33 34  1  0  0  0  0
 33 29  2  0  0  0  0
 35 36  1  0  0  0  0
 35 17  2  0  0  0  0
 37 33  1  0  0  0  0
 38 37  1  0  0  0  0
 39  7  1  0  0  0  0
 39 57  1  0  0  0  0
 40  8  1  0  0  0  0
 40 43  1  0  0  0  0
 41 39  2  0  0  0  0
 42 41  1  0  0  0  0
 43 44  1  0  0  0  0
 45 41  1  0  0  0  0
 45 49  2  0  0  0  0
 46 45  1  0  0  0  0
 47 43  2  0  0  0  0
 47 48  1  0  0  0  0
 49 53  1  0  0  0  0
 50 49  1  0  0  0  0
 51 47  1  0  0  0  0
 52 51  1  0  0  0  0
 53 57  2  0  0  0  0
 53 54  1  0  0  0  0
 55 59  1  0  0  0  0
 55 51  2  0  0  0  0
 56 55  1  0  0  0  0
 57 58  1  0  0  0  0
 59 40  2  0  0  0  0
 60 59  1  0  0  0  0
 61  9  1  0  0  0  0
 62  3  1  0  0  0  0
 62  8  1  0  0  0  0
 63  1  1  0  0  0  0
 64  6  1  0  0  0  0
 64 65  1  0  0  0  0
 65 63  1  0  0  0  0
 65 67  1  0  0  0  0
 66 65  1  0  0  0  0
M  END
$$$$
