CSD_code = YASCIG | q = 0 | S = 0 | Stoichiometry = C32H28Br2N4Zn | MND = 4
 OpenBabel04212202123D

 67 72  0  0  0  0  0  0  0  0999 V2000
   23.6622   13.7891    8.6085 Zn  0  0  0  0  0  0  0  0  0  0  0  0
   23.8916   15.6527   10.0469 Br  0  0  0  0  0  0  0  0  0  0  0  0
   22.3345   13.8654    6.6526 Br  0  0  0  0  0  0  0  0  0  0  0  0
   23.5022   11.4055   12.0543 N   0  0  0  0  0  0  0  0  0  0  0  0
   23.3466   12.5041   11.3057 C   0  0  0  0  0  3  0  0  0  0  0  0
   23.2405   13.4874   11.7200 H   0  0  0  0  0  0  0  0  0  0  0  0
   23.3396   12.2228   10.0228 N   0  0  0  0  0  0  0  0  0  0  0  0
   23.5041   10.8690    9.9229 C   0  0  0  0  0  0  0  0  0  0  0  0
   23.6072   10.3394   11.1942 C   0  0  0  0  0  0  0  0  0  0  0  0
   23.5153   11.3841   13.4899 C   0  0  0  0  0  0  0  0  0  0  0  0
   22.9099   12.2081   13.8651 H   0  0  0  0  0  0  0  0  0  0  0  0
   24.5343   11.5026   13.8649 H   0  0  0  0  0  0  0  0  0  0  0  0
   23.1066   10.4399   13.8487 H   0  0  0  0  0  0  0  0  0  0  0  0
   23.5909   10.1800    8.6400 C   0  0  0  0  0  0  0  0  0  0  0  0
   22.7283   10.5174    7.6011 C   0  0  0  0  0  0  0  0  0  0  0  0
   21.9585   11.2541    7.7628 H   0  0  0  0  0  0  0  0  0  0  0  0
   22.8330    9.8942    6.3713 C   0  0  0  0  0  0  0  0  0  0  0  0
   22.1682   10.1846    5.5725 H   0  0  0  0  0  0  0  0  0  0  0  0
   23.7795    8.9031    6.1747 C   0  0  0  0  0  0  0  0  0  0  0  0
   23.8524    8.4049    5.2184 H   0  0  0  0  0  0  0  0  0  0  0  0
   24.6187    8.5364    7.2156 C   0  0  0  0  0  0  0  0  0  0  0  0
   25.3383    7.7415    7.0780 H   0  0  0  0  0  0  0  0  0  0  0  0
   24.5369    9.1768    8.4371 C   0  0  0  0  0  0  0  0  0  0  0  0
   25.2033    8.8985    9.2403 H   0  0  0  0  0  0  0  0  0  0  0  0
   23.7159    8.9445   11.6032 C   0  0  0  0  0  0  0  0  0  0  0  0
   22.9252    7.9853   10.9696 C   0  0  0  0  0  0  0  0  0  0  0  0
   22.2381    8.2934   10.1959 H   0  0  0  0  0  0  0  0  0  0  0  0
   23.0155    6.6555   11.3319 C   0  0  0  0  0  0  0  0  0  0  0  0
   22.3966    5.9231   10.8357 H   0  0  0  0  0  0  0  0  0  0  0  0
   23.8920    6.2619   12.3306 C   0  0  0  0  0  0  0  0  0  0  0  0
   23.9600    5.2224   12.6137 H   0  0  0  0  0  0  0  0  0  0  0  0
   24.6819    7.2068   12.9624 C   0  0  0  0  0  0  0  0  0  0  0  0
   25.3712    6.9054   13.7375 H   0  0  0  0  0  0  0  0  0  0  0  0
   24.5965    8.5399   12.6038 C   0  0  0  0  0  0  0  0  0  0  0  0
   25.2335    9.2661   13.0842 H   0  0  0  0  0  0  0  0  0  0  0  0
   26.4258   11.5281    6.4117 N   0  0  0  0  0  0  0  0  0  0  0  0
   25.4596   12.4313    6.6172 C   0  0  0  0  0  3  0  0  0  0  0  0
   24.8117   12.7868    5.8404 H   0  0  0  0  0  0  0  0  0  0  0  0
   25.4128   12.8178    7.8717 N   0  0  0  0  0  0  0  0  0  0  0  0
   26.3967   12.1293    8.5255 C   0  0  0  0  0  0  0  0  0  0  0  0
   27.0444   11.3127    7.6196 C   0  0  0  0  0  0  0  0  0  0  0  0
   26.7468   10.9428    5.1405 C   0  0  0  0  0  0  0  0  0  0  0  0
   26.1807   10.0208    4.9901 H   0  0  0  0  0  0  0  0  0  0  0  0
   27.8131   10.7234    5.0939 H   0  0  0  0  0  0  0  0  0  0  0  0
   26.4852   11.6434    4.3485 H   0  0  0  0  0  0  0  0  0  0  0  0
   26.6280   12.2670    9.9592 C   0  0  0  0  0  0  0  0  0  0  0  0
   26.6090   13.5254   10.5537 C   0  0  0  0  0  0  0  0  0  0  0  0
   26.4770   14.4031    9.9423 H   0  0  0  0  0  0  0  0  0  0  0  0
   26.7861   13.6599   11.9183 C   0  0  0  0  0  0  0  0  0  0  0  0
   26.7467   14.6421   12.3630 H   0  0  0  0  0  0  0  0  0  0  0  0
   27.0167   12.5411   12.7005 C   0  0  0  0  0  0  0  0  0  0  0  0
   27.1691   12.6461   13.7653 H   0  0  0  0  0  0  0  0  0  0  0  0
   27.0731   11.2877   12.1104 C   0  0  0  0  0  0  0  0  0  0  0  0
   27.2844   10.4144   12.7115 H   0  0  0  0  0  0  0  0  0  0  0  0
   26.8682   11.1458   10.7514 C   0  0  0  0  0  0  0  0  0  0  0  0
   26.8973   10.1659   10.2980 H   0  0  0  0  0  0  0  0  0  0  0  0
   28.2020   10.4507    7.8236 C   0  0  0  0  0  0  0  0  0  0  0  0
   29.2686   10.9136    8.5948 C   0  0  0  0  0  0  0  0  0  0  0  0
   29.2248   11.9063    9.0168 H   0  0  0  0  0  0  0  0  0  0  0  0
   30.3735   10.1135    8.8106 C   0  0  0  0  0  0  0  0  0  0  0  0
   31.1937   10.4844    9.4068 H   0  0  0  0  0  0  0  0  0  0  0  0
   30.4337    8.8427    8.2609 C   0  0  0  0  0  0  0  0  0  0  0  0
   31.2991    8.2196    8.4288 H   0  0  0  0  0  0  0  0  0  0  0  0
   29.3785    8.3746    7.4970 C   0  0  0  0  0  0  0  0  0  0  0  0
   29.4166    7.3828    7.0708 H   0  0  0  0  0  0  0  0  0  0  0  0
   28.2691    9.1708    7.2777 C   0  0  0  0  0  0  0  0  0  0  0  0
   27.4405    8.7882    6.7025 H   0  0  0  0  0  0  0  0  0  0  0  0
  1  7  1  0  0  0  0
  1  2  1  0  0  0  0
  3  1  1  0  0  0  0
  4 10  1  0  0  0  0
  5  6  1  0  0  0  0
  5  4  1  0  0  0  0
  7  5  1  0  0  0  0
  8  7  1  0  0  0  0
  8  9  2  0  0  0  0
  9 25  1  0  0  0  0
  9  4  1  0  0  0  0
 10 13  1  0  0  0  0
 10 12  1  0  0  0  0
 10 11  1  0  0  0  0
 14  8  1  0  0  0  0
 15 16  1  0  0  0  0
 15 14  2  0  0  0  0
 17 15  1  0  0  0  0
 18 17  1  0  0  0  0
 19 17  2  0  0  0  0
 19 21  1  0  0  0  0
 20 19  1  0  0  0  0
 21 23  2  0  0  0  0
 22 21  1  0  0  0  0
 23 14  1  0  0  0  0
 23 24  1  0  0  0  0
 25 34  1  0  0  0  0
 26 28  1  0  0  0  0
 26 25  2  0  0  0  0
 27 26  1  0  0  0  0
 28 30  2  0  0  0  0
 29 28  1  0  0  0  0
 30 31  1  0  0  0  0
 30 32  1  0  0  0  0
 32 33  1  0  0  0  0
 34 32  2  0  0  0  0
 34 35  1  0  0  0  0
 36 37  1  0  0  0  0
 36 41  1  0  0  0  0
 37 39  1  0  0  0  0
 38 37  1  0  0  0  0
 39 40  1  0  0  0  0
 39  1  1  0  0  0  0
 40 46  1  0  0  0  0
 41 57  1  0  0  0  0
 41 40  2  0  0  0  0
 42 36  1  0  0  0  0
 43 42  1  0  0  0  0
 44 42  1  0  0  0  0
 45 42  1  0  0  0  0
 46 47  2  0  0  0  0
 46 55  1  0  0  0  0
 47 49  1  0  0  0  0
 48 47  1  0  0  0  0
 49 50  1  0  0  0  0
 49 51  2  0  0  0  0
 51 52  1  0  0  0  0
 53 51  1  0  0  0  0
 53 54  1  0  0  0  0
 55 53  2  0  0  0  0
 56 55  1  0  0  0  0
 57 58  1  0  0  0  0
 58 60  2  0  0  0  0
 58 59  1  0  0  0  0
 60 61  1  0  0  0  0
 62 63  1  0  0  0  0
 62 60  1  0  0  0  0
 64 62  2  0  0  0  0
 65 64  1  0  0  0  0
 66 64  1  0  0  0  0
 66 57  2  0  0  0  0
 67 66  1  0  0  0  0
M  END
$$$$
