CSD_code = YASDIH | q = 0 | S = 0 | Stoichiometry = C30H24Br2N4Zn | MND = 4
 OpenBabel04212202123D

 61 66  0  0  0  0  0  0  0  0999 V2000
   -1.4173    6.0139   14.1075 C   0  0  0  0  0  3  0  0  0  0  0  0
   -0.3596    6.0145   13.9316 H   0  0  0  0  0  0  0  0  0  0  0  0
   -3.7693    9.4058   10.6620 C   0  0  0  0  0  3  0  0  0  0  0  0
   -3.4060   10.3981   10.8436 H   0  0  0  0  0  0  0  0  0  0  0  0
   -3.4942    6.5907   14.1706 C   0  0  0  0  0  0  0  0  0  0  0  0
   -3.9443    7.2576   10.5942 C   0  0  0  0  0  0  0  0  0  0  0  0
   -3.4029    5.3422   14.7552 C   0  0  0  0  0  0  0  0  0  0  0  0
   -5.0764    7.7752    9.9948 C   0  0  0  0  0  0  0  0  0  0  0  0
   -4.6776    7.3943   13.8865 C   0  0  0  0  0  0  0  0  0  0  0  0
   -3.6039    5.8687   10.8810 C   0  0  0  0  0  0  0  0  0  0  0  0
   -4.6242    8.7836   13.9471 C   0  0  0  0  0  0  0  0  0  0  0  0
   -3.7341    9.2718   14.3065 H   0  0  0  0  0  0  0  0  0  0  0  0
   -2.2813    5.4378   10.8402 C   0  0  0  0  0  0  0  0  0  0  0  0
   -1.5094    6.1045   10.4944 H   0  0  0  0  0  0  0  0  0  0  0  0
   -5.7203    9.5441   13.5823 C   0  0  0  0  0  0  0  0  0  0  0  0
   -5.6553   10.6208   13.6285 H   0  0  0  0  0  0  0  0  0  0  0  0
   -1.9532    4.1454   11.2074 C   0  0  0  0  0  0  0  0  0  0  0  0
   -0.9200    3.8335   11.1764 H   0  0  0  0  0  0  0  0  0  0  0  0
   -6.8869    8.9269   13.1643 C   0  0  0  0  0  0  0  0  0  0  0  0
   -7.7419    9.5205   12.8738 H   0  0  0  0  0  0  0  0  0  0  0  0
   -2.9425    3.2638   11.6082 C   0  0  0  0  0  0  0  0  0  0  0  0
   -2.6862    2.2555   11.9005 H   0  0  0  0  0  0  0  0  0  0  0  0
   -6.9640    7.5429   13.1452 C   0  0  0  0  0  0  0  0  0  0  0  0
   -7.8789    7.0551   12.8405 H   0  0  0  0  0  0  0  0  0  0  0  0
   -4.2677    3.6708   11.6077 C   0  0  0  0  0  0  0  0  0  0  0  0
   -5.0466    2.9809   11.8993 H   0  0  0  0  0  0  0  0  0  0  0  0
   -5.8717    6.7802   13.5093 C   0  0  0  0  0  0  0  0  0  0  0  0
   -5.9337    5.7032   13.4989 H   0  0  0  0  0  0  0  0  0  0  0  0
   -4.5992    4.9604   11.2409 C   0  0  0  0  0  0  0  0  0  0  0  0
   -5.6311    5.2750   11.2360 H   0  0  0  0  0  0  0  0  0  0  0  0
   -4.3860    4.4740   15.3830 C   0  0  0  0  0  0  0  0  0  0  0  0
   -6.2221    7.1538    9.3499 C   0  0  0  0  0  0  0  0  0  0  0  0
   -5.4276    5.0075   16.1412 C   0  0  0  0  0  0  0  0  0  0  0  0
   -5.5071    6.0781   16.2530 H   0  0  0  0  0  0  0  0  0  0  0  0
   -6.0704    5.9965    8.5872 C   0  0  0  0  0  0  0  0  0  0  0  0
   -5.0915    5.5533    8.4857 H   0  0  0  0  0  0  0  0  0  0  0  0
   -6.3412    4.1710   16.7528 C   0  0  0  0  0  0  0  0  0  0  0  0
   -7.1419    4.5934   17.3410 H   0  0  0  0  0  0  0  0  0  0  0  0
   -7.1625    5.4310    7.9578 C   0  0  0  0  0  0  0  0  0  0  0  0
   -7.0344    4.5372    7.3660 H   0  0  0  0  0  0  0  0  0  0  0  0
   -6.2287    2.7960   16.6204 C   0  0  0  0  0  0  0  0  0  0  0  0
   -6.9432    2.1453   17.1013 H   0  0  0  0  0  0  0  0  0  0  0  0
   -8.4159    6.0101    8.0770 C   0  0  0  0  0  0  0  0  0  0  0  0
   -9.2666    5.5670    7.5819 H   0  0  0  0  0  0  0  0  0  0  0  0
   -5.1960    2.2586   15.8704 C   0  0  0  0  0  0  0  0  0  0  0  0
   -5.1055    1.1879   15.7628 H   0  0  0  0  0  0  0  0  0  0  0  0
   -8.5743    7.1601    8.8321 C   0  0  0  0  0  0  0  0  0  0  0  0
   -9.5496    7.6137    8.9296 H   0  0  0  0  0  0  0  0  0  0  0  0
   -4.2775    3.0896   15.2567 C   0  0  0  0  0  0  0  0  0  0  0  0
   -3.4863    2.6649   14.6551 H   0  0  0  0  0  0  0  0  0  0  0  0
   -7.4858    7.7321    9.4636 C   0  0  0  0  0  0  0  0  0  0  0  0
   -7.6194    8.6176   10.0691 H   0  0  0  0  0  0  0  0  0  0  0  0
   -2.0740    5.0069   14.6950 N   0  0  0  0  0  0  0  0  0  0  0  0
   -1.6692    4.1575   15.0544 H   0  0  0  0  0  0  0  0  0  0  0  0
   -4.9332    9.1380   10.0586 N   0  0  0  0  0  0  0  0  0  0  0  0
   -5.5854    9.8115    9.6905 H   0  0  0  0  0  0  0  0  0  0  0  0
   -2.2396    6.9812   13.7775 N   0  0  0  0  0  0  0  0  0  0  0  0
   -3.1499    8.2998   10.9993 N   0  0  0  0  0  0  0  0  0  0  0  0
   -1.5337    8.4561   12.3953 Zn  0  0  0  0  0  0  0  0  0  0  0  0
    0.5338    7.5300   11.7131 Br  0  0  0  0  0  0  0  0  0  0  0  0
   -1.7035   10.7145   13.0802 Br  0  0  0  0  0  0  0  0  0  0  0  0
  1 53  1  0  0  0  0
  2  1  1  0  0  0  0
  3  4  1  0  0  0  0
  3 58  1  0  0  0  0
  5  7  2  0  0  0  0
  6 10  1  0  0  0  0
  6 58  1  0  0  0  0
  7 31  1  0  0  0  0
  8 55  1  0  0  0  0
  8  6  2  0  0  0  0
  9 11  1  0  0  0  0
  9  5  1  0  0  0  0
 10 29  1  0  0  0  0
 11 12  1  0  0  0  0
 13 10  2  0  0  0  0
 13 17  1  0  0  0  0
 14 13  1  0  0  0  0
 15 16  1  0  0  0  0
 15 11  2  0  0  0  0
 17 21  2  0  0  0  0
 18 17  1  0  0  0  0
 19 15  1  0  0  0  0
 20 19  1  0  0  0  0
 21 22  1  0  0  0  0
 23 19  2  0  0  0  0
 23 27  1  0  0  0  0
 24 23  1  0  0  0  0
 25 21  1  0  0  0  0
 25 26  1  0  0  0  0
 27  9  2  0  0  0  0
 28 27  1  0  0  0  0
 29 25  2  0  0  0  0
 30 29  1  0  0  0  0
 31 33  1  0  0  0  0
 32 51  1  0  0  0  0
 32  8  1  0  0  0  0
 33 34  1  0  0  0  0
 33 37  2  0  0  0  0
 35 32  2  0  0  0  0
 36 35  1  0  0  0  0
 37 38  1  0  0  0  0
 39 43  2  0  0  0  0
 39 35  1  0  0  0  0
 40 39  1  0  0  0  0
 41 37  1  0  0  0  0
 41 42  1  0  0  0  0
 43 47  1  0  0  0  0
 44 43  1  0  0  0  0
 45 41  2  0  0  0  0
 46 45  1  0  0  0  0
 47 48  1  0  0  0  0
 47 51  2  0  0  0  0
 49 31  2  0  0  0  0
 49 45  1  0  0  0  0
 50 49  1  0  0  0  0
 51 52  1  0  0  0  0
 53  7  1  0  0  0  0
 53 54  1  0  0  0  0
 55  3  1  0  0  0  0
 56 55  1  0  0  0  0
 57  1  1  0  0  0  0
 57  5  1  0  0  0  0
 58 59  1  0  0  0  0
 59 61  1  0  0  0  0
 59 57  1  0  0  0  0
 60 59  1  0  0  0  0
M  END
$$$$
