CSD_code = YASFUT | q = 0 | S = 0 | Stoichiometry = C24H24Cl2N4O2Zn | MND = 4
 OpenBabel04212202123D

 57 60  0  0  0  0  0  0  0  0999 V2000
   -4.0019    9.7363   22.7726 Zn  0  0  0  0  0  0  0  0  0  0  0  0
   -5.7884    8.5855   22.4211 Cl  0  0  0  0  0  0  0  0  0  0  0  0
   -3.1098    9.9304   24.8895 Cl  0  0  0  0  0  0  0  0  0  0  0  0
    0.6442    6.1184   26.4237 O   0  0  0  0  0  0  0  0  0  0  0  0
   -3.6488   16.6612   26.1702 O   0  0  0  0  0  0  0  0  0  0  0  0
   -2.2327    8.9969   21.9950 N   0  0  0  0  0  0  0  0  0  0  0  0
   -0.4745    8.1817   23.0274 N   0  0  0  0  0  0  0  0  0  0  0  0
   -4.3196   11.7463   22.4486 N   0  0  0  0  0  0  0  0  0  0  0  0
   -4.4308   13.7513   23.3270 N   0  0  0  0  0  0  0  0  0  0  0  0
   -1.7819    8.0426   22.7840 C   0  0  0  0  0  3  0  0  0  0  0  0
   -0.0607    9.2902   22.3495 C   0  0  0  0  0  0  0  0  0  0  0  0
   -1.1576    9.7844   21.7106 C   0  0  0  0  0  0  0  0  0  0  0  0
    0.2421    7.4896   24.0657 C   0  0  0  0  0  0  0  0  0  0  0  0
   -0.0740    8.1543   25.4104 C   0  0  0  0  0  0  0  0  0  0  0  0
    0.1935    7.2326   26.5800 C   0  0  0  0  0  0  0  0  0  0  0  0
   -0.1109    7.7811   27.9221 C   0  0  0  0  0  0  0  0  0  0  0  0
    0.4592    7.1409   29.0241 C   0  0  0  0  0  0  0  0  0  0  0  0
    0.2254    7.6005   30.3048 C   0  0  0  0  0  0  0  0  0  0  0  0
   -0.5916    8.7023   30.5018 C   0  0  0  0  0  0  0  0  0  0  0  0
   -1.1741    9.3351   29.4151 C   0  0  0  0  0  0  0  0  0  0  0  0
   -0.9387    8.8854   28.1284 C   0  0  0  0  0  0  0  0  0  0  0  0
   -3.7208   12.6211   23.2286 C   0  0  0  0  0  3  0  0  0  0  0  0
   -5.5500   13.5856   22.5640 C   0  0  0  0  0  0  0  0  0  0  0  0
   -5.4689   12.3384   22.0214 C   0  0  0  0  0  0  0  0  0  0  0  0
   -4.1319   14.8522   24.2038 C   0  0  0  0  0  0  0  0  0  0  0  0
   -4.3921   14.4573   25.6601 C   0  0  0  0  0  0  0  0  0  0  0  0
   -4.0697   15.6087   26.5978 C   0  0  0  0  0  0  0  0  0  0  0  0
   -4.3111   15.3834   28.0402 C   0  0  0  0  0  0  0  0  0  0  0  0
   -4.6409   14.1403   28.5818 C   0  0  0  0  0  0  0  0  0  0  0  0
   -4.8553   14.0136   29.9416 C   0  0  0  0  0  0  0  0  0  0  0  0
   -4.7492   15.1158   30.7755 C   0  0  0  0  0  0  0  0  0  0  0  0
   -4.4194   16.3541   30.2477 C   0  0  0  0  0  0  0  0  0  0  0  0
   -4.1993   16.4855   28.8913 C   0  0  0  0  0  0  0  0  0  0  0  0
   -2.3813    7.2468   23.1832 H   0  0  0  0  0  0  0  0  0  0  0  0
    0.9538    9.6304   22.3776 H   0  0  0  0  0  0  0  0  0  0  0  0
   -1.2498   10.6365   21.0681 H   0  0  0  0  0  0  0  0  0  0  0  0
    1.3124    7.5153   23.8524 H   0  0  0  0  0  0  0  0  0  0  0  0
   -0.0807    6.4457   24.0982 H   0  0  0  0  0  0  0  0  0  0  0  0
   -1.1297    8.4452   25.4226 H   0  0  0  0  0  0  0  0  0  0  0  0
    0.5059    9.0702   25.5412 H   0  0  0  0  0  0  0  0  0  0  0  0
    1.0895    6.2817   28.8481 H   0  0  0  0  0  0  0  0  0  0  0  0
    0.6756    7.1003   31.1494 H   0  0  0  0  0  0  0  0  0  0  0  0
   -0.7796    9.0638   31.5023 H   0  0  0  0  0  0  0  0  0  0  0  0
   -1.8211   10.1857   29.5706 H   0  0  0  0  0  0  0  0  0  0  0  0
   -1.4254    9.3803   27.3024 H   0  0  0  0  0  0  0  0  0  0  0  0
   -2.7890   12.4473   23.7294 H   0  0  0  0  0  0  0  0  0  0  0  0
   -6.2954   14.3479   22.4705 H   0  0  0  0  0  0  0  0  0  0  0  0
   -6.1459   11.8259   21.3686 H   0  0  0  0  0  0  0  0  0  0  0  0
   -4.7544   15.7067   23.9313 H   0  0  0  0  0  0  0  0  0  0  0  0
   -3.0840   15.1420   24.0882 H   0  0  0  0  0  0  0  0  0  0  0  0
   -3.7750   13.5951   25.9223 H   0  0  0  0  0  0  0  0  0  0  0  0
   -5.4389   14.1734   25.7918 H   0  0  0  0  0  0  0  0  0  0  0  0
   -4.7227   13.2658   27.9557 H   0  0  0  0  0  0  0  0  0  0  0  0
   -5.1078   13.0483   30.3542 H   0  0  0  0  0  0  0  0  0  0  0  0
   -4.9223   15.0081   31.8360 H   0  0  0  0  0  0  0  0  0  0  0  0
   -4.3343   17.2143   30.8946 H   0  0  0  0  0  0  0  0  0  0  0  0
   -3.9407   17.4406   28.4590 H   0  0  0  0  0  0  0  0  0  0  0  0
  1  3  1  0  0  0  0
  2  1  1  0  0  0  0
  4 15  2  0  0  0  0
  5 27  2  0  0  0  0
  6  1  1  0  0  0  0
  6 10  1  0  0  0  0
  7 13  1  0  0  0  0
  8  1  1  0  0  0  0
  8 22  1  0  0  0  0
  9 25  1  0  0  0  0
 10  7  1  0  0  0  0
 10 34  1  0  0  0  0
 11 35  1  0  0  0  0
 11  7  1  0  0  0  0
 12  6  1  0  0  0  0
 12 11  2  0  0  0  0
 13 38  1  0  0  0  0
 13 14  1  0  0  0  0
 14 39  1  0  0  0  0
 14 40  1  0  0  0  0
 14 15  1  0  0  0  0
 15 16  1  0  0  0  0
 16 21  2  0  0  0  0
 16 17  1  0  0  0  0
 17 18  2  0  0  0  0
 18 19  1  0  0  0  0
 18 42  1  0  0  0  0
 19 43  1  0  0  0  0
 20 44  1  0  0  0  0
 20 19  2  0  0  0  0
 21 20  1  0  0  0  0
 22  9  1  0  0  0  0
 22 46  1  0  0  0  0
 23  9  1  0  0  0  0
 24  8  1  0  0  0  0
 24 23  2  0  0  0  0
 25 26  1  0  0  0  0
 26 52  1  0  0  0  0
 26 51  1  0  0  0  0
 26 27  1  0  0  0  0
 27 28  1  0  0  0  0
 28 29  2  0  0  0  0
 28 33  1  0  0  0  0
 29 30  1  0  0  0  0
 30 54  1  0  0  0  0
 30 31  2  0  0  0  0
 31 55  1  0  0  0  0
 32 31  1  0  0  0  0
 32 56  1  0  0  0  0
 33 32  2  0  0  0  0
 36 12  1  0  0  0  0
 37 13  1  0  0  0  0
 41 17  1  0  0  0  0
 45 21  1  0  0  0  0
 47 23  1  0  0  0  0
 48 24  1  0  0  0  0
 49 25  1  0  0  0  0
 50 25  1  0  0  0  0
 53 29  1  0  0  0  0
 57 33  1  0  0  0  0
M  END
$$$$
