CSD_code = YASGEF | q = -1 | S = 0 | Stoichiometry = C18H16CdClN4O5(1-) | MND = 6
 OpenBabel04212202123D

 45 48  0  0  0  0  0  0  0  0999 V2000
    5.2173    7.2274    3.3226 Cd  0  0  0  0  0  0  0  0  0  0  0  0
    6.9191    8.9581    3.0631 Cl  0  0  0  0  0  0  0  0  0  0  0  0
    9.4061    6.9702    3.4701 N   0  0  0  0  0  0  0  0  0  0  0  0
   10.0889    7.7026    3.5625 H   0  0  0  0  0  0  0  0  0  0  0  0
    7.4686    5.9313    3.8246 N   0  0  0  0  0  0  0  0  0  0  0  0
    5.6927    8.2657   -0.8938 N   0  0  0  0  0  0  0  0  0  0  0  0
    6.2924    8.2316   -1.7008 H   0  0  0  0  0  0  0  0  0  0  0  0
    4.8637    7.7340    1.0910 N   0  0  0  0  0  0  0  0  0  0  0  0
    4.5990    5.2645    2.8725 O   0  0  0  0  0  0  0  0  0  0  0  0
    3.8998    3.3530    3.7496 O   0  0  0  0  0  0  0  0  0  0  0  0
    4.8366    6.2783    5.4597 O   0  0  0  0  0  0  0  0  0  0  0  0
    3.5545    8.3175    4.1883 O   0  0  0  0  0  0  0  0  0  0  0  0
    2.4429    8.8329    6.0451 O   0  0  0  0  0  0  0  0  0  0  0  0
    4.1693    4.5457    3.8142 C   0  0  0  0  0  0  0  0  0  0  0  0
    3.8926    5.2568    5.1814 C   0  0  0  0  0  0  0  0  0  0  0  0
    2.8787    5.6729    5.1034 H   0  0  0  0  0  0  0  0  0  0  0  0
    3.9081    4.5057    5.9840 H   0  0  0  0  0  0  0  0  0  0  0  0
    4.2902    7.3235    6.2459 C   0  0  0  0  0  0  0  0  0  0  0  0
    5.1369    7.9346    6.5825 H   0  0  0  0  0  0  0  0  0  0  0  0
    3.7626    6.9233    7.1225 H   0  0  0  0  0  0  0  0  0  0  0  0
    3.3242    8.2506    5.4257 C   0  0  0  0  0  0  0  0  0  0  0  0
    8.3321    6.7832    4.2859 C   0  0  0  0  0  0  0  0  0  0  0  0
    8.2495    7.2718    5.2391 H   0  0  0  0  0  0  0  0  0  0  0  0
    7.4380    4.6502    1.6660 C   0  0  0  0  0  0  0  0  0  0  0  0
    6.5005    4.1531    1.8589 H   0  0  0  0  0  0  0  0  0  0  0  0
    8.1574    4.4618    0.5018 C   0  0  0  0  0  0  0  0  0  0  0  0
    7.7846    3.7783   -0.2485 H   0  0  0  0  0  0  0  0  0  0  0  0
    9.3589    5.1327    0.2607 C   0  0  0  0  0  0  0  0  0  0  0  0
    9.8844    4.9546   -0.6677 H   0  0  0  0  0  0  0  0  0  0  0  0
    9.8911    6.0173    1.1794 C   0  0  0  0  0  0  0  0  0  0  0  0
   10.8198    6.5366    0.9899 H   0  0  0  0  0  0  0  0  0  0  0  0
    9.1769    6.2139    2.3500 C   0  0  0  0  0  0  0  0  0  0  0  0
    7.9542    5.5442    2.5982 C   0  0  0  0  0  0  0  0  0  0  0  0
    5.7117    7.4106    0.1643 C   0  0  0  0  0  3  0  0  0  0  0  0
    6.3626    6.5561    0.2106 H   0  0  0  0  0  0  0  0  0  0  0  0
    3.2706    9.6643    1.2740 C   0  0  0  0  0  0  0  0  0  0  0  0
    2.9077    9.4017    2.2567 H   0  0  0  0  0  0  0  0  0  0  0  0
    2.8349   10.7776    0.5859 C   0  0  0  0  0  0  0  0  0  0  0  0
    2.0846   11.4155    1.0294 H   0  0  0  0  0  0  0  0  0  0  0  0
    3.3418   11.1135   -0.6725 C   0  0  0  0  0  0  0  0  0  0  0  0
    2.9685   11.9970   -1.1711 H   0  0  0  0  0  0  0  0  0  0  0  0
    4.3140   10.3522   -1.2910 C   0  0  0  0  0  0  0  0  0  0  0  0
    4.7129   10.6203   -2.2590 H   0  0  0  0  0  0  0  0  0  0  0  0
    4.7604    9.2328   -0.6059 C   0  0  0  0  0  0  0  0  0  0  0  0
    4.2430    8.8813    0.6609 C   0  0  0  0  0  0  0  0  0  0  0  0
  1 12  1  0  0  0  0
  2  1  1  0  0  0  0
  3  4  1  0  0  0  0
  3 22  1  0  0  0  0
  5 22  2  0  0  0  0
  6 44  1  0  0  0  0
  6 34  1  0  0  0  0
  7  6  1  0  0  0  0
  8  1  1  0  0  0  0
  9  1  1  0  0  0  0
  9 14  1  0  0  0  0
 10 14  2  0  0  0  0
 11 18  1  0  0  0  0
 12 21  1  0  0  0  0
 14 15  1  0  0  0  0
 15 11  1  0  0  0  0
 15 17  1  0  0  0  0
 16 15  1  0  0  0  0
 18 19  1  0  0  0  0
 18 20  1  0  0  0  0
 21 13  2  0  0  0  0
 21 18  1  0  0  0  0
 22 23  1  0  0  0  0
 24 25  1  0  0  0  0
 24 33  1  0  0  0  0
 26 24  2  0  0  0  0
 27 26  1  0  0  0  0
 28 26  1  0  0  0  0
 28 30  2  0  0  0  0
 29 28  1  0  0  0  0
 30 32  1  0  0  0  0
 31 30  1  0  0  0  0
 32 33  2  0  0  0  0
 32  3  1  0  0  0  0
 33  5  1  0  0  0  0
 34 35  1  0  0  0  0
 34  8  1  0  0  0  0
 36 37  1  0  0  0  0
 38 39  1  0  0  0  0
 38 36  2  0  0  0  0
 40 38  1  0  0  0  0
 41 40  1  0  0  0  0
 42 40  2  0  0  0  0
 42 44  1  0  0  0  0
 43 42  1  0  0  0  0
 44 45  2  0  0  0  0
 45  8  1  0  0  0  0
 45 36  1  0  0  0  0
M  END
$$$$
