CSD_code = YASGOO | q = 0 | S = 0 | Stoichiometry = C8H14Br2N4Zn | MND = 4
 OpenBabel04212202123D

 29 31  0  0  1  0  0  0  0  0999 V2000
   -0.9661    8.8413    3.0862 Zn  0  0  0  0  0  0  0  0  0  0  0  0
   -1.5402    9.7352    5.1969 Br  0  0  0  0  0  0  0  0  0  0  0  0
   -1.9994    8.3091    1.0416 Br  0  0  0  0  0  0  0  0  0  0  0  0
    0.8190    9.7191    2.4910 N   0  0  2  0  0  0  0  0  0  0  0  0
    3.0118    9.9874    2.4690 N   0  0  0  0  0  0  0  0  0  0  0  0
    1.2854    5.2835    4.1222 N   0  0  0  0  0  0  0  0  0  0  0  0
   -0.0151    6.9963    3.6063 N   0  0  2  0  0  0  0  0  0  0  0  0
    1.1069   10.3045    1.1891 C   0  0  0  0  0  0  0  0  0  0  0  0
    2.6264   10.5761    1.1989 C   0  0  0  0  0  0  0  0  0  0  0  0
    1.9152    9.5853    3.1441 C   0  0  2  0  0  3  0  0  0  0  0  0
    2.0195    8.9939    4.5071 C   0  0  0  0  0  0  0  0  0  0  0  0
    2.2815    7.4844    4.4645 C   0  0  0  0  0  0  0  0  0  0  0  0
    1.1290    6.6240    4.0513 C   0  0  2  0  0  3  0  0  0  0  0  0
    0.0517    4.6107    3.7682 C   0  0  0  0  0  0  0  0  0  0  0  0
   -0.8206    5.8065    3.3391 C   0  0  0  0  0  0  0  0  0  0  0  0
    3.9129   10.1431    2.8845 H   0  0  0  0  0  0  0  0  0  0  0  0
    2.0447    4.8187    4.5863 H   0  0  0  0  0  0  0  0  0  0  0  0
    0.8131    9.5989    0.4085 H   0  0  0  0  0  0  0  0  0  0  0  0
    0.5126   11.2117    1.0621 H   0  0  0  0  0  0  0  0  0  0  0  0
    2.8578   11.6457    1.1733 H   0  0  0  0  0  0  0  0  0  0  0  0
    3.1454   10.0834    0.3730 H   0  0  0  0  0  0  0  0  0  0  0  0
    2.8481    9.4717    5.0341 H   0  0  0  0  0  0  0  0  0  0  0  0
    1.1022    9.1908    5.0608 H   0  0  0  0  0  0  0  0  0  0  0  0
    2.5807    7.1625    5.4663 H   0  0  0  0  0  0  0  0  0  0  0  0
    3.1160    7.2706    3.7880 H   0  0  0  0  0  0  0  0  0  0  0  0
    0.2167    3.9000    2.9545 H   0  0  0  0  0  0  0  0  0  0  0  0
   -0.3669    4.0754    4.6266 H   0  0  0  0  0  0  0  0  0  0  0  0
   -1.7538    5.8719    3.9033 H   0  0  0  0  0  0  0  0  0  0  0  0
   -1.0687    5.7767    2.2759 H   0  0  0  0  0  0  0  0  0  0  0  0
  1  7  1  0  0  0  0
  1  2  1  0  0  0  0
  3  1  1  0  0  0  0
  4  8  1  6  0  0  0
  4  1  1  0  0  0  0
  4 10  1  0  0  0  0
  5 16  1  0  0  0  0
  6 17  1  0  0  0  0
  7 15  1  6  0  0  0
  7 13  1  0  0  0  0
  8  9  1  0  0  0  0
  9  5  1  0  0  0  0
 10  5  1  6  0  0  0
 10 11  1  0  0  0  0
 11 22  1  0  0  0  0
 11 23  1  0  0  0  0
 12 11  1  0  0  0  0
 12 24  1  0  0  0  0
 13  6  1  6  0  0  0
 13 12  1  0  0  0  0
 14  6  1  0  0  0  0
 14 27  1  0  0  0  0
 15 14  1  0  0  0  0
 15 28  1  0  0  0  0
 18  8  1  0  0  0  0
 19  8  1  0  0  0  0
 20  9  1  0  0  0  0
 21  9  1  0  0  0  0
 25 12  1  0  0  0  0
 26 14  1  0  0  0  0
 29 15  1  0  0  0  0
M  END
$$$$
