CSD_code = YASNIP | q = 0 | S = 0 | Stoichiometry = C22H34Cl2Zr | MND = 12
 OpenBabel04212202123D

 59 59  0  0  1  0  0  0  0  0999 V2000
    8.3200    4.5206    5.2777 Zr  0  0  0  0  0  0  0  0  0  0  0  0
    6.0073    4.6434    4.8340 Cl  0  0  0  0  0  0  0  0  0  0  0  0
    8.7263    4.6100    2.9578 Cl  0  0  0  0  0  0  0  0  0  0  0  0
    8.9246    2.7929    7.0050 C   0  0  0  0  0  0  0  0  0  0  0  0
    9.9198    2.6883    5.9883 C   0  0  0  0  0  0  0  0  0  0  0  0
    9.2817    2.2705    4.7890 C   0  0  0  0  0  0  0  0  0  0  0  0
    7.8907    2.1399    5.0450 C   0  0  0  0  0  0  0  0  0  0  0  0
    7.6633    2.4773    6.4139 C   0  0  2  0  0  0  0  0  0  0  0  0
    9.1942    2.7864    8.4854 C   0  0  0  0  0  0  0  0  0  0  0  0
   11.4129    2.6750    6.1682 C   0  0  0  0  0  0  0  0  0  0  0  0
   10.0034    1.8443    3.5428 C   0  0  0  0  0  0  0  0  0  0  0  0
    6.8799    1.6624    4.0393 C   0  0  0  0  0  0  0  0  0  0  0  0
    6.3595    2.3345    7.1572 C   0  0  0  0  0  0  0  0  0  0  0  0
    6.1871    0.9073    7.6878 C   0  0  0  0  0  0  0  0  0  0  0  0
    8.5512    6.1451    7.1928 C   0  0  0  0  0  0  0  0  0  0  0  0
    9.8412    6.0009    6.5999 C   0  0  1  0  0  3  0  0  0  0  0  0
    9.7597    6.4807    5.2572 C   0  0  0  0  0  0  0  0  0  0  0  0
    8.4313    6.9459    5.0341 C   0  0  0  0  0  0  0  0  0  0  0  0
    7.6899    6.7393    6.2303 C   0  0  0  0  0  0  0  0  0  0  0  0
    8.1933    5.9812    8.6452 C   0  0  0  0  0  0  0  0  0  0  0  0
   11.1401    5.8239    7.3383 C   0  0  0  0  0  0  0  0  0  0  0  0
   10.9305    6.6021    4.3195 C   0  0  0  0  0  0  0  0  0  0  0  0
    7.8831    7.5933    3.7930 C   0  0  0  0  0  0  0  0  0  0  0  0
    6.3082    7.2687    6.5074 C   0  0  0  0  0  0  0  0  0  0  0  0
    6.3756    8.7109    7.0212 C   0  0  0  0  0  0  0  0  0  0  0  0
   10.0506    3.4011    8.7537 H   0  0  0  0  0  0  0  0  0  0  0  0
    9.4205    1.7643    8.8020 H   0  0  0  0  0  0  0  0  0  0  0  0
    8.3294    3.1218    9.0534 H   0  0  0  0  0  0  0  0  0  0  0  0
   11.7004    2.9942    7.1662 H   0  0  0  0  0  0  0  0  0  0  0  0
   11.9113    3.3111    5.4333 H   0  0  0  0  0  0  0  0  0  0  0  0
   11.7880    1.6592    6.0232 H   0  0  0  0  0  0  0  0  0  0  0  0
    9.3236    1.7977    2.6950 H   0  0  0  0  0  0  0  0  0  0  0  0
   10.4400    0.8525    3.6889 H   0  0  0  0  0  0  0  0  0  0  0  0
   10.8090    2.5366    3.2956 H   0  0  0  0  0  0  0  0  0  0  0  0
    5.8683    1.7424    4.4320 H   0  0  0  0  0  0  0  0  0  0  0  0
    7.0685    0.6183    3.7801 H   0  0  0  0  0  0  0  0  0  0  0  0
    6.9384    2.2575    3.1231 H   0  0  0  0  0  0  0  0  0  0  0  0
    6.3245    3.0382    7.9967 H   0  0  0  0  0  0  0  0  0  0  0  0
    5.5216    2.5735    6.4963 H   0  0  0  0  0  0  0  0  0  0  0  0
    5.2385    0.8059    8.2100 H   0  0  0  0  0  0  0  0  0  0  0  0
    6.9910    0.6561    8.3757 H   0  0  0  0  0  0  0  0  0  0  0  0
    6.2086    0.1984    6.8640 H   0  0  0  0  0  0  0  0  0  0  0  0
    9.0019    5.5207    9.2059 H   0  0  0  0  0  0  0  0  0  0  0  0
    7.2887    5.3814    8.7681 H   0  0  0  0  0  0  0  0  0  0  0  0
    7.9994    6.9579    9.0924 H   0  0  0  0  0  0  0  0  0  0  0  0
   11.0388    5.1813    8.2100 H   0  0  0  0  0  0  0  0  0  0  0  0
   11.4835    6.8000    7.6929 H   0  0  0  0  0  0  0  0  0  0  0  0
   11.9172    5.4208    6.6925 H   0  0  0  0  0  0  0  0  0  0  0  0
   10.5956    6.7115    3.2894 H   0  0  0  0  0  0  0  0  0  0  0  0
   11.5704    5.7180    4.3719 H   0  0  0  0  0  0  0  0  0  0  0  0
   11.5367    7.4745    4.5768 H   0  0  0  0  0  0  0  0  0  0  0  0
    8.5690    7.4828    2.9553 H   0  0  0  0  0  0  0  0  0  0  0  0
    7.7156    8.6594    3.9593 H   0  0  0  0  0  0  0  0  0  0  0  0
    6.9288    7.1379    3.5146 H   0  0  0  0  0  0  0  0  0  0  0  0
    5.7065    7.2486    5.5962 H   0  0  0  0  0  0  0  0  0  0  0  0
    5.8065    6.6411    7.2497 H   0  0  0  0  0  0  0  0  0  0  0  0
    5.3750    9.0915    7.2115 H   0  0  0  0  0  0  0  0  0  0  0  0
    6.8558    9.3511    6.2856 H   0  0  0  0  0  0  0  0  0  0  0  0
    6.9481    8.7673    7.9439 H   0  0  0  0  0  0  0  0  0  0  0  0
  2  1  1  0  0  0  0
  3  1  1  0  0  0  0
  4  9  1  0  0  0  0
  5 10  1  0  0  0  0
  5  4  2  0  0  0  0
  6  7  2  0  0  0  0
  6  5  1  0  0  0  0
  7  8  1  0  0  0  0
  8  1  1  6  0  0  0
  8  4  1  0  0  0  0
  8 13  1  0  0  0  0
  9 26  1  0  0  0  0
  9 27  1  0  0  0  0
  9 28  1  0  0  0  0
 10 29  1  0  0  0  0
 11 33  1  0  0  0  0
 11  6  1  0  0  0  0
 12 35  1  0  0  0  0
 12  7  1  0  0  0  0
 13 14  1  0  0  0  0
 13 38  1  0  0  0  0
 14 40  1  0  0  0  0
 14 41  1  0  0  0  0
 15 20  1  0  0  0  0
 16 15  1  0  0  0  0
 16 21  1  1  0  0  0
 17 16  1  0  0  0  0
 18 17  2  0  0  0  0
 18 19  1  0  0  0  0
 19 24  1  0  0  0  0
 19 15  2  0  0  0  0
 20 44  1  0  0  0  0
 20 45  1  0  0  0  0
 20 43  1  0  0  0  0
 21 47  1  0  0  0  0
 21 46  1  0  0  0  0
 22 50  1  0  0  0  0
 22 51  1  0  0  0  0
 22 17  1  0  0  0  0
 23 53  1  0  0  0  0
 23 18  1  0  0  0  0
 24 25  1  0  0  0  0
 24 56  1  0  0  0  0
 25 57  1  0  0  0  0
 25 59  1  0  0  0  0
 30 10  1  0  0  0  0
 31 10  1  0  0  0  0
 32 11  1  0  0  0  0
 34 11  1  0  0  0  0
 36 12  1  0  0  0  0
 37 12  1  0  0  0  0
 39 13  1  0  0  0  0
 42 14  1  0  0  0  0
 48 21  1  0  0  0  0
 49 22  1  0  0  0  0
 52 23  1  0  0  0  0
 54 23  1  0  0  0  0
 55 24  1  0  0  0  0
 58 25  1  0  0  0  0
M  END
$$$$
