CSD_code = YASPOX | q = 0 | S = 0 | Stoichiometry = C14H17ClPt | MND = 6
 OpenBabel04212202123D

 33 33  0  0  1  0  0  0  0  0999 V2000
   -3.6040   -1.3972    2.0133 Pt  0  0  0  0  0  0  0  0  0  0  0  0
   -1.8026   -2.7287    2.2396 Cl  0  0  0  0  0 15  0  0  0  0  0  0
   -5.0622    0.0836    2.5001 C   0  0  1  0  0  0  0  0  0  0  0  0
   -4.5858    1.0652    2.5099 H   0  0  0  0  0  0  0  0  0  0  0  0
   -5.3854   -0.4489    1.2534 C   0  0  0  0  0  3  0  0  0  0  0  0
   -5.1073    0.1460    0.3837 H   0  0  0  0  0  0  0  0  0  0  0  0
   -6.5122   -1.4315    1.0135 C   0  0  0  0  0  0  0  0  0  0  0  0
   -7.3197   -1.2297    1.7179 H   0  0  0  0  0  0  0  0  0  0  0  0
   -6.9149   -1.2643    0.0126 H   0  0  0  0  0  0  0  0  0  0  0  0
   -6.0665   -2.9063    1.1043 C   0  0  0  0  0  0  0  0  0  0  0  0
   -5.6441   -3.2009    0.1397 H   0  0  0  0  0  0  0  0  0  0  0  0
   -6.9422   -3.5407    1.2777 H   0  0  0  0  0  0  0  0  0  0  0  0
   -5.0321   -3.1935    2.1629 C   0  0  0  0  0  0  0  0  0  0  0  0
   -4.3729   -4.0276    1.9318 H   0  0  0  0  0  0  0  0  0  0  0  0
   -4.9977   -2.6816    3.4175 C   0  0  0  0  0  0  0  0  0  0  0  0
   -4.2806   -3.0964    4.1215 H   0  0  0  0  0  0  0  0  0  0  0  0
   -6.0408   -1.7675    4.0055 C   0  0  0  0  0  0  0  0  0  0  0  0
   -6.1139   -1.9643    5.0772 H   0  0  0  0  0  0  0  0  0  0  0  0
   -7.0129   -1.9995    3.5704 H   0  0  0  0  0  0  0  0  0  0  0  0
   -5.7063   -0.2731    3.8188 C   0  0  0  0  0  0  0  0  0  0  0  0
   -5.0160    0.0313    4.6115 H   0  0  0  0  0  0  0  0  0  0  0  0
   -6.6169    0.3228    3.9434 H   0  0  0  0  0  0  0  0  0  0  0  0
   -2.3192   -0.0489    1.2746 C   0  0  0  0  0  0  0  0  0  0  0  0
   -2.1008    0.0322   -0.0939 C   0  0  0  0  0  0  0  0  0  0  0  0
   -2.6140   -0.6430   -0.7707 H   0  0  0  0  0  0  0  0  0  0  0  0
   -1.2109    0.9636   -0.6064 C   0  0  0  0  0  0  0  0  0  0  0  0
   -1.0444    1.0169   -1.6730 H   0  0  0  0  0  0  0  0  0  0  0  0
   -0.5325    1.8179    0.2450 C   0  0  0  0  0  0  0  0  0  0  0  0
    0.1631    2.5415   -0.1548 H   0  0  0  0  0  0  0  0  0  0  0  0
   -0.7384    1.7345    1.6110 C   0  0  0  0  0  0  0  0  0  0  0  0
   -0.2017    2.3912    2.2809 H   0  0  0  0  0  0  0  0  0  0  0  0
   -1.6275    0.8036    2.1248 C   0  0  0  0  0  0  0  0  0  0  0  0
   -1.7679    0.7355    3.1984 H   0  0  0  0  0  0  0  0  0  0  0  0
  1  3  1  0  0  0  0
  3  4  1  6  0  0  0
  3 20  1  0  0  0  0
  5  3  1  0  0  0  0
  6  5  1  0  0  0  0
  7 10  1  0  0  0  0
  7  5  1  0  0  0  0
  7  8  1  0  0  0  0
  9  7  1  0  0  0  0
 10 12  1  0  0  0  0
 10 13  1  0  0  0  0
 11 10  1  0  0  0  0
 13 15  2  0  0  0  0
 14 13  1  0  0  0  0
 15 17  1  0  0  0  0
 15 16  1  0  0  0  0
 17 18  1  0  0  0  0
 19 17  1  0  0  0  0
 20 22  1  0  0  0  0
 20 17  1  0  0  0  0
 20 21  1  0  0  0  0
 23  1  1  0  0  0  0
 23 32  1  0  0  0  0
 24 23  2  0  0  0  0
 25 24  1  0  0  0  0
 26 24  1  0  0  0  0
 26 28  2  0  0  0  0
 27 26  1  0  0  0  0
 28 30  1  0  0  0  0
 29 28  1  0  0  0  0
 30 32  2  0  0  0  0
 30 31  1  0  0  0  0
 32 33  1  0  0  0  0
M  END
$$$$
