CSD_code = YASPAK | q = 0 | S = 0 | Stoichiometry = C18H12Cl2N2Pd | MND = 4
 OpenBabel04212202123D

 35 39  0  0  0  0  0  0  0  0999 V2000
    3.4951    1.6455    2.1564 Pd  0  0  0  0  0  0  0  0  0  0  0  0
    1.4780    1.8774    3.0602 Cl  0  0  0  0  0  0  0  0  0  0  0  0
    4.1069    3.4884    3.2378 Cl  0  0  0  0  0  0  0  0  0  0  0  0
    2.9539    0.1974    0.8691 N   0  0  0  0  0  0  0  0  0  0  0  0
    5.1505    1.5426    1.0190 N   0  0  0  0  0  0  0  0  0  0  0  0
    3.5274    0.4659   -0.3121 C   0  0  0  0  0  0  0  0  0  0  0  0
    2.9854   -0.0416   -1.5120 C   0  0  0  0  0  0  0  0  0  0  0  0
    3.4412    0.2089   -2.4558 H   0  0  0  0  0  0  0  0  0  0  0  0
    1.8630   -0.8204   -1.4702 C   0  0  0  0  0  0  0  0  0  0  0  0
    1.4053   -1.1804   -2.3797 H   0  0  0  0  0  0  0  0  0  0  0  0
    1.3049   -1.1843   -0.2251 C   0  0  0  0  0  0  0  0  0  0  0  0
    0.1926   -2.0343   -0.0910 C   0  0  0  0  0  0  0  0  0  0  0  0
   -0.2783   -2.4172   -0.9845 H   0  0  0  0  0  0  0  0  0  0  0  0
   -0.2732   -2.3745    1.1514 C   0  0  0  0  0  0  0  0  0  0  0  0
   -1.1307   -3.0233    1.2479 H   0  0  0  0  0  0  0  0  0  0  0  0
    0.3702   -1.9080    2.3072 C   0  0  0  0  0  0  0  0  0  0  0  0
    0.0089   -2.2168    3.2758 H   0  0  0  0  0  0  0  0  0  0  0  0
    1.4514   -1.0725    2.2156 C   0  0  0  0  0  0  0  0  0  0  0  0
    1.9745   -0.7144    3.0954 H   0  0  0  0  0  0  0  0  0  0  0  0
    1.9156   -0.6630    0.9494 C   0  0  0  0  0  0  0  0  0  0  0  0
    4.7713    1.2277   -0.2273 C   0  0  0  0  0  0  0  0  0  0  0  0
    5.5843    1.5502   -1.3344 C   0  0  0  0  0  0  0  0  0  0  0  0
    5.2506    1.3175   -2.3323 H   0  0  0  0  0  0  0  0  0  0  0  0
    6.7762    2.1886   -1.1345 C   0  0  0  0  0  0  0  0  0  0  0  0
    7.3914    2.4860   -1.9707 H   0  0  0  0  0  0  0  0  0  0  0  0
    7.2270    2.4422    0.1796 C   0  0  0  0  0  0  0  0  0  0  0  0
    8.4683    3.0336    0.4749 C   0  0  0  0  0  0  0  0  0  0  0  0
    9.1086    3.3312   -0.3425 H   0  0  0  0  0  0  0  0  0  0  0  0
    8.8562    3.2165    1.7758 C   0  0  0  0  0  0  0  0  0  0  0  0
    9.8080    3.6761    1.9961 H   0  0  0  0  0  0  0  0  0  0  0  0
    8.0383    2.7879    2.8316 C   0  0  0  0  0  0  0  0  0  0  0  0
    8.3787    2.9090    3.8482 H   0  0  0  0  0  0  0  0  0  0  0  0
    6.8198    2.2147    2.5825 C   0  0  0  0  0  0  0  0  0  0  0  0
    6.1795    1.8598    3.3825 H   0  0  0  0  0  0  0  0  0  0  0  0
    6.3733    2.0666    1.2539 C   0  0  0  0  0  0  0  0  0  0  0  0
  1  2  1  0  0  0  0
  1  3  1  0  0  0  0
  4 20  1  0  0  0  0
  4  1  1  0  0  0  0
  5 35  1  0  0  0  0
  5  1  1  0  0  0  0
  6 21  2  0  0  0  0
  6  4  1  0  0  0  0
  7  9  2  0  0  0  0
  7  6  1  0  0  0  0
  8  7  1  0  0  0  0
  9 11  1  0  0  0  0
 10  9  1  0  0  0  0
 11 12  2  0  0  0  0
 11 20  1  0  0  0  0
 12 14  1  0  0  0  0
 13 12  1  0  0  0  0
 14 15  1  0  0  0  0
 14 16  2  0  0  0  0
 16 17  1  0  0  0  0
 18 16  1  0  0  0  0
 18 19  1  0  0  0  0
 20 18  2  0  0  0  0
 21  5  1  0  0  0  0
 22 24  2  0  0  0  0
 22 21  1  0  0  0  0
 23 22  1  0  0  0  0
 24 26  1  0  0  0  0
 25 24  1  0  0  0  0
 26 27  2  0  0  0  0
 26 35  1  0  0  0  0
 27 29  1  0  0  0  0
 28 27  1  0  0  0  0
 29 30  1  0  0  0  0
 29 31  2  0  0  0  0
 31 32  1  0  0  0  0
 33 31  1  0  0  0  0
 33 34  1  0  0  0  0
 35 33  2  0  0  0  0
M  END
$$$$
