CSD_code = YASRIW | q = 0 | S = 0 | Stoichiometry = C21H16ClN3O2Pd | MND = 4
 OpenBabel04212202123D

 44 49  0  0  1  0  0  0  0  0999 V2000
    2.0725    4.6385    8.9120 Pd  0  0  2  0  0  0  0  0  0  0  0  0
    1.5186    6.0670    7.2928 Cl  0  0  0  0  0  0  0  0  0  0  0  0
    1.7105    3.1813    7.6091 O   0  0  0  0  0  0  0  0  0  0  0  0
    1.6250    1.8232    5.4368 O   0  0  0  0  0  0  0  0  0  0  0  0
    2.2354    3.2487   10.4270 N   0  0  0  0  0  0  0  0  0  0  0  0
    2.7314    6.0387   10.1519 N   0  0  0  0  0  0  0  0  0  0  0  0
    3.3333    6.9647   12.0737 N   0  0  0  0  0  0  0  0  0  0  0  0
    3.4566    7.0830   13.0647 H   0  0  0  0  0  0  0  0  0  0  0  0
    2.5772    2.0080   10.1677 C   0  0  0  0  0  0  0  0  0  0  0  0
    2.8145    1.3637   11.0184 H   0  0  0  0  0  0  0  0  0  0  0  0
    2.6563    1.3855    8.9096 C   0  0  0  0  0  0  0  0  0  0  0  0
    3.1588    0.0569    8.8585 C   0  0  0  0  0  0  0  0  0  0  0  0
    3.5403   -0.3786    9.7708 H   0  0  0  0  0  0  0  0  0  0  0  0
    3.1624   -0.6552    7.7017 C   0  0  0  0  0  0  0  0  0  0  0  0
    3.5504   -1.6617    7.6749 H   0  0  0  0  0  0  0  0  0  0  0  0
    2.6470   -0.0926    6.5184 C   0  0  0  0  0  0  0  0  0  0  0  0
    2.6538   -0.6879    5.6189 H   0  0  0  0  0  0  0  0  0  0  0  0
    2.1482    1.1808    6.5118 C   0  0  0  0  0  0  0  0  0  0  0  0
    2.1602    1.9973    7.7096 C   0  0  1  0  0  3  0  0  0  0  0  0
    1.8232    3.5923   11.7021 C   0  0  2  0  0  3  0  0  0  0  0  0
    1.1590    2.6491   12.5026 C   0  0  0  0  0  0  0  0  0  0  0  0
    0.9441    1.6750   12.0892 H   0  0  0  0  0  0  0  0  0  0  0  0
    0.7254    2.9547   13.7733 C   0  0  0  0  0  0  0  0  0  0  0  0
    0.2077    2.2081   14.3561 H   0  0  0  0  0  0  0  0  0  0  0  0
    0.9333    4.2245   14.2941 C   0  0  0  0  0  0  0  0  0  0  0  0
    0.5852    4.4726   15.2845 H   0  0  0  0  0  0  0  0  0  0  0  0
    1.5628    5.1769   13.5225 C   0  0  0  0  0  0  0  0  0  0  0  0
    1.6774    6.1772   13.9139 H   0  0  0  0  0  0  0  0  0  0  0  0
    2.0137    4.8925   12.2299 C   0  0  0  0  0  0  0  0  0  0  0  0
    2.6719    5.9338   11.4706 C   0  0  0  0  0  0  0  0  0  0  0  0
    3.8646    7.7582   11.0915 C   0  0  0  0  0  0  0  0  0  0  0  0
    4.6388    8.9073   11.1432 C   0  0  0  0  0  0  0  0  0  0  0  0
    4.9206    9.3521   12.0852 H   0  0  0  0  0  0  0  0  0  0  0  0
    5.0328    9.4474    9.9363 C   0  0  0  0  0  0  0  0  0  0  0  0
    5.6356   10.3428    9.9298 H   0  0  0  0  0  0  0  0  0  0  0  0
    4.6756    8.8551    8.7223 C   0  0  0  0  0  0  0  0  0  0  0  0
    5.0164    9.3070    7.8037 H   0  0  0  0  0  0  0  0  0  0  0  0
    3.9061    7.7125    8.6629 C   0  0  0  0  0  0  0  0  0  0  0  0
    3.6209    7.2560    7.7267 H   0  0  0  0  0  0  0  0  0  0  0  0
    3.4811    7.1630    9.8709 C   0  0  0  0  0  0  0  0  0  0  0  0
    1.5902    1.1513    4.2055 C   0  0  0  0  0  0  0  0  0  0  0  0
    1.1435    1.8514    3.5017 H   0  0  0  0  0  0  0  0  0  0  0  0
    0.9747    0.2462    4.2575 H   0  0  0  0  0  0  0  0  0  0  0  0
    2.5964    0.8850    3.8632 H   0  0  0  0  0  0  0  0  0  0  0  0
  1  2  1  1  0  0  0
  1  6  1  0  0  0  0
  1  5  1  0  0  0  0
  3 19  1  0  0  0  0
  3  1  1  0  0  0  0
  4 18  1  0  0  0  0
  5 20  1  0  0  0  0
  6 30  1  0  0  0  0
  7  8  1  0  0  0  0
  9  5  1  0  0  0  0
  9 10  1  0  0  0  0
 11  9  2  0  0  0  0
 12 11  1  0  0  0  0
 12 13  1  0  0  0  0
 14 12  2  0  0  0  0
 15 14  1  0  0  0  0
 16 14  1  0  0  0  0
 17 16  1  0  0  0  0
 18 16  2  0  0  0  0
 19 18  1  1  0  0  0
 19 11  1  0  0  0  0
 20 29  1  6  0  0  0
 20 21  1  0  0  0  0
 21 23  2  0  0  0  0
 22 21  1  0  0  0  0
 23 25  1  0  0  0  0
 23 24  1  0  0  0  0
 25 26  1  0  0  0  0
 27 28  1  0  0  0  0
 27 25  2  0  0  0  0
 29 27  1  0  0  0  0
 30  7  1  0  0  0  0
 30 29  2  0  0  0  0
 31 32  1  0  0  0  0
 31  7  1  0  0  0  0
 32 33  1  0  0  0  0
 34 32  2  0  0  0  0
 35 34  1  0  0  0  0
 36 34  1  0  0  0  0
 37 36  1  0  0  0  0
 38 36  2  0  0  0  0
 38 40  1  0  0  0  0
 39 38  1  0  0  0  0
 40  6  1  0  0  0  0
 40 31  2  0  0  0  0
 41 43  1  0  0  0  0
 41  4  1  0  0  0  0
 42 41  1  0  0  0  0
 44 41  1  0  0  0  0
M  END
$$$$
