CSD_code = YATPOB | q = 0 | S = 0 | Stoichiometry = C28H20ClN3Pd | MND = 4
 OpenBabel04212202123D

 53 60  0  0  1  0  0  0  0  0999 V2000
    0.3538    0.1751    5.8994 Pd  0  0  1  0  0  0  0  0  0  0  0  0
    0.1266    2.0640    4.7024 Cl  0  0  0  0  0  0  0  0  0  0  0  0
   -0.0941   -1.0778    4.4376 N   0  0  0  0  0  0  0  0  0  0  0  0
    0.8592    1.0432    7.6018 N   0  0  0  0  0  0  0  0  0  0  0  0
    2.0841   -0.5343   10.7037 C   0  0  0  0  0  0  0  0  0  0  0  0
    2.4551   -0.2818   11.6833 H   0  0  0  0  0  0  0  0  0  0  0  0
   -0.3583   -0.8154    3.1859 C   0  0  0  0  0  0  0  0  0  0  0  0
   -0.3038    0.2217    2.8717 H   0  0  0  0  0  0  0  0  0  0  0  0
   -0.7128   -1.8164    2.2448 C   0  0  0  0  0  0  0  0  0  0  0  0
   -0.8086   -3.1610    2.6748 C   0  0  0  0  0  0  0  0  0  0  0  0
   -0.5398   -3.4453    4.0629 C   0  0  0  0  0  0  0  0  0  0  0  0
   -0.6552   -4.7189    4.6300 C   0  0  0  0  0  3  0  0  0  0  0  0
   -0.9457   -5.5563    4.0172 H   0  0  0  0  0  0  0  0  0  0  0  0
   -0.4389   -4.9237    5.9802 C   0  0  0  0  0  0  0  0  0  0  0  0
   -0.0420   -3.8711    6.7985 C   0  0  0  0  0  0  0  0  0  0  0  0
    0.0736   -4.0596    7.8525 H   0  0  0  0  0  0  0  0  0  0  0  0
    0.1542   -2.5896    6.2846 C   0  0  0  0  0  0  0  0  0  0  0  0
    0.5570   -1.4724    6.9426 N   0  0  0  0  0  0  0  0  0  0  0  0
    1.0802   -1.2753    8.1798 C   0  0  0  0  0  0  0  0  0  0  0  0
    1.2052    0.1079    8.5490 C   0  0  1  0  0  3  0  0  0  0  0  0
    0.9425    2.3167    7.8787 C   0  0  0  0  0  0  0  0  0  0  0  0
    0.6660    3.0160    7.0966 H   0  0  0  0  0  0  0  0  0  0  0  0
    1.3822    2.8072    9.1355 C   0  0  0  0  0  0  0  0  0  0  0  0
    1.7668    1.8845   10.1370 C   0  0  0  0  0  0  0  0  0  0  0  0
    1.6875    0.4788    9.8244 C   0  0  0  0  0  0  0  0  0  0  0  0
    2.0453   -1.8645   10.3279 C   0  0  0  0  0  0  0  0  0  0  0  0
    1.5535   -2.2304    9.0793 C   0  0  0  0  0  0  0  0  0  0  0  0
    1.5823   -3.2712    8.8044 H   0  0  0  0  0  0  0  0  0  0  0  0
    2.5159   -2.9350   11.2659 C   0  0  0  0  0  0  0  0  0  0  0  0
    3.0789   -2.5114   12.0930 H   0  0  0  0  0  0  0  0  0  0  0  0
    3.1448   -3.6531   10.7434 H   0  0  0  0  0  0  0  0  0  0  0  0
    1.6617   -3.4751   11.6744 H   0  0  0  0  0  0  0  0  0  0  0  0
    2.2054    2.3909   11.3686 C   0  0  0  0  0  0  0  0  0  0  0  0
    2.5018    1.7149   12.1546 H   0  0  0  0  0  0  0  0  0  0  0  0
    2.2610    3.7451   11.5945 C   0  0  0  0  0  0  0  0  0  0  0  0
    2.6015    4.1156   12.5502 H   0  0  0  0  0  0  0  0  0  0  0  0
    1.8824    4.6513   10.6007 C   0  0  0  0  0  0  0  0  0  0  0  0
    1.9356    5.7119   10.7948 H   0  0  0  0  0  0  0  0  0  0  0  0
    1.4477    4.1887    9.3861 C   0  0  0  0  0  0  0  0  0  0  0  0
    1.1510    4.8718    8.6044 H   0  0  0  0  0  0  0  0  0  0  0  0
   -0.1597   -2.3717    4.8993 C   0  0  0  0  0  0  0  0  0  0  0  0
   -0.6096   -6.2865    6.5810 C   0  0  0  0  0  0  0  0  0  0  0  0
   -1.1756   -6.2283    7.5085 H   0  0  0  0  0  0  0  0  0  0  0  0
    0.3646   -6.7175    6.8117 H   0  0  0  0  0  0  0  0  0  0  0  0
   -1.1248   -6.9547    5.8966 H   0  0  0  0  0  0  0  0  0  0  0  0
   -1.1585   -4.1341    1.7281 C   0  0  0  0  0  0  0  0  0  0  0  0
   -1.2331   -5.1690    2.0213 H   0  0  0  0  0  0  0  0  0  0  0  0
   -1.4032   -3.7897    0.4206 C   0  0  0  0  0  0  0  0  0  0  0  0
   -1.6686   -4.5544   -0.2945 H   0  0  0  0  0  0  0  0  0  0  0  0
   -1.3128   -2.4594    0.0033 C   0  0  0  0  0  0  0  0  0  0  0  0
   -1.5120   -2.2068   -1.0271 H   0  0  0  0  0  0  0  0  0  0  0  0
   -0.9717   -1.4842    0.9038 C   0  0  0  0  0  0  0  0  0  0  0  0
   -0.8952   -0.4503    0.6019 H   0  0  0  0  0  0  0  0  0  0  0  0
  1  2  1  1  0  0  0
  1 18  1  0  0  0  0
  1  4  1  0  0  0  0
  3 41  1  0  0  0  0
  3  1  1  0  0  0  0
  4 21  1  0  0  0  0
  4 20  1  0  0  0  0
  5  6  1  0  0  0  0
  7  3  1  0  0  0  0
  8  7  1  0  0  0  0
  9 10  1  0  0  0  0
  9  7  2  0  0  0  0
 10 11  2  0  0  0  0
 11 12  1  0  0  0  0
 11 41  1  0  0  0  0
 12 14  1  0  0  0  0
 13 12  1  0  0  0  0
 14 42  1  0  0  0  0
 14 15  2  0  0  0  0
 15 16  1  0  0  0  0
 17 15  1  0  0  0  0
 17 18  1  0  0  0  0
 18 19  1  0  0  0  0
 19 27  2  0  0  0  0
 20 19  1  6  0  0  0
 20 25  1  0  0  0  0
 21 23  2  0  0  0  0
 22 21  1  0  0  0  0
 23 39  1  0  0  0  0
 23 24  1  0  0  0  0
 24 33  1  0  0  0  0
 25 24  2  0  0  0  0
 25  5  1  0  0  0  0
 26  5  2  0  0  0  0
 26 29  1  0  0  0  0
 27 26  1  0  0  0  0
 28 27  1  0  0  0  0
 29 32  1  0  0  0  0
 29 30  1  0  0  0  0
 31 29  1  0  0  0  0
 33 35  2  0  0  0  0
 33 34  1  0  0  0  0
 35 36  1  0  0  0  0
 37 38  1  0  0  0  0
 37 35  1  0  0  0  0
 39 37  2  0  0  0  0
 40 39  1  0  0  0  0
 41 17  2  0  0  0  0
 42 44  1  0  0  0  0
 42 43  1  0  0  0  0
 45 42  1  0  0  0  0
 46 47  1  0  0  0  0
 46 10  1  0  0  0  0
 48 46  2  0  0  0  0
 49 48  1  0  0  0  0
 50 48  1  0  0  0  0
 50 52  2  0  0  0  0
 51 50  1  0  0  0  0
 52  9  1  0  0  0  0
 53 52  1  0  0  0  0
M  END
$$$$
