CSD_code = YATPUH | q = 0 | S = 0 | Stoichiometry = C28H20ClN3Pt | MND = 4
 OpenBabel04212202123D

 53 60  0  0  1  0  0  0  0  0999 V2000
    2.1809    9.9138    7.5182 Pt  0  0  1  0  0  0  0  0  0  0  0  0
    2.4395    8.0089    8.7299 Cl  0  0  0  0  0  0  0  0  0  0  0  0
    1.6971    9.0324    5.8322 N   0  0  0  0  0  0  0  0  0  0  0  0
    1.9588   11.5570    6.4725 N   0  0  0  0  0  0  0  0  0  0  0  0
    2.6210   11.1561    8.9730 N   0  0  0  0  0  0  0  0  0  0  0  0
    1.4059    9.9532    4.8522 C   0  0  0  0  0  0  0  0  0  0  0  0
    1.1075   12.2767    4.2561 C   0  0  0  0  0  0  0  0  0  0  0  0
    1.0702   13.3245    4.4966 H   0  0  0  0  0  0  0  0  0  0  0  0
    2.6205   12.4601    8.5342 C   0  0  1  0  0  3  0  0  0  0  0  0
    2.9510   13.5330    9.3909 C   0  0  0  0  0  0  0  0  0  0  0  0
    2.2929   12.6858    7.1543 C   0  0  0  0  0  0  0  0  0  0  0  0
    0.7059   11.8906    2.9809 C   0  0  0  0  0  0  0  0  0  0  0  0
    1.2316    7.2423    4.3100 C   0  0  0  0  0  0  0  0  0  0  0  0
    1.5098   11.3410    5.2066 C   0  0  0  0  0  0  0  0  0  0  0  0
    1.6096    7.7540    5.5754 C   0  0  0  0  0  0  0  0  0  0  0  0
    1.8383    7.0689    6.3826 H   0  0  0  0  0  0  0  0  0  0  0  0
    2.9235   10.8839   10.2149 C   0  0  0  0  0  0  0  0  0  0  0  0
    2.9174    9.8419   10.5103 H   0  0  0  0  0  0  0  0  0  0  0  0
    2.3977   13.9902    6.6762 C   0  0  0  0  0  0  0  0  0  0  0  0
    2.2597   14.2062    5.6315 H   0  0  0  0  0  0  0  0  0  0  0  0
    0.6755   10.5547    2.6311 C   0  0  0  0  0  3  0  0  0  0  0  0
    0.3706   10.2837    1.6339 H   0  0  0  0  0  0  0  0  0  0  0  0
    1.0011    9.5588    3.5580 C   0  0  0  0  0  0  0  0  0  0  0  0
    2.7196   15.0496    7.5191 C   0  0  0  0  0  0  0  0  0  0  0  0
    2.9696   14.8268    8.8591 C   0  0  0  0  0  0  0  0  0  0  0  0
    3.2061   15.6662    9.4918 H   0  0  0  0  0  0  0  0  0  0  0  0
    3.2762   13.2343   10.7637 C   0  0  0  0  0  0  0  0  0  0  0  0
    0.9259    8.1483    3.2674 C   0  0  0  0  0  0  0  0  0  0  0  0
    3.2616   11.8780   11.1655 C   0  0  0  0  0  0  0  0  0  0  0  0
    0.4997    6.2631    1.8202 C   0  0  0  0  0  0  0  0  0  0  0  0
    0.2199    5.8766    0.8512 H   0  0  0  0  0  0  0  0  0  0  0  0
    2.7818   16.4346    6.9488 C   0  0  0  0  0  0  0  0  0  0  0  0
    3.1491   17.1451    7.6846 H   0  0  0  0  0  0  0  0  0  0  0  0
    1.7900   16.7524    6.6272 H   0  0  0  0  0  0  0  0  0  0  0  0
    3.4373   16.4594    6.0797 H   0  0  0  0  0  0  0  0  0  0  0  0
    0.3208   12.9492    1.9918 C   0  0  0  0  0  0  0  0  0  0  0  0
   -0.0948   12.5096    1.0891 H   0  0  0  0  0  0  0  0  0  0  0  0
    1.1949   13.5392    1.7164 H   0  0  0  0  0  0  0  0  0  0  0  0
   -0.4148   13.6259    2.4233 H   0  0  0  0  0  0  0  0  0  0  0  0
    1.1557    5.8563    4.0869 C   0  0  0  0  0  0  0  0  0  0  0  0
    1.3888    5.1871    4.9014 H   0  0  0  0  0  0  0  0  0  0  0  0
    0.5633    7.6212    2.0199 C   0  0  0  0  0  0  0  0  0  0  0  0
    0.3325    8.2831    1.2007 H   0  0  0  0  0  0  0  0  0  0  0  0
    0.7922    5.3734    2.8571 C   0  0  0  0  0  0  0  0  0  0  0  0
    0.7321    4.3097    2.6829 H   0  0  0  0  0  0  0  0  0  0  0  0
    3.6170   14.2021   11.7192 C   0  0  0  0  0  0  0  0  0  0  0  0
    3.6337   15.2456   11.4484 H   0  0  0  0  0  0  0  0  0  0  0  0
    3.9235   12.4987   13.3957 C   0  0  0  0  0  0  0  0  0  0  0  0
    4.1798   12.2332   14.4102 H   0  0  0  0  0  0  0  0  0  0  0  0
    3.9336   13.8407   13.0066 C   0  0  0  0  0  0  0  0  0  0  0  0
    4.1959   14.6010   13.7275 H   0  0  0  0  0  0  0  0  0  0  0  0
    3.5892   11.5287   12.4873 C   0  0  0  0  0  0  0  0  0  0  0  0
    3.5739   10.4858   12.7663 H   0  0  0  0  0  0  0  0  0  0  0  0
  1  2  1  1  0  0  0
  1  5  1  0  0  0  0
  3  1  1  0  0  0  0
  4 11  1  0  0  0  0
  4  1  1  0  0  0  0
  5 17  1  0  0  0  0
  6 14  2  0  0  0  0
  6  3  1  0  0  0  0
  7  8  1  0  0  0  0
  7 14  1  0  0  0  0
  9 11  1  6  0  0  0
  9  5  1  0  0  0  0
  9 10  1  0  0  0  0
 10 27  2  0  0  0  0
 12  7  2  0  0  0  0
 13 15  2  0  0  0  0
 14  4  1  0  0  0  0
 15  3  1  0  0  0  0
 15 16  1  0  0  0  0
 17 18  1  0  0  0  0
 17 29  2  0  0  0  0
 19 11  2  0  0  0  0
 19 24  1  0  0  0  0
 20 19  1  0  0  0  0
 21 12  1  0  0  0  0
 21 23  1  0  0  0  0
 22 21  1  0  0  0  0
 23  6  1  0  0  0  0
 24 25  2  0  0  0  0
 25 10  1  0  0  0  0
 25 26  1  0  0  0  0
 27 29  1  0  0  0  0
 27 46  1  0  0  0  0
 28 23  2  0  0  0  0
 28 13  1  0  0  0  0
 29 52  1  0  0  0  0
 30 42  2  0  0  0  0
 30 44  1  0  0  0  0
 31 30  1  0  0  0  0
 32 24  1  0  0  0  0
 32 33  1  0  0  0  0
 34 32  1  0  0  0  0
 35 32  1  0  0  0  0
 36 39  1  0  0  0  0
 36 12  1  0  0  0  0
 37 36  1  0  0  0  0
 38 36  1  0  0  0  0
 40 13  1  0  0  0  0
 40 41  1  0  0  0  0
 42 28  1  0  0  0  0
 43 42  1  0  0  0  0
 44 40  2  0  0  0  0
 45 44  1  0  0  0  0
 46 50  2  0  0  0  0
 47 46  1  0  0  0  0
 48 49  1  0  0  0  0
 50 48  1  0  0  0  0
 50 51  1  0  0  0  0
 52 53  1  0  0  0  0
 52 48  2  0  0  0  0
M  END
$$$$
