CSD_code = YATPIV | q = 0 | S = 0 | Stoichiometry = C28H20ClN3Ni | MND = 4
 OpenBabel04212202123D

 53 60  0  0  1  0  0  0  0  0999 V2000
    2.9260    1.0860    5.6313 C   0  0  0  0  0  0  0  0  0  0  0  0
    3.2274    0.4009    6.4142 H   0  0  0  0  0  0  0  0  0  0  0  0
    2.4620    0.5573    4.3995 C   0  0  0  0  0  0  0  0  0  0  0  0
    2.4119   -0.8328    4.1937 C   0  0  0  0  0  0  0  0  0  0  0  0
    2.7373   -1.4873    4.9885 H   0  0  0  0  0  0  0  0  0  0  0  0
    1.9565   -1.3397    3.0048 C   0  0  0  0  0  0  0  0  0  0  0  0
    1.9165   -2.4066    2.8449 H   0  0  0  0  0  0  0  0  0  0  0  0
    1.5401   -0.4716    1.9915 C   0  0  0  0  0  0  0  0  0  0  0  0
    1.1838   -0.8785    1.0566 H   0  0  0  0  0  0  0  0  0  0  0  0
    1.5797    0.8895    2.1725 C   0  0  0  0  0  0  0  0  0  0  0  0
    1.2548    1.5385    1.3748 H   0  0  0  0  0  0  0  0  0  0  0  0
    2.0402    1.4396    3.3772 C   0  0  0  0  0  0  0  0  0  0  0  0
    2.1124    2.8509    3.6480 C   0  0  0  0  0  0  0  0  0  0  0  0
    2.6197    3.2546    4.8994 C   0  0  0  0  0  0  0  0  0  0  0  0
    2.7489    4.6353    5.2417 C   0  0  0  0  0  0  0  0  0  0  0  0
    2.2548    5.5786    4.3451 C   0  0  0  0  0  0  0  0  0  0  0  0
    2.2285    6.6242    4.6017 H   0  0  0  0  0  0  0  0  0  0  0  0
    1.7358    5.1849    3.1139 C   0  0  0  0  0  0  0  0  0  0  0  0
    1.6913    3.8487    2.7611 C   0  0  0  0  0  3  0  0  0  0  0  0
    1.2969    3.5771    1.7954 H   0  0  0  0  0  0  0  0  0  0  0  0
    1.2400    6.2386    2.1695 C   0  0  0  0  0  0  0  0  0  0  0  0
    0.6760    5.7985    1.3514 H   0  0  0  0  0  0  0  0  0  0  0  0
    2.0819    6.7887    1.7486 H   0  0  0  0  0  0  0  0  0  0  0  0
    0.6044    6.9515    2.6915 H   0  0  0  0  0  0  0  0  0  0  0  0
    4.2215    4.2107   10.1514 C   0  0  0  0  0  0  0  0  0  0  0  0
    4.1358    3.1852   10.4892 H   0  0  0  0  0  0  0  0  0  0  0  0
    4.6266    5.2055   11.0779 C   0  0  0  0  0  0  0  0  0  0  0  0
    4.8944    4.8672   12.4163 C   0  0  0  0  0  0  0  0  0  0  0  0
    4.7811    3.8384   12.7242 H   0  0  0  0  0  0  0  0  0  0  0  0
    5.2916    5.8301   13.3066 C   0  0  0  0  0  0  0  0  0  0  0  0
    5.4977    5.5725   14.3345 H   0  0  0  0  0  0  0  0  0  0  0  0
    5.4312    7.1549   12.8833 C   0  0  0  0  0  0  0  0  0  0  0  0
    5.7436    7.9086   13.5912 H   0  0  0  0  0  0  0  0  0  0  0  0
    5.1764    7.5064   11.5801 C   0  0  0  0  0  0  0  0  0  0  0  0
    5.2901    8.5354   11.2782 H   0  0  0  0  0  0  0  0  0  0  0  0
    4.7683    6.5448   10.6447 C   0  0  0  0  0  0  0  0  0  0  0  0
    4.4828    6.8286    9.2633 C   0  0  0  0  0  0  0  0  0  0  0  0
    4.0592    5.7604    8.4473 C   0  0  1  0  0  3  0  0  0  0  0  0
    3.7314    5.9577    7.0711 C   0  0  0  0  0  0  0  0  0  0  0  0
    3.9477    7.2190    6.5233 C   0  0  0  0  0  0  0  0  0  0  0  0
    3.8205    7.3924    5.4681 H   0  0  0  0  0  0  0  0  0  0  0  0
    4.3831    8.2747    7.3209 C   0  0  0  0  0  0  0  0  0  0  0  0
    4.6193    8.0893    8.6705 C   0  0  0  0  0  0  0  0  0  0  0  0
    4.9420    8.9293    9.2639 H   0  0  0  0  0  0  0  0  0  0  0  0
    4.5772    9.6217    6.6916 C   0  0  0  0  0  0  0  0  0  0  0  0
    5.1474    9.5335    5.7685 H   0  0  0  0  0  0  0  0  0  0  0  0
    5.0996   10.2973    7.3637 H   0  0  0  0  0  0  0  0  0  0  0  0
    3.6107   10.0619    6.4454 H   0  0  0  0  0  0  0  0  0  0  0  0
    3.7085    1.5621    8.6038 Cl  0  0  0  0  0  0  0  0  0  0  0  0
    3.3006    4.8172    6.4704 N   0  0  0  0  0  0  0  0  0  0  0  0
    3.0011    2.3677    5.8781 N   0  0  0  0  0  0  0  0  0  0  0  0
    3.9524    4.4660    8.8977 N   0  0  0  0  0  0  0  0  0  0  0  0
    3.4959    3.2642    7.4880 Ni  0  0  2  0  0  0  0  0  0  0  0  0
  1 51  1  0  0  0  0
  1  2  1  0  0  0  0
  3  1  2  0  0  0  0
  4  3  1  0  0  0  0
  4  5  1  0  0  0  0
  6  4  2  0  0  0  0
  7  6  1  0  0  0  0
  8 10  2  0  0  0  0
  8  6  1  0  0  0  0
  9  8  1  0  0  0  0
 10 12  1  0  0  0  0
 11 10  1  0  0  0  0
 12 13  2  0  0  0  0
 12  3  1  0  0  0  0
 13 14  1  0  0  0  0
 14 15  2  0  0  0  0
 14 51  1  0  0  0  0
 15 50  1  0  0  0  0
 16 17  1  0  0  0  0
 16 15  1  0  0  0  0
 18 16  2  0  0  0  0
 19 18  1  0  0  0  0
 19 13  1  0  0  0  0
 20 19  1  0  0  0  0
 21 24  1  0  0  0  0
 21 18  1  0  0  0  0
 22 21  1  0  0  0  0
 23 21  1  0  0  0  0
 25 26  1  0  0  0  0
 25 27  2  0  0  0  0
 27 28  1  0  0  0  0
 28 29  1  0  0  0  0
 28 30  2  0  0  0  0
 30 31  1  0  0  0  0
 32 30  1  0  0  0  0
 32 33  1  0  0  0  0
 34 32  2  0  0  0  0
 35 34  1  0  0  0  0
 36 27  1  0  0  0  0
 36 34  1  0  0  0  0
 37 36  2  0  0  0  0
 38 39  1  6  0  0  0
 38 52  1  0  0  0  0
 38 37  1  0  0  0  0
 40 39  2  0  0  0  0
 40 42  1  0  0  0  0
 41 40  1  0  0  0  0
 42 43  2  0  0  0  0
 43 37  1  0  0  0  0
 43 44  1  0  0  0  0
 45 42  1  0  0  0  0
 45 47  1  0  0  0  0
 46 45  1  0  0  0  0
 48 45  1  0  0  0  0
 50 39  1  0  0  0  0
 50 53  1  0  0  0  0
 51 53  1  0  0  0  0
 52 25  1  0  0  0  0
 53 49  1  1  0  0  0
 53 52  1  0  0  0  0
M  END
$$$$
