CSD_code = YATZOK | q = 0 | S = 0 | Stoichiometry = C18H20ClCoN2O5 | MND = 6
 OpenBabel04212202123D

 47 50  0  0  1  0  0  0  0  0999 V2000
    7.4647    1.9509   12.0600 Co  0  0  0  0  0  0  0  0  0  0  0  0
    7.4031    3.9516   12.7720 Cl  0  0  0  0  0  0  0  0  0  0  0  0
    6.8427    1.2106   13.6645 O   0  0  0  0  0  0  0  0  0  0  0  0
    9.2224    1.6837   12.6760 O   0  0  0  0  0  0  0  0  0  0  0  0
    6.5532    0.1747   16.0341 O   0  0  0  0  0  0  0  0  0  0  0  0
   11.3128    1.5265   14.2291 O   0  0  0  0  0  0  0  0  0  0  0  0
    7.6488   -0.2126   11.4794 O   0  0  0  0  0  0  0  0  0  0  0  0
    8.0847    2.5264   10.4114 N   0  0  2  0  0  0  0  0  0  0  0  0
    5.7494    2.1598   11.3858 N   0  0  2  0  0  0  0  0  0  0  0  0
   10.2759    2.2889   12.2648 C   0  0  0  0  0  0  0  0  0  0  0  0
   11.4601    2.2400   13.0788 C   0  0  0  0  0  0  0  0  0  0  0  0
   12.6097    2.8727   12.6756 C   0  0  0  0  0  0  0  0  0  0  0  0
   12.6653    3.5571   11.4526 C   0  0  0  0  0  0  0  0  0  0  0  0
   11.5729    3.5948   10.6366 C   0  0  0  0  0  0  0  0  0  0  0  0
   10.3679    2.9675   11.0175 C   0  0  0  0  0  0  0  0  0  0  0  0
    9.2567    2.9894   10.1374 C   0  0  0  0  0  3  0  0  0  0  0  0
    7.0482    2.5285    9.4047 C   0  0  0  0  0  0  0  0  0  0  0  0
    5.7369    2.8550   10.1153 C   0  0  0  0  0  0  0  0  0  0  0  0
    4.6306    1.9535   11.9966 C   0  0  0  0  0  3  0  0  0  0  0  0
    4.4869    1.4070   13.2954 C   0  0  0  0  0  0  0  0  0  0  0  0
    3.1929    1.2208   13.8299 C   0  0  0  0  0  0  0  0  0  0  0  0
    3.0217    0.7114   15.0827 C   0  0  0  0  0  0  0  0  0  0  0  0
    4.1359    0.3539   15.8575 C   0  0  0  0  0  0  0  0  0  0  0  0
    5.4100    0.5144   15.3753 C   0  0  0  0  0  0  0  0  0  0  0  0
    5.6345    1.0722   14.0672 C   0  0  0  0  0  0  0  0  0  0  0  0
    6.4500   -0.2730   17.3599 C   0  0  0  0  0  0  0  0  0  0  0  0
   12.3794    1.5046   15.1408 C   0  0  0  0  0  0  0  0  0  0  0  0
   13.4914    2.8570   13.2972 H   0  0  0  0  0  0  0  0  0  0  0  0
   13.5839    4.0466   11.1680 H   0  0  0  0  0  0  0  0  0  0  0  0
   11.6097    4.1135    9.6899 H   0  0  0  0  0  0  0  0  0  0  0  0
    7.1843   -0.6082   12.2273 H   0  0  0  0  0  0  0  0  0  0  0  0
    8.5861   -0.2983   11.6976 H   0  0  0  0  0  0  0  0  0  0  0  0
    9.4297    3.4132    9.1464 H   0  0  0  0  0  0  0  0  0  0  0  0
    6.9881    1.5219    8.9731 H   0  0  0  0  0  0  0  0  0  0  0  0
    7.2608    3.2482    8.6062 H   0  0  0  0  0  0  0  0  0  0  0  0
    5.6963    3.9322   10.3182 H   0  0  0  0  0  0  0  0  0  0  0  0
    4.8697    2.5682    9.5108 H   0  0  0  0  0  0  0  0  0  0  0  0
    3.7060    2.2221   11.4826 H   0  0  0  0  0  0  0  0  0  0  0  0
    2.3405    1.4956   13.2260 H   0  0  0  0  0  0  0  0  0  0  0  0
    2.0332    0.5755   15.4933 H   0  0  0  0  0  0  0  0  0  0  0  0
    3.9690   -0.0485   16.8445 H   0  0  0  0  0  0  0  0  0  0  0  0
    5.9633    0.4703   18.0001 H   0  0  0  0  0  0  0  0  0  0  0  0
    7.4733   -0.4255   17.6996 H   0  0  0  0  0  0  0  0  0  0  0  0
    5.9021   -1.2203   17.4260 H   0  0  0  0  0  0  0  0  0  0  0  0
   13.2643    1.0161   14.7164 H   0  0  0  0  0  0  0  0  0  0  0  0
   12.0255    0.9286   15.9943 H   0  0  0  0  0  0  0  0  0  0  0  0
   12.6479    2.5133   15.4719 H   0  0  0  0  0  0  0  0  0  0  0  0
  1  4  1  0  0  0  0
  1  2  1  0  0  0  0
  1  3  1  0  0  0  0
  3 25  1  0  0  0  0
  5 26  1  0  0  0  0
  6 27  1  0  0  0  0
  7 32  1  0  0  0  0
  7 31  1  0  0  0  0
  8 16  1  1  0  0  0
  8  1  1  0  0  0  0
  9 19  1  1  0  0  0
  9  1  1  0  0  0  0
 10  4  1  0  0  0  0
 10 11  1  0  0  0  0
 11  6  1  0  0  0  0
 12 11  2  0  0  0  0
 12 28  1  0  0  0  0
 13 12  1  0  0  0  0
 14 15  1  0  0  0  0
 14 13  2  0  0  0  0
 15 10  2  0  0  0  0
 16 15  1  0  0  0  0
 17 18  1  0  0  0  0
 17  8  1  0  0  0  0
 18 36  1  0  0  0  0
 18  9  1  0  0  0  0
 19 20  1  0  0  0  0
 20 21  2  0  0  0  0
 20 25  1  0  0  0  0
 21 22  1  0  0  0  0
 22 40  1  0  0  0  0
 22 23  2  0  0  0  0
 23 41  1  0  0  0  0
 24 23  1  0  0  0  0
 24  5  1  0  0  0  0
 25 24  2  0  0  0  0
 26 44  1  0  0  0  0
 26 43  1  0  0  0  0
 26 42  1  0  0  0  0
 27 47  1  0  0  0  0
 27 46  1  0  0  0  0
 29 13  1  0  0  0  0
 30 14  1  0  0  0  0
 33 16  1  0  0  0  0
 34 17  1  0  0  0  0
 35 17  1  0  0  0  0
 37 18  1  0  0  0  0
 38 19  1  0  0  0  0
 39 21  1  0  0  0  0
 45 27  1  0  0  0  0
M  END
$$$$
