CSD_code = YAVCED | q = 0 | S = 0 | Stoichiometry = C28H28Cl2F2O4P2Pt | MND = 4
 OpenBabel04212202123D

 67 70  0  0  0  0  0  0  0  0999 V2000
    0.7164    3.9241    6.7165 Pt  0  0  0  0  0  0  0  0  0  0  0  0
    0.4675    5.8390    8.0172 Cl  0  0  0  0  0  0  0  0  0  0  0  0
    2.0687    4.7224    4.9975 Cl  0  0  0  0  0  0  0  0  0  0  0  0
   -0.5228    3.3432    8.4950 P   0  0  0  0  0  4  0  0  0  0  0  0
    1.0264    2.2184    5.2903 P   0  0  0  0  0  4  0  0  0  0  0  0
   -1.1134    1.8220    8.5476 F   0  0  0  0  0  0  0  0  0  0  0  0
    0.4074    0.7637    5.6970 F   0  0  0  0  0  0  0  0  0  0  0  0
   -1.6336    2.5994   11.0545 O   0  0  0  0  0  0  0  0  0  0  0  0
   -2.3407    3.3341    6.5857 O   0  0  0  0  0  0  0  0  0  0  0  0
    2.5346    1.4651    7.3170 O   0  0  0  0  0  0  0  0  0  0  0  0
    1.0499    0.2876    3.1435 O   0  0  0  0  0  0  0  0  0  0  0  0
    0.3437    3.3380   10.0807 C   0  0  0  0  0  0  0  0  0  0  0  0
   -0.3315    2.9211   11.2357 C   0  0  0  0  0  0  0  0  0  0  0  0
    0.3571    2.8685   12.4421 C   0  0  0  0  0  0  0  0  0  0  0  0
    1.6968    3.2206   12.4863 C   0  0  0  0  0  0  0  0  0  0  0  0
    2.3673    3.6180   11.3425 C   0  0  0  0  0  0  0  0  0  0  0  0
    1.6865    3.6708   10.1388 C   0  0  0  0  0  0  0  0  0  0  0  0
   -2.3980    2.1821   12.1584 C   0  0  0  0  0  0  0  0  0  0  0  0
   -2.0679    4.2612    8.6743 C   0  0  0  0  0  0  0  0  0  0  0  0
   -2.8850    4.1235    7.5476 C   0  0  0  0  0  0  0  0  0  0  0  0
   -4.1058    4.7788    7.4942 C   0  0  0  0  0  0  0  0  0  0  0  0
   -4.4770    5.5914    8.5552 C   0  0  0  0  0  0  0  0  0  0  0  0
   -3.6455    5.7660    9.6477 C   0  0  0  0  0  0  0  0  0  0  0  0
   -2.4286    5.1060    9.7055 C   0  0  0  0  0  0  0  0  0  0  0  0
   -3.1321    2.9712    5.4776 C   0  0  0  0  0  0  0  0  0  0  0  0
    2.7509    1.7419    5.0426 C   0  0  0  0  0  0  0  0  0  0  0  0
    3.3659    1.3822    6.2461 C   0  0  0  0  0  0  0  0  0  0  0  0
    4.7013    1.0091    6.2560 C   0  0  0  0  0  0  0  0  0  0  0  0
    5.4128    1.0343    5.0657 C   0  0  0  0  0  0  0  0  0  0  0  0
    4.8162    1.4378    3.8839 C   0  0  0  0  0  0  0  0  0  0  0  0
    3.4800    1.8041    3.8714 C   0  0  0  0  0  0  0  0  0  0  0  0
    2.9745    0.9629    8.5579 C   0  0  0  0  0  0  0  0  0  0  0  0
    0.2303    2.3962    3.6779 C   0  0  0  0  0  0  0  0  0  0  0  0
    0.3112    1.3506    2.7484 C   0  0  0  0  0  0  0  0  0  0  0  0
   -0.3485    1.4731    1.5309 C   0  0  0  0  0  0  0  0  0  0  0  0
   -1.0790    2.6181    1.2555 C   0  0  0  0  0  0  0  0  0  0  0  0
   -1.1709    3.6442    2.1798 C   0  0  0  0  0  0  0  0  0  0  0  0
   -0.5172    3.5266    3.3939 C   0  0  0  0  0  0  0  0  0  0  0  0
    1.2011   -0.8055    2.2721 C   0  0  0  0  0  0  0  0  0  0  0  0
   -0.1394    2.5581   13.3483 H   0  0  0  0  0  0  0  0  0  0  0  0
    2.2183    3.1801   13.4313 H   0  0  0  0  0  0  0  0  0  0  0  0
    3.4108    3.8877   11.3909 H   0  0  0  0  0  0  0  0  0  0  0  0
    2.1826    3.9839    9.2279 H   0  0  0  0  0  0  0  0  0  0  0  0
   -3.3957    1.9897   11.7681 H   0  0  0  0  0  0  0  0  0  0  0  0
   -1.9982    1.2637   12.5997 H   0  0  0  0  0  0  0  0  0  0  0  0
   -2.4535    2.9621   12.9249 H   0  0  0  0  0  0  0  0  0  0  0  0
   -4.7569    4.6816    6.6394 H   0  0  0  0  0  0  0  0  0  0  0  0
   -5.4252    6.1068    8.5144 H   0  0  0  0  0  0  0  0  0  0  0  0
   -3.9418    6.4222   10.4517 H   0  0  0  0  0  0  0  0  0  0  0  0
   -1.7587    5.2524   10.5389 H   0  0  0  0  0  0  0  0  0  0  0  0
   -2.5390    2.2568    4.9092 H   0  0  0  0  0  0  0  0  0  0  0  0
   -4.0647    2.4989    5.8008 H   0  0  0  0  0  0  0  0  0  0  0  0
   -3.3569    3.8375    4.8476 H   0  0  0  0  0  0  0  0  0  0  0  0
    5.1954    0.7199    7.1705 H   0  0  0  0  0  0  0  0  0  0  0  0
    6.4544    0.7487    5.0710 H   0  0  0  0  0  0  0  0  0  0  0  0
    5.3938    1.4742    2.9729 H   0  0  0  0  0  0  0  0  0  0  0  0
    3.0083    2.1455    2.9628 H   0  0  0  0  0  0  0  0  0  0  0  0
    2.1173    1.0271    9.2260 H   0  0  0  0  0  0  0  0  0  0  0  0
    3.2917   -0.0804    8.4675 H   0  0  0  0  0  0  0  0  0  0  0  0
    3.7948    1.5636    8.9629 H   0  0  0  0  0  0  0  0  0  0  0  0
   -0.2976    0.6868    0.7939 H   0  0  0  0  0  0  0  0  0  0  0  0
   -1.5821    2.7023    0.3035 H   0  0  0  0  0  0  0  0  0  0  0  0
   -1.7445    4.5294    1.9530 H   0  0  0  0  0  0  0  0  0  0  0  0
   -0.5654    4.3156    4.1348 H   0  0  0  0  0  0  0  0  0  0  0  0
    1.8327   -1.5168    2.8012 H   0  0  0  0  0  0  0  0  0  0  0  0
    0.2384   -1.2744    2.0453 H   0  0  0  0  0  0  0  0  0  0  0  0
    1.6924   -0.5092    1.3395 H   0  0  0  0  0  0  0  0  0  0  0  0
  1  2  1  0  0  0  0
  1  4  1  0  0  0  0
  3  1  1  0  0  0  0
  4  6  1  0  0  0  0
  4 19  1  0  0  0  0
  4 12  1  0  0  0  0
  5  7  1  0  0  0  0
  5  1  1  0  0  0  0
  8 13  1  0  0  0  0
  8 18  1  0  0  0  0
  9 20  1  0  0  0  0
 10 32  1  0  0  0  0
 12 17  2  0  0  0  0
 12 13  1  0  0  0  0
 13 14  2  0  0  0  0
 14 15  1  0  0  0  0
 14 40  1  0  0  0  0
 15 41  1  0  0  0  0
 16 42  1  0  0  0  0
 16 15  2  0  0  0  0
 17 16  1  0  0  0  0
 18 45  1  0  0  0  0
 18 46  1  0  0  0  0
 19 24  1  0  0  0  0
 20 19  2  0  0  0  0
 21 20  1  0  0  0  0
 21 22  2  0  0  0  0
 22 23  1  0  0  0  0
 23 24  2  0  0  0  0
 23 49  1  0  0  0  0
 24 50  1  0  0  0  0
 25 52  1  0  0  0  0
 25  9  1  0  0  0  0
 26  5  1  0  0  0  0
 26 27  1  0  0  0  0
 27 28  2  0  0  0  0
 27 10  1  0  0  0  0
 28 54  1  0  0  0  0
 29 55  1  0  0  0  0
 29 28  1  0  0  0  0
 30 29  2  0  0  0  0
 31 30  1  0  0  0  0
 31 26  2  0  0  0  0
 32 60  1  0  0  0  0
 32 58  1  0  0  0  0
 33  5  1  0  0  0  0
 34 11  1  0  0  0  0
 34 33  2  0  0  0  0
 35 34  1  0  0  0  0
 36 35  2  0  0  0  0
 36 37  1  0  0  0  0
 37 38  2  0  0  0  0
 38 33  1  0  0  0  0
 38 64  1  0  0  0  0
 39 65  1  0  0  0  0
 39 11  1  0  0  0  0
 43 17  1  0  0  0  0
 44 18  1  0  0  0  0
 47 21  1  0  0  0  0
 48 22  1  0  0  0  0
 51 25  1  0  0  0  0
 53 25  1  0  0  0  0
 56 30  1  0  0  0  0
 57 31  1  0  0  0  0
 59 32  1  0  0  0  0
 61 35  1  0  0  0  0
 62 36  1  0  0  0  0
 63 37  1  0  0  0  0
 66 39  1  0  0  0  0
 67 39  1  0  0  0  0
M  END
$$$$
