CSD_code = YAVCAA | q = 0 | S = 0 | Stoichiometry = C8H10I2N2O2Pd | MND = 4
 OpenBabel04212202123D

 25 26  0  0  1  0  0  0  0  0999 V2000
   -0.0004    0.0002   -0.0001 Pd  0  0  0  0  0  0  0  0  0  0  0  0
   -0.8602    1.9410   -1.4998 I   0  0  0  0  0  0  0  0  0  0  0  0
   -0.4338    1.7112    2.4202 O   0  0  0  0  0  0  0  0  0  0  0  0
    1.5454    1.8661    1.5920 N   0  0  0  0  0  0  0  0  0  0  0  0
    0.3505    1.2762    1.4569 C   0  0  0  0  0  0  0  0  0  0  0  0
    0.2623    2.5881    3.1859 C   0  0  0  0  0  0  0  0  0  0  0  0
    1.5074    2.7002    2.6843 C   0  0  0  0  0  0  0  0  0  0  0  0
    2.6672    1.6263    0.7202 C   0  0  0  0  0  0  0  0  0  0  0  0
    3.4751    1.1363    1.2687 H   0  0  0  0  0  0  0  0  0  0  0  0
    3.0279    2.5665    0.2998 H   0  0  0  0  0  0  0  0  0  0  0  0
    2.3367    0.9622   -0.1051 H   0  0  0  0  0  0  0  0  0  0  0  0
    2.3469    3.2836    2.9981 H   0  0  0  0  0  0  0  0  0  0  0  0
   -0.2345    3.0379    4.0197 H   0  0  0  0  0  0  0  0  0  0  0  0
    0.8600   -1.9401    1.4992 I   0  0  0  0  0  0  0  0  0  0  0  0
    0.4338   -1.7112   -2.4203 O   0  0  0  0  0  0  0  0  0  0  0  0
   -1.5454   -1.8662   -1.5920 N   0  0  0  0  0  0  0  0  0  0  0  0
   -0.3505   -1.2764   -1.4568 C   0  0  1  0  0  3  0  0  0  0  0  0
   -0.2623   -2.5883   -3.1858 C   0  0  0  0  0  0  0  0  0  0  0  0
   -1.5075   -2.7003   -2.6843 C   0  0  0  0  0  0  0  0  0  0  0  0
   -2.6671   -1.6263   -0.7201 C   0  0  0  0  0  0  0  0  0  0  0  0
   -3.4747   -1.1358   -1.2685 H   0  0  0  0  0  0  0  0  0  0  0  0
   -3.0282   -2.5665   -0.3001 H   0  0  0  0  0  0  0  0  0  0  0  0
   -2.3362   -0.9627    0.1054 H   0  0  0  0  0  0  0  0  0  0  0  0
   -2.3469   -3.2837   -2.9980 H   0  0  0  0  0  0  0  0  0  0  0  0
    0.2346   -3.0382   -4.0195 H   0  0  0  0  0  0  0  0  0  0  0  0
  1  5  2  0  0  0  0
  1 14  1  0  0  0  0
  2  1  1  0  0  0  0
  3  6  1  0  0  0  0
  4  7  1  0  0  0  0
  5  4  1  0  0  0  0
  5  3  1  0  0  0  0
  6 13  1  0  0  0  0
  7 12  1  0  0  0  0
  7  6  2  0  0  0  0
  8  9  1  0  0  0  0
  8  4  1  0  0  0  0
 10  8  1  0  0  0  0
 11  8  1  0  0  0  0
 15 17  1  0  0  0  0
 16 17  1  0  0  0  0
 16 20  1  0  0  0  0
 17  1  1  1  0  0  0
 18 19  2  0  0  0  0
 18 15  1  0  0  0  0
 19 16  1  0  0  0  0
 20 22  1  0  0  0  0
 20 23  1  0  0  0  0
 21 20  1  0  0  0  0
 24 19  1  0  0  0  0
 25 18  1  0  0  0  0
M  END
$$$$
