CSD_code = YAVCEE | q = 0 | S = 0 | Stoichiometry = C14H12Br2N2O2Pd | MND = 4
 OpenBabel04212202123D

 33 36  0  0  1  0  0  0  0  0999 V2000
    4.4844    2.9359    0.1465 C   0  0  0  0  0  0  0  0  0  0  0  0
    3.5684    1.5897    1.5856 C   0  0  0  0  0  0  0  0  0  0  0  0
    2.8040    0.9165    1.9127 H   0  0  0  0  0  0  0  0  0  0  0  0
    4.6836    2.0692    2.1684 C   0  0  0  0  0  0  0  0  0  0  0  0
    5.0949    1.8978    3.1400 H   0  0  0  0  0  0  0  0  0  0  0  0
    5.9028    3.1133   -2.4383 C   0  0  2  0  0  3  0  0  0  0  0  0
    6.7043    1.9892   -4.1164 C   0  0  0  0  0  0  0  0  0  0  0  0
    6.6106    1.4019   -5.0056 H   0  0  0  0  0  0  0  0  0  0  0  0
    7.7642    2.4635   -3.4344 C   0  0  0  0  0  0  0  0  0  0  0  0
    8.8128    2.3760   -3.6217 H   0  0  0  0  0  0  0  0  0  0  0  0
    6.4749    3.6826    1.4048 C   0  0  0  0  0  0  0  0  0  0  0  0
    6.5579    3.9714    2.4560 H   0  0  0  0  0  0  0  0  0  0  0  0
    6.3662    4.6029    0.8072 H   0  0  0  0  0  0  0  0  0  0  0  0
    7.6862    2.8593    1.0126 C   0  0  0  0  0  0  0  0  0  0  0  0
    8.1377    1.9418    1.9601 C   0  0  0  0  0  0  0  0  0  0  0  0
    7.6354    1.8864    2.9147 H   0  0  0  0  0  0  0  0  0  0  0  0
    9.2122    1.1094    1.7181 C   0  0  0  0  0  0  0  0  0  0  0  0
    9.5351    0.4090    2.4724 H   0  0  0  0  0  0  0  0  0  0  0  0
    9.8760    1.1946    0.5071 C   0  0  0  0  0  0  0  0  0  0  0  0
   10.7242    0.5605    0.3010 H   0  0  0  0  0  0  0  0  0  0  0  0
    9.4502    2.1099   -0.4345 C   0  0  0  0  0  0  0  0  0  0  0  0
    9.9830    2.1858   -1.3711 H   0  0  0  0  0  0  0  0  0  0  0  0
    8.3568    2.9450   -0.2108 C   0  0  0  0  0  0  0  0  0  0  0  0
    7.9843    3.8760   -1.3481 C   0  0  0  0  0  0  0  0  0  0  0  0
    7.3652    4.7289   -1.0230 H   0  0  0  0  0  0  0  0  0  0  0  0
    8.8948    4.2749   -1.8032 H   0  0  0  0  0  0  0  0  0  0  0  0
    3.5646    5.7287    0.1650 Br  0  0  0  0  0  0  0  0  0  0  0  0
    5.2547    5.9377   -2.9303 Br  0  0  0  0  0  0  0  0  0  0  0  0
    5.2563    2.9142    1.2462 N   0  0  0  0  0  0  0  0  0  0  0  0
    7.2441    3.1672   -2.3730 N   0  0  0  0  0  0  0  0  0  0  0  0
    3.4672    2.1247    0.3436 O   0  0  0  0  0  0  0  0  0  0  0  0
    5.5722    2.3892   -3.4860 O   0  0  0  0  0  0  0  0  0  0  0  0
    4.7706    4.2514   -1.2934 Pd  0  0  0  0  0  0  0  0  0  0  0  0
  1 31  1  0  0  0  0
  1 29  1  0  0  0  0
  2  3  1  0  0  0  0
  2  4  2  0  0  0  0
  4  5  1  0  0  0  0
  6 32  1  6  0  0  0
  6 30  1  0  0  0  0
  6 33  1  0  0  0  0
  7 32  1  0  0  0  0
  7  9  2  0  0  0  0
  8  7  1  0  0  0  0
  9 30  1  0  0  0  0
 10  9  1  0  0  0  0
 11 12  1  0  0  0  0
 13 11  1  0  0  0  0
 14 11  1  0  0  0  0
 14 15  1  0  0  0  0
 15 16  1  0  0  0  0
 17 15  2  0  0  0  0
 17 18  1  0  0  0  0
 19 17  1  0  0  0  0
 20 19  1  0  0  0  0
 21 23  1  0  0  0  0
 21 19  2  0  0  0  0
 22 21  1  0  0  0  0
 23 14  2  0  0  0  0
 24 25  1  0  0  0  0
 24 23  1  0  0  0  0
 26 24  1  0  0  0  0
 28 33  1  0  0  0  0
 29 11  1  0  0  0  0
 29  4  1  0  0  0  0
 30 24  1  0  0  0  0
 31  2  1  0  0  0  0
 33  1  2  0  0  0  0
 33 27  1  0  0  0  0
M  END
$$$$
