CSD_code = YAVCIJ | q = 0 | S = 0 | Stoichiometry = C10H9I2N3Pt | MND = 4
 OpenBabel04212202123D

 25 27  0  0  1  0  0  0  0  0999 V2000
    0.0554    8.2074    2.3692 Pt  0  0  0  0  0  0  0  0  0  0  0  0
    1.2160   10.1766    3.5666 I   0  0  0  0  0  0  0  0  0  0  0  0
   -2.1521    8.4841    3.6764 I   0  0  0  0  0  0  0  0  0  0  0  0
    1.6780    7.9750    1.1512 N   0  0  0  0  0  0  0  0  0  0  0  0
    0.1175    7.8884   -0.6018 N   0  0  0  0  0  0  0  0  0  0  0  0
   -0.0130    8.0827   -1.5856 H   0  0  0  0  0  0  0  0  0  0  0  0
   -0.7872    6.7350    1.2331 N   0  0  0  0  0  0  0  0  0  0  0  0
    2.9425    8.0454    1.5698 C   0  0  0  0  0  3  0  0  0  0  0  0
    3.1052    7.9266    2.6317 H   0  0  0  0  0  0  0  0  0  0  0  0
    3.9983    8.2749    0.7117 C   0  0  0  0  0  0  0  0  0  0  0  0
    5.0023    8.3279    1.0969 H   0  0  0  0  0  0  0  0  0  0  0  0
    3.7290    8.4710   -0.6365 C   0  0  0  0  0  0  0  0  0  0  0  0
    4.5211    8.6977   -1.3324 H   0  0  0  0  0  0  0  0  0  0  0  0
    2.4264    8.3521   -1.0797 C   0  0  0  0  0  0  0  0  0  0  0  0
    2.1767    8.4738   -2.1224 H   0  0  0  0  0  0  0  0  0  0  0  0
    1.4196    8.0721   -0.1546 C   0  0  0  0  0  0  0  0  0  0  0  0
   -0.7797    6.9643   -0.0817 C   0  0  2  0  0  3  0  0  0  0  0  0
   -1.6503    6.2971   -0.9446 C   0  0  0  0  0  0  0  0  0  0  0  0
   -1.6540    6.5413   -1.9957 H   0  0  0  0  0  0  0  0  0  0  0  0
   -2.4960    5.3340   -0.4301 C   0  0  0  0  0  0  0  0  0  0  0  0
   -3.1843    4.8137   -1.0770 H   0  0  0  0  0  0  0  0  0  0  0  0
   -2.4284    5.0383    0.9251 C   0  0  0  0  0  0  0  0  0  0  0  0
   -3.0470    4.2743    1.3643 H   0  0  0  0  0  0  0  0  0  0  0  0
   -1.5728    5.7731    1.7199 C   0  0  0  0  0  0  0  0  0  0  0  0
   -1.5189    5.6011    2.7856 H   0  0  0  0  0  0  0  0  0  0  0  0
  1  2  1  0  0  0  0
  1  3  1  0  0  0  0
  4  8  1  0  0  0  0
  4  1  1  0  0  0  0
  5 16  1  0  0  0  0
  5 17  1  0  0  0  0
  6  5  1  0  0  0  0
  7 24  1  0  0  0  0
  7  1  1  0  0  0  0
  8  9  1  0  0  0  0
 10 11  1  0  0  0  0
 10  8  1  0  0  0  0
 12 10  2  0  0  0  0
 13 12  1  0  0  0  0
 14 12  1  0  0  0  0
 14 16  2  0  0  0  0
 15 14  1  0  0  0  0
 16  4  1  0  0  0  0
 17 18  1  6  0  0  0
 17  7  1  0  0  0  0
 18 20  2  0  0  0  0
 19 18  1  0  0  0  0
 20 22  1  0  0  0  0
 21 20  1  0  0  0  0
 22 23  1  0  0  0  0
 22 24  2  0  0  0  0
 24 25  1  0  0  0  0
M  END
$$$$
