CSD_code = YAVKAK | q = 0 | S = 0 | Stoichiometry = C22H34IN3NiO2 | MND = 4
 OpenBabel04212202123D

 63 67  0  0  1  0  0  0  0  0999 V2000
    0.2606    0.9028   12.4821 I   0  0  0  0  0  0  0  0  0  0  0  0
   -1.8170   -0.4364   12.3746 Ni  0  0  1  0  0  0  0  0  0  0  0  0
   -0.7751   -4.3508   12.6911 O   0  0  0  0  0  0  0  0  0  0  0  0
   -4.5283    2.5502   12.2656 O   0  0  0  0  0  0  0  0  0  0  0  0
   -1.0056   -2.1466   12.7300 N   0  0  1  0  0  0  0  0  0  0  0  0
   -3.4512   -1.3262   12.6292 N   0  0  0  0  0  0  0  0  0  0  0  0
   -2.8741    1.1122   11.9311 N   0  0  2  0  0  0  0  0  0  0  0  0
    0.1705   -2.3951   13.5653 C   0  0  2  0  0  0  0  0  0  0  0  0
    1.0253   -1.8327   13.1797 H   0  0  0  0  0  0  0  0  0  0  0  0
    0.3829   -3.9089   13.3956 C   0  0  0  0  0  0  0  0  0  0  0  0
    1.2653   -4.1441   12.7928 H   0  0  0  0  0  0  0  0  0  0  0  0
    0.4407   -4.4531   14.3394 H   0  0  0  0  0  0  0  0  0  0  0  0
   -1.4826   -3.2784   12.3572 C   0  0  2  0  0  3  0  0  0  0  0  0
   -2.7800   -3.5021   11.6318 C   0  0  0  0  0  0  0  0  0  0  0  0
   -3.7861   -2.5979   12.2964 C   0  0  0  0  0  0  0  0  0  0  0  0
   -5.0747   -2.8521   12.7163 C   0  0  0  0  0  0  0  0  0  0  0  0
   -5.6244   -3.7647   12.5938 H   0  0  0  0  0  0  0  0  0  0  0  0
   -5.5396   -1.6777   13.3319 C   0  0  0  0  0  0  0  0  0  0  0  0
   -6.5036   -1.5311   13.7785 H   0  0  0  0  0  0  0  0  0  0  0  0
   -4.5096   -0.7655   13.2695 C   0  0  0  0  0  0  0  0  0  0  0  0
   -4.4003    0.6457   13.7934 C   0  0  0  0  0  0  0  0  0  0  0  0
   -3.8909    1.4455   12.6338 C   0  0  2  0  0  3  0  0  0  0  0  0
   -3.8393    3.0879   11.1377 C   0  0  0  0  0  0  0  0  0  0  0  0
   -3.4442    4.0695   11.4128 H   0  0  0  0  0  0  0  0  0  0  0  0
   -4.5513    3.2059   10.3175 H   0  0  0  0  0  0  0  0  0  0  0  0
   -2.7269    2.0628   10.8337 C   0  0  2  0  0  0  0  0  0  0  0  0
   -1.7375    2.5294   10.8858 H   0  0  0  0  0  0  0  0  0  0  0  0
   -2.8654    1.3684    9.4644 C   0  0  0  0  0  0  0  0  0  0  0  0
   -2.9277    2.1585    8.7068 H   0  0  0  0  0  0  0  0  0  0  0  0
   -1.6164    0.5303    9.2072 C   0  0  0  0  0  0  0  0  0  0  0  0
   -0.7369    1.1629    9.1101 H   0  0  0  0  0  0  0  0  0  0  0  0
   -1.7247   -0.0634    8.3028 H   0  0  0  0  0  0  0  0  0  0  0  0
   -1.4511   -0.1515   10.0575 H   0  0  0  0  0  0  0  0  0  0  0  0
   -4.1229    0.5038    9.3926 C   0  0  0  0  0  0  0  0  0  0  0  0
   -4.0797   -0.2967   10.1296 H   0  0  0  0  0  0  0  0  0  0  0  0
   -4.2110    0.0560    8.4057 H   0  0  0  0  0  0  0  0  0  0  0  0
   -5.0212    1.0887    9.5795 H   0  0  0  0  0  0  0  0  0  0  0  0
   -0.0972   -1.9347   15.0125 C   0  0  0  0  0  0  0  0  0  0  0  0
   -0.3410   -0.8669   14.9553 H   0  0  0  0  0  0  0  0  0  0  0  0
   -1.2863   -2.6534   15.6462 C   0  0  0  0  0  0  0  0  0  0  0  0
   -2.1825   -2.5358   15.0381 H   0  0  0  0  0  0  0  0  0  0  0  0
   -1.4874   -2.2296   16.6275 H   0  0  0  0  0  0  0  0  0  0  0  0
   -1.0922   -3.7169   15.7742 H   0  0  0  0  0  0  0  0  0  0  0  0
    1.1655   -2.0810   15.8551 C   0  0  0  0  0  0  0  0  0  0  0  0
    1.4685   -3.1229   15.9357 H   0  0  0  0  0  0  0  0  0  0  0  0
    0.9867   -1.7000   16.8573 H   0  0  0  0  0  0  0  0  0  0  0  0
    1.9826   -1.5148   15.4148 H   0  0  0  0  0  0  0  0  0  0  0  0
   -2.5936   -3.1259   10.1524 C   0  0  0  0  0  0  0  0  0  0  0  0
   -2.2609   -2.0932   10.0695 H   0  0  0  0  0  0  0  0  0  0  0  0
   -3.5418   -3.2304    9.6304 H   0  0  0  0  0  0  0  0  0  0  0  0
   -1.8549   -3.7725    9.6821 H   0  0  0  0  0  0  0  0  0  0  0  0
   -3.1945   -4.9692   11.7383 C   0  0  0  0  0  0  0  0  0  0  0  0
   -2.4280   -5.6121   11.3125 H   0  0  0  0  0  0  0  0  0  0  0  0
   -4.1226   -5.1226   11.1945 H   0  0  0  0  0  0  0  0  0  0  0  0
   -3.3475   -5.2503   12.7773 H   0  0  0  0  0  0  0  0  0  0  0  0
   -3.3439    0.6972   14.9133 C   0  0  0  0  0  0  0  0  0  0  0  0
   -3.6565    0.0648   15.7407 H   0  0  0  0  0  0  0  0  0  0  0  0
   -3.2066    1.7159   15.2712 H   0  0  0  0  0  0  0  0  0  0  0  0
   -2.3816    0.3236   14.5330 H   0  0  0  0  0  0  0  0  0  0  0  0
   -5.7362    1.1868   14.2899 C   0  0  0  0  0  0  0  0  0  0  0  0
   -6.4827    1.1416   13.5010 H   0  0  0  0  0  0  0  0  0  0  0  0
   -5.6302    2.2212   14.6084 H   0  0  0  0  0  0  0  0  0  0  0  0
   -6.0797    0.5922   15.1322 H   0  0  0  0  0  0  0  0  0  0  0  0
  2  1  1  0  0  0  0
  2  6  1  0  0  0  0
  2  5  1  0  0  0  0
  3 10  1  0  0  0  0
  4 22  1  0  0  0  0
  5  8  1  0  0  0  0
  6 20  1  0  0  0  0
  7  2  1  0  0  0  0
  7 22  1  0  0  0  0
  8 38  1  0  0  0  0
  9  8  1  0  0  0  0
 10  8  1  0  0  0  0
 10 12  1  0  0  0  0
 11 10  1  0  0  0  0
 13  3  1  0  0  0  0
 13  5  1  0  0  0  0
 14 52  1  0  0  0  0
 14 15  1  0  0  0  0
 14 13  1  0  0  0  0
 15  6  1  0  0  0  0
 15 16  2  0  0  0  0
 16 18  1  0  0  0  0
 17 16  1  0  0  0  0
 18 19  1  0  0  0  0
 20 18  2  0  0  0  0
 20 21  1  0  0  0  0
 21 60  1  0  0  0  0
 21 56  1  0  0  0  0
 22 21  1  0  0  0  0
 23 24  1  0  0  0  0
 23  4  1  0  0  0  0
 25 23  1  0  0  0  0
 26 27  1  0  0  0  0
 26 23  1  0  0  0  0
 26  7  1  0  0  0  0
 28 26  1  0  0  0  0
 29 28  1  0  0  0  0
 30 28  1  0  0  0  0
 30 33  1  0  0  0  0
 31 30  1  0  0  0  0
 32 30  1  0  0  0  0
 34 28  1  0  0  0  0
 34 37  1  0  0  0  0
 34 35  1  0  0  0  0
 36 34  1  0  0  0  0
 38 40  1  0  0  0  0
 38 44  1  0  0  0  0
 39 38  1  0  0  0  0
 40 43  1  0  0  0  0
 40 42  1  0  0  0  0
 41 40  1  0  0  0  0
 44 45  1  0  0  0  0
 44 46  1  0  0  0  0
 47 44  1  0  0  0  0
 48 14  1  0  0  0  0
 49 48  1  0  0  0  0
 50 48  1  0  0  0  0
 51 48  1  0  0  0  0
 52 55  1  0  0  0  0
 53 52  1  0  0  0  0
 54 52  1  0  0  0  0
 56 58  1  0  0  0  0
 56 57  1  0  0  0  0
 59 56  1  0  0  0  0
 60 62  1  0  0  0  0
 60 63  1  0  0  0  0
 61 60  1  0  0  0  0
M  END
$$$$
