CSD_code = YAVLAL | q = 0 | S = 0 | Stoichiometry = C18H26BrN3NiO2 | MND = 4
 OpenBabel04212202123D

 51 55  0  0  1  0  0  0  0  0999 V2000
  -10.4897   -1.7811   -1.3378 Br  0  0  0  0  0  0  0  0  0  0  0  0
   -9.2942   -2.4679   -3.1090 Ni  0  0  2  0  0  0  0  0  0  0  0  0
  -11.4461   -5.6656   -4.3033 O   0  0  0  0  0  0  0  0  0  0  0  0
   -6.0572   -0.0589   -3.2414 O   0  0  0  0  0  0  0  0  0  0  0  0
  -10.6301   -3.7148   -3.6361 N   0  0  1  0  0  0  0  0  0  0  0  0
   -8.2323   -3.2051   -4.4839 N   0  0  0  0  0  0  0  0  0  0  0  0
   -7.8433   -1.2837   -2.7663 N   0  0  2  0  0  0  0  0  0  0  0  0
  -12.0460   -3.4384   -3.8561 C   0  0  2  0  0  0  0  0  0  0  0  0
  -12.4874   -3.0025   -2.9547 H   0  0  0  0  0  0  0  0  0  0  0  0
  -12.6061   -4.8469   -4.1405 C   0  0  0  0  0  0  0  0  0  0  0  0
  -13.1890   -5.2420   -3.3032 H   0  0  0  0  0  0  0  0  0  0  0  0
  -13.2041   -4.9004   -5.0517 H   0  0  0  0  0  0  0  0  0  0  0  0
  -10.3909   -4.9269   -3.9696 C   0  0  2  0  0  3  0  0  0  0  0  0
   -9.0315   -5.5168   -4.0897 C   0  0  0  0  0  0  0  0  0  0  0  0
   -9.0889   -6.4622   -4.6279 H   0  0  0  0  0  0  0  0  0  0  0  0
   -8.6258   -5.7075   -3.0885 H   0  0  0  0  0  0  0  0  0  0  0  0
   -8.1764   -4.5185   -4.8226 C   0  0  0  0  0  0  0  0  0  0  0  0
   -7.2935   -4.6887   -5.8650 C   0  0  0  0  0  0  0  0  0  0  0  0
   -7.0417   -5.6166   -6.3409 H   0  0  0  0  0  0  0  0  0  0  0  0
   -6.7767   -3.4146   -6.1659 C   0  0  0  0  0  0  0  0  0  0  0  0
   -6.0608   -3.1704   -6.9267 H   0  0  0  0  0  0  0  0  0  0  0  0
   -7.3837   -2.5317   -5.3016 C   0  0  0  0  0  0  0  0  0  0  0  0
   -7.2099   -1.0475   -5.1294 C   0  0  0  0  0  0  0  0  0  0  0  0
   -6.3179   -0.6915   -5.6434 H   0  0  0  0  0  0  0  0  0  0  0  0
   -8.0806   -0.5066   -5.5197 H   0  0  0  0  0  0  0  0  0  0  0  0
   -7.0800   -0.7914   -3.6694 C   0  0  2  0  0  3  0  0  0  0  0  0
   -6.1183   -0.0264   -1.8135 C   0  0  0  0  0  0  0  0  0  0  0  0
   -6.2972    1.0058   -1.5005 H   0  0  0  0  0  0  0  0  0  0  0  0
   -5.1555   -0.3574   -1.4213 H   0  0  0  0  0  0  0  0  0  0  0  0
   -7.2880   -0.9636   -1.4541 C   0  0  2  0  0  0  0  0  0  0  0  0
   -8.0447   -0.4457   -0.8555 H   0  0  0  0  0  0  0  0  0  0  0  0
   -6.9034   -2.2637   -0.7185 C   0  0  0  0  0  0  0  0  0  0  0  0
   -7.8159   -2.8772   -0.6934 H   0  0  0  0  0  0  0  0  0  0  0  0
   -5.8266   -3.0620   -1.4510 C   0  0  0  0  0  0  0  0  0  0  0  0
   -6.1263   -3.2718   -2.4770 H   0  0  0  0  0  0  0  0  0  0  0  0
   -5.6722   -4.0127   -0.9460 H   0  0  0  0  0  0  0  0  0  0  0  0
   -4.8744   -2.5353   -1.4680 H   0  0  0  0  0  0  0  0  0  0  0  0
   -6.4948   -1.9533    0.7173 C   0  0  0  0  0  0  0  0  0  0  0  0
   -5.6137   -1.3150    0.7432 H   0  0  0  0  0  0  0  0  0  0  0  0
   -6.2648   -2.8747    1.2461 H   0  0  0  0  0  0  0  0  0  0  0  0
   -7.3037   -1.4504    1.2413 H   0  0  0  0  0  0  0  0  0  0  0  0
  -12.2224   -2.4457   -5.0273 C   0  0  0  0  0  0  0  0  0  0  0  0
  -13.2986   -2.3739   -5.2224 H   0  0  0  0  0  0  0  0  0  0  0  0
  -11.5108   -2.9212   -6.2937 C   0  0  0  0  0  0  0  0  0  0  0  0
  -10.4322   -2.9354   -6.1435 H   0  0  0  0  0  0  0  0  0  0  0  0
  -11.7287   -2.2429   -7.1152 H   0  0  0  0  0  0  0  0  0  0  0  0
  -11.8288   -3.9187   -6.5885 H   0  0  0  0  0  0  0  0  0  0  0  0
  -11.6982   -1.0704   -4.6202 C   0  0  0  0  0  0  0  0  0  0  0  0
  -12.2488   -0.6789   -3.7676 H   0  0  0  0  0  0  0  0  0  0  0  0
  -11.7818   -0.3699   -5.4474 H   0  0  0  0  0  0  0  0  0  0  0  0
  -10.6292   -1.1433   -4.3428 H   0  0  0  0  0  0  0  0  0  0  0  0
  2  7  1  0  0  0  0
  2  1  1  0  0  0  0
  3 10  1  0  0  0  0
  3 13  1  0  0  0  0
  4 27  1  0  0  0  0
  5  2  1  0  0  0  0
  6  2  1  0  0  0  0
  7 30  1  0  0  0  0
  8  5  1  0  0  0  0
  8  9  1  0  0  0  0
 10  8  1  0  0  0  0
 10 11  1  0  0  0  0
 12 10  1  0  0  0  0
 13  5  1  0  0  0  0
 14 13  1  0  0  0  0
 14 16  1  0  0  0  0
 15 14  1  0  0  0  0
 17  6  1  0  0  0  0
 17 14  1  0  0  0  0
 18 17  2  0  0  0  0
 19 18  1  0  0  0  0
 20 18  1  0  0  0  0
 20 22  2  0  0  0  0
 21 20  1  0  0  0  0
 22 23  1  0  0  0  0
 22  6  1  0  0  0  0
 23 26  1  0  0  0  0
 24 23  1  0  0  0  0
 25 23  1  0  0  0  0
 26  4  1  0  0  0  0
 26  7  1  0  0  0  0
 27 28  1  0  0  0  0
 27 30  1  0  0  0  0
 27 29  1  0  0  0  0
 30 31  1  0  0  0  0
 30 32  1  0  0  0  0
 32 33  1  0  0  0  0
 32 38  1  0  0  0  0
 34 36  1  0  0  0  0
 34 32  1  0  0  0  0
 35 34  1  0  0  0  0
 37 34  1  0  0  0  0
 38 39  1  0  0  0  0
 38 41  1  0  0  0  0
 38 40  1  0  0  0  0
 42 48  1  0  0  0  0
 42  8  1  0  0  0  0
 43 42  1  0  0  0  0
 44 45  1  0  0  0  0
 44 42  1  0  0  0  0
 46 44  1  0  0  0  0
 47 44  1  0  0  0  0
 48 51  1  0  0  0  0
 48 49  1  0  0  0  0
 50 48  1  0  0  0  0
M  END
$$$$
