CSD_code = YAXFUB | q = 0 | S = 0 | Stoichiometry = C20H18AsAuClNO2 | MND = 2
 OpenBabel04212202123D

 44 45  0  0  1  0  0  0  0  0999 V2000
    1.6191    8.2470    3.5104 As  0  0  0  0  0  0  0  0  0  0  0  0
    2.1547    5.9749    3.5237 Au  0  0  0  0  0  0  0  0  0  0  0  0
    0.3273    8.7349    2.1664 C   0  0  0  0  0  0  0  0  0  0  0  0
   -0.4276    9.8971    2.2710 C   0  0  0  0  0  0  0  0  0  0  0  0
   -0.3400   10.5163    3.1599 H   0  0  0  0  0  0  0  0  0  0  0  0
   -1.2911   10.2526    1.2497 C   0  0  0  0  0  0  0  0  0  0  0  0
   -1.8798   11.1548    1.3302 H   0  0  0  0  0  0  0  0  0  0  0  0
   -1.3984    9.4519    0.1238 C   0  0  0  0  0  0  0  0  0  0  0  0
   -2.0701    9.7336   -0.6732 H   0  0  0  0  0  0  0  0  0  0  0  0
   -0.6528    8.2886    0.0189 C   0  0  0  0  0  0  0  0  0  0  0  0
   -0.7441    7.6635   -0.8567 H   0  0  0  0  0  0  0  0  0  0  0  0
    0.2070    7.9272    1.0411 C   0  0  0  0  0  0  0  0  0  0  0  0
    0.7930    7.0126    0.9827 H   0  0  0  0  0  0  0  0  0  0  0  0
    0.8604    8.9225    5.1518 C   0  0  0  0  0  0  0  0  0  0  0  0
    1.2562   10.0800    5.8115 C   0  0  0  0  0  0  0  0  0  0  0  0
    2.0443   10.7103    5.4109 H   0  0  0  0  0  0  0  0  0  0  0  0
    0.6405   10.4399    6.9999 C   0  0  0  0  0  0  0  0  0  0  0  0
    0.9502   11.3401    7.5101 H   0  0  0  0  0  0  0  0  0  0  0  0
   -0.3646    9.6509    7.5330 C   0  0  0  0  0  0  0  0  0  0  0  0
   -0.8394    9.9372    8.4592 H   0  0  0  0  0  0  0  0  0  0  0  0
   -0.7585    8.4905    6.8839 C   0  0  0  0  0  0  0  0  0  0  0  0
   -1.5376    7.8715    7.3031 H   0  0  0  0  0  0  0  0  0  0  0  0
   -0.1427    8.1256    5.7015 C   0  0  0  0  0  0  0  0  0  0  0  0
   -0.4260    7.2108    5.1817 H   0  0  0  0  0  0  0  0  0  0  0  0
    3.1192   10.4351    0.7044 C   0  0  0  0  0  0  0  0  0  0  0  0
    2.7884   11.3905    1.0894 H   0  0  0  0  0  0  0  0  0  0  0  0
    3.3357   10.2745   -0.6535 C   0  0  0  0  0  0  0  0  0  0  0  0
    3.1706   11.1055   -1.3225 H   0  0  0  0  0  0  0  0  0  0  0  0
    3.7624    9.0559   -1.1508 C   0  0  0  0  0  0  0  0  0  0  0  0
    3.9327    8.9329   -2.2094 H   0  0  0  0  0  0  0  0  0  0  0  0
    3.9659    7.9915   -0.2876 C   0  0  0  0  0  0  0  0  0  0  0  0
    4.2922    7.0360   -0.6689 H   0  0  0  0  0  0  0  0  0  0  0  0
    3.7462    8.1494    1.0679 C   0  0  0  0  0  0  0  0  0  0  0  0
    3.8974    7.3097    1.7438 H   0  0  0  0  0  0  0  0  0  0  0  0
    3.3294    9.3761    1.5777 C   0  0  0  0  0  0  0  0  0  0  0  0
    3.0513    9.5215    3.0452 C   0  0  2  0  0  0  0  0  0  0  0  0
    2.6674   10.5333    3.2493 H   0  0  0  0  0  0  0  0  0  0  0  0
    4.2718    9.2661    3.9322 C   0  0  0  0  0  0  0  0  0  0  0  0
    3.9515    9.0633    4.9644 H   0  0  0  0  0  0  0  0  0  0  0  0
    4.8863    8.4425    3.5592 H   0  0  0  0  0  0  0  0  0  0  0  0
    2.6604    3.7589    3.5011 Cl  0  0  0  0  0  0  0  0  0  0  0  0
    5.1079   10.4884    3.9648 N   0  0  0  0  0  0  0  0  0  0  0  0
    4.5772   11.4842    4.3989 O   0  0  0  0  0  0  0  0  0  0  0  0
    6.2334   10.4133    3.5484 O   0  0  0  0  0  0  0  0  0  0  0  0
  1 14  1  0  0  0  0
  3  4  1  0  0  0  0
  3  1  1  0  0  0  0
  4  5  1  0  0  0  0
  6  7  1  0  0  0  0
  6  4  2  0  0  0  0
  8  6  1  0  0  0  0
  9  8  1  0  0  0  0
 10  8  2  0  0  0  0
 10 12  1  0  0  0  0
 11 10  1  0  0  0  0
 12  3  2  0  0  0  0
 13 12  1  0  0  0  0
 14 23  2  0  0  0  0
 14 15  1  0  0  0  0
 15 17  2  0  0  0  0
 16 15  1  0  0  0  0
 17 18  1  0  0  0  0
 17 19  1  0  0  0  0
 19 20  1  0  0  0  0
 21 22  1  0  0  0  0
 21 19  2  0  0  0  0
 23 21  1  0  0  0  0
 24 23  1  0  0  0  0
 25 26  1  0  0  0  0
 25 35  1  0  0  0  0
 27 25  2  0  0  0  0
 28 27  1  0  0  0  0
 29 27  1  0  0  0  0
 29 31  2  0  0  0  0
 30 29  1  0  0  0  0
 31 33  1  0  0  0  0
 32 31  1  0  0  0  0
 33 35  2  0  0  0  0
 33 34  1  0  0  0  0
 35 36  1  0  0  0  0
 36 37  1  1  0  0  0
 36  1  1  0  0  0  0
 36 38  1  0  0  0  0
 38 42  1  0  0  0  0
 38 39  1  0  0  0  0
 40 38  1  0  0  0  0
 41  2  1  0  0  0  0
 42 43  2  0  0  0  0
 44 42  2  0  0  0  0
M  END
$$$$
