CSD_code = YAXKAJ | q = 0 | S = 0 | Stoichiometry = C21H29Cl3Zr | MND = 8
 OpenBabel04212202123D

 54 58  0  0  1  0  0  0  0  0999 V2000
    6.7631    0.3394   16.2936 Zr  0  0  0  0  0  0  0  0  0  0  0  0
    5.5250    1.3312   14.6190 Cl  0  0  0  0  0  0  0  0  0  0  0  0
    8.0954    2.1359   16.9424 Cl  0  0  0  0  0  0  0  0  0  0  0  0
    8.5998   -0.3440   15.0357 Cl  0  0  0  0  0  0  0  0  0  0  0  0
    6.4862   -3.1379   16.0526 C   0  0  2  0  0  0  0  0  0  0  0  0
    6.4698   -1.9328   16.9696 C   0  0  0  0  0  0  0  0  0  0  0  0
    7.2265   -1.2493   17.9666 C   0  0  2  0  0  0  0  0  0  0  0  0
    6.3266   -0.2856   18.5215 C   0  0  0  0  0  0  0  0  0  0  0  0
    6.1287    0.5604   19.7591 C   0  0  2  0  0  0  0  0  0  0  0  0
    5.4348   -0.4276   20.7404 C   0  0  0  0  0  0  0  0  0  0  0  0
    4.0305   -0.6337   20.1381 C   0  0  0  0  0  0  0  0  0  0  0  0
    4.0518    0.2397   18.8607 C   0  0  2  0  0  0  0  0  0  0  0  0
    5.0218   -0.4599   17.9479 C   0  0  0  0  0  0  0  0  0  0  0  0
    5.1135   -1.4794   16.9971 C   0  0  0  0  0  0  0  0  0  0  0  0
    4.3150   -2.4362   16.1563 C   0  0  1  0  0  0  0  0  0  0  0  0
    4.7037   -2.1361   14.6950 C   0  0  0  0  0  0  0  0  0  0  0  0
    6.1748   -2.6028   14.6249 C   0  0  0  0  0  0  0  0  0  0  0  0
    5.0976   -3.7547   16.4408 C   0  0  0  0  0  0  0  0  0  0  0  0
    4.9117    1.4452   19.3156 C   0  0  0  0  0  0  0  0  0  0  0  0
    4.6543   -4.9420   15.5911 C   0  0  0  0  0  0  0  0  0  0  0  0
    5.0115   -4.1856   17.9050 C   0  0  0  0  0  0  0  0  0  0  0  0
    7.7265   -4.0040   16.1297 C   0  0  0  0  0  0  0  0  0  0  0  0
    5.1709    2.4209   18.1625 C   0  0  0  0  0  0  0  0  0  0  0  0
    4.2983    2.2662   20.4509 C   0  0  0  0  0  0  0  0  0  0  0  0
    7.3563    1.2565   20.3102 C   0  0  0  0  0  0  0  0  0  0  0  0
    8.2469   -1.4540   18.2765 H   0  0  0  0  0  0  0  0  0  0  0  0
    5.9955   -1.3603   20.7928 H   0  0  0  0  0  0  0  0  0  0  0  0
    5.3915   -0.0120   21.7458 H   0  0  0  0  0  0  0  0  0  0  0  0
    3.8399   -1.6771   19.8912 H   0  0  0  0  0  0  0  0  0  0  0  0
    3.2468   -0.2993   20.8157 H   0  0  0  0  0  0  0  0  0  0  0  0
    3.0666    0.4703   18.4582 H   0  0  0  0  0  0  0  0  0  0  0  0
    3.2429   -2.4629   16.3451 H   0  0  0  0  0  0  0  0  0  0  0  0
    4.0689   -2.6897   14.0035 H   0  0  0  0  0  0  0  0  0  0  0  0
    4.5932   -1.0699   14.4724 H   0  0  0  0  0  0  0  0  0  0  0  0
    6.8498   -1.7891   14.3438 H   0  0  0  0  0  0  0  0  0  0  0  0
    6.3068   -3.4053   13.8991 H   0  0  0  0  0  0  0  0  0  0  0  0
    3.6244   -5.1964   15.8335 H   0  0  0  0  0  0  0  0  0  0  0  0
    4.7125   -4.7513   14.5262 H   0  0  0  0  0  0  0  0  0  0  0  0
    5.2750   -5.8066   15.8150 H   0  0  0  0  0  0  0  0  0  0  0  0
    5.3543   -3.4063   18.5792 H   0  0  0  0  0  0  0  0  0  0  0  0
    3.9817   -4.4310   18.1567 H   0  0  0  0  0  0  0  0  0  0  0  0
    5.6197   -5.0720   18.0691 H   0  0  0  0  0  0  0  0  0  0  0  0
    7.6382   -4.8673   15.4749 H   0  0  0  0  0  0  0  0  0  0  0  0
    8.5897   -3.4172   15.8184 H   0  0  0  0  0  0  0  0  0  0  0  0
    7.8888   -4.3505   17.1477 H   0  0  0  0  0  0  0  0  0  0  0  0
    5.3571    1.9079   17.2005 H   0  0  0  0  0  0  0  0  0  0  0  0
    4.2923    3.0529   18.0307 H   0  0  0  0  0  0  0  0  0  0  0  0
    6.0202    3.0660   18.3877 H   0  0  0  0  0  0  0  0  0  0  0  0
    3.3121    2.6197   20.1565 H   0  0  0  0  0  0  0  0  0  0  0  0
    4.1933    1.7083   21.3735 H   0  0  0  0  0  0  0  0  0  0  0  0
    4.9217    3.1346   20.6504 H   0  0  0  0  0  0  0  0  0  0  0  0
    7.0906    1.9083   21.1389 H   0  0  0  0  0  0  0  0  0  0  0  0
    8.0693    0.5175   20.6705 H   0  0  0  0  0  0  0  0  0  0  0  0
    7.8371    1.8457   19.5302 H   0  0  0  0  0  0  0  0  0  0  0  0
  1  3  1  0  0  0  0
  1  7  1  0  0  0  0
  2  1  1  0  0  0  0
  4  1  1  0  0  0  0
  5 22  1  1  0  0  0
  5 18  1  0  0  0  0
  5  6  1  0  0  0  0
  6 14  2  0  0  0  0
  6  7  1  0  0  0  0
  7 26  1  1  0  0  0
  7  8  1  0  0  0  0
  8  9  1  0  0  0  0
  9 25  1  1  0  0  0
  9 10  1  0  0  0  0
 10 27  1  0  0  0  0
 10 28  1  0  0  0  0
 11 10  1  0  0  0  0
 11 30  1  0  0  0  0
 12 31  1  6  0  0  0
 12 19  1  0  0  0  0
 12 11  1  0  0  0  0
 13  8  2  0  0  0  0
 13 12  1  0  0  0  0
 14 13  1  0  0  0  0
 15 32  1  1  0  0  0
 15 18  1  0  0  0  0
 15 14  1  0  0  0  0
 16 15  1  0  0  0  0
 17 16  1  0  0  0  0
 17  5  1  0  0  0  0
 18 21  1  0  0  0  0
 19  9  1  0  0  0  0
 19 24  1  0  0  0  0
 20 39  1  0  0  0  0
 20 37  1  0  0  0  0
 20 18  1  0  0  0  0
 21 42  1  0  0  0  0
 21 41  1  0  0  0  0
 21 40  1  0  0  0  0
 22 45  1  0  0  0  0
 23 48  1  0  0  0  0
 23 19  1  0  0  0  0
 24 51  1  0  0  0  0
 24 50  1  0  0  0  0
 25 53  1  0  0  0  0
 25 52  1  0  0  0  0
 29 11  1  0  0  0  0
 33 16  1  0  0  0  0
 34 16  1  0  0  0  0
 35 17  1  0  0  0  0
 36 17  1  0  0  0  0
 38 20  1  0  0  0  0
 43 22  1  0  0  0  0
 44 22  1  0  0  0  0
 46 23  1  0  0  0  0
 47 23  1  0  0  0  0
 49 24  1  0  0  0  0
 54 25  1  0  0  0  0
M  END
$$$$
