CSD_code = YAXVOJ | q = 0 | S = 0 | Stoichiometry = C17H21Cl2NOTi | MND = 8
 OpenBabel04212202123D

 43 45  0  0  1  0  0  0  0  0999 V2000
    4.8826    2.5367    3.7012 Ti  0  0  0  0  0  0  0  0  0  0  0  0
    4.6215    1.6375    1.7473 Cl  0  0  0  0  0  0  0  0  0  0  0  0
    2.8354    2.8347    4.2947 Cl  0  0  0  0  0  0  0  0  0  0  0  0
    2.1194   -2.3538    7.3435 O   0  0  0  0  0  0  0  0  0  0  0  0
    5.5228    1.2598    4.8550 N   0  0  0  0  0  0  0  0  0  0  0  0
    6.7487    3.1222    4.6716 C   0  0  1  0  0  0  0  0  0  0  0  0
    6.9381    3.3511    3.2806 C   0  0  0  0  0  0  0  0  0  0  0  0
    7.6625    2.8794    2.6323 H   0  0  0  0  0  0  0  0  0  0  0  0
    6.1223    4.4407    2.9001 C   0  0  0  0  0  0  0  0  0  0  0  0
    6.1351    4.9248    1.9313 H   0  0  0  0  0  0  0  0  0  0  0  0
    5.4191    4.8865    4.0352 C   0  0  0  0  0  0  0  0  0  0  0  0
    4.7821    5.7601    4.0858 H   0  0  0  0  0  0  0  0  0  0  0  0
    5.7866    4.0715    5.1227 C   0  0  0  0  0  0  0  0  0  0  0  0
    5.4560    4.1913    6.1492 H   0  0  0  0  0  0  0  0  0  0  0  0
    6.7907    1.7671    5.3640 C   0  0  2  0  0  0  0  0  0  0  0  0
    6.7629    1.9191    6.4558 H   0  0  0  0  0  0  0  0  0  0  0  0
    7.9947    0.8392    5.0376 C   0  0  0  0  0  0  0  0  0  0  0  0
    9.2873    1.6202    5.2901 C   0  0  0  0  0  0  0  0  0  0  0  0
   10.1491    1.0008    5.0545 H   0  0  0  0  0  0  0  0  0  0  0  0
    9.3554    1.9188    6.3340 H   0  0  0  0  0  0  0  0  0  0  0  0
    9.3245    2.5178    4.6776 H   0  0  0  0  0  0  0  0  0  0  0  0
    7.9493   -0.3700    5.9791 C   0  0  0  0  0  0  0  0  0  0  0  0
    7.0533   -0.9596    5.8011 H   0  0  0  0  0  0  0  0  0  0  0  0
    7.9593   -0.0567    7.0208 H   0  0  0  0  0  0  0  0  0  0  0  0
    8.8184   -1.0024    5.8119 H   0  0  0  0  0  0  0  0  0  0  0  0
    7.9464    0.3289    3.5882 C   0  0  0  0  0  0  0  0  0  0  0  0
    8.5115    0.9735    2.9207 H   0  0  0  0  0  0  0  0  0  0  0  0
    6.9140    0.2636    3.2302 H   0  0  0  0  0  0  0  0  0  0  0  0
    8.3893   -0.6626    3.5318 H   0  0  0  0  0  0  0  0  0  0  0  0
    4.7184    0.3455    5.5014 C   0  0  0  0  0  0  0  0  0  0  0  0
    3.7358   -0.3085    4.7401 C   0  0  0  0  0  0  0  0  0  0  0  0
    3.6846   -0.1094    3.6708 H   0  0  0  0  0  0  0  0  0  0  0  0
    2.8551   -1.2042    5.3134 C   0  0  0  0  0  0  0  0  0  0  0  0
    2.1174   -1.6806    4.6873 H   0  0  0  0  0  0  0  0  0  0  0  0
    2.9285   -1.4844    6.6759 C   0  0  0  0  0  0  0  0  0  0  0  0
    3.9025   -0.8427    7.4417 C   0  0  0  0  0  0  0  0  0  0  0  0
    3.9486   -1.0619    8.4968 H   0  0  0  0  0  0  0  0  0  0  0  0
    4.7796    0.0531    6.8727 C   0  0  0  0  0  0  0  0  0  0  0  0
    5.5087    0.5393    7.5023 H   0  0  0  0  0  0  0  0  0  0  0  0
    1.1113   -3.0196    6.6224 C   0  0  0  0  0  0  0  0  0  0  0  0
    0.4020   -2.3143    6.1779 H   0  0  0  0  0  0  0  0  0  0  0  0
    0.5919   -3.6420    7.3494 H   0  0  0  0  0  0  0  0  0  0  0  0
    1.5321   -3.6561    5.8372 H   0  0  0  0  0  0  0  0  0  0  0  0
  1  3  1  0  0  0  0
  1  6  1  0  0  0  0
  1  5  1  0  0  0  0
  2  1  1  0  0  0  0
  5 15  1  0  0  0  0
  5 30  1  0  0  0  0
  6  7  1  6  0  0  0
  6 13  1  0  0  0  0
  6 15  1  0  0  0  0
  8  7  1  0  0  0  0
  9  7  2  0  0  0  0
  9 11  1  0  0  0  0
 10  9  1  0  0  0  0
 11 12  1  0  0  0  0
 11 13  2  0  0  0  0
 13 14  1  0  0  0  0
 15 16  1  1  0  0  0
 17 18  1  0  0  0  0
 17 15  1  0  0  0  0
 17 22  1  0  0  0  0
 18 20  1  0  0  0  0
 19 18  1  0  0  0  0
 21 18  1  0  0  0  0
 22 24  1  0  0  0  0
 23 22  1  0  0  0  0
 25 22  1  0  0  0  0
 26 17  1  0  0  0  0
 27 26  1  0  0  0  0
 28 26  1  0  0  0  0
 29 26  1  0  0  0  0
 30 38  1  0  0  0  0
 31 33  1  0  0  0  0
 31 30  2  0  0  0  0
 32 31  1  0  0  0  0
 33 35  2  0  0  0  0
 34 33  1  0  0  0  0
 35  4  1  0  0  0  0
 35 36  1  0  0  0  0
 36 37  1  0  0  0  0
 38 36  2  0  0  0  0
 38 39  1  0  0  0  0
 40  4  1  0  0  0  0
 40 42  1  0  0  0  0
 41 40  1  0  0  0  0
 43 40  1  0  0  0  0
M  END
$$$$
