CSD_code = YAYBIM | q = 0 | S = 0 | Stoichiometry = C17H14Cl2HgN2O | MND = 5
 OpenBabel04212202123D

 37 38  0  0  0  0  0  0  0  0999 V2000
    3.4272    3.6521    3.5211 Hg  0  0  0  0  0  0  0  0  0  0  0  0
    4.7687    4.9223    4.8628 Cl  0  0  0  0  0  0  0  0  0  0  0  0
    2.3285    3.8851    1.5359 Cl  0  0  0  0  0  0  0  0  0  0  0  0
    5.6960    2.9845    2.0819 O   0  0  0  0  0  0  0  0  0  0  0  0
    2.4742    2.1833    5.3142 N   0  0  0  0  0  0  0  0  0  0  0  0
    4.0919    1.2594    3.2833 N   0  0  0  0  0  0  0  0  0  0  0  0
    2.9706    0.9595    5.3621 C   0  0  0  0  0  0  0  0  0  0  0  0
    2.7633    0.1078    6.4715 C   0  0  0  0  0  0  0  0  0  0  0  0
    3.1867   -0.8849    6.4624 H   0  0  0  0  0  0  0  0  0  0  0  0
    2.0423    0.5624    7.5391 C   0  0  0  0  0  0  0  0  0  0  0  0
    1.8745   -0.0602    8.4064 H   0  0  0  0  0  0  0  0  0  0  0  0
    1.5070    1.8660    7.5092 C   0  0  0  0  0  0  0  0  0  0  0  0
    1.7520    2.6546    6.3467 C   0  0  0  0  0  0  0  0  0  0  0  0
    0.7521    2.4145    8.5644 C   0  0  0  0  0  0  0  0  0  0  0  0
    0.5748    1.8113    9.4429 H   0  0  0  0  0  0  0  0  0  0  0  0
    0.2589    3.6865    8.4739 C   0  0  0  0  0  0  0  0  0  0  0  0
   -0.3163    4.1056    9.2856 H   0  0  0  0  0  0  0  0  0  0  0  0
    0.4939    4.4623    7.3253 C   0  0  0  0  0  0  0  0  0  0  0  0
    0.0950    5.4639    7.2744 H   0  0  0  0  0  0  0  0  0  0  0  0
    1.2196    3.9602    6.2825 C   0  0  0  0  0  0  0  0  0  0  0  0
    1.4077    4.5484    5.3903 H   0  0  0  0  0  0  0  0  0  0  0  0
    3.7480    0.4799    4.2314 C   0  0  0  0  0  0  0  0  0  0  0  0
    4.0342   -0.5749    4.2579 H   0  0  0  0  0  0  0  0  0  0  0  0
    4.7430    0.8421    2.1419 C   0  0  0  0  0  0  0  0  0  0  0  0
    5.5449    1.7942    1.4648 C   0  0  0  0  0  0  0  0  0  0  0  0
    6.1437    1.4400    0.2610 C   0  0  0  0  0  0  0  0  0  0  0  0
    6.7465    2.1524   -0.2786 H   0  0  0  0  0  0  0  0  0  0  0  0
    5.9565    0.1755   -0.2689 C   0  0  0  0  0  0  0  0  0  0  0  0
    6.4217   -0.0770   -1.2096 H   0  0  0  0  0  0  0  0  0  0  0  0
    5.1694   -0.7578    0.3870 C   0  0  0  0  0  0  0  0  0  0  0  0
    5.0135   -1.7351   -0.0424 H   0  0  0  0  0  0  0  0  0  0  0  0
    4.5687   -0.4260    1.5836 C   0  0  0  0  0  0  0  0  0  0  0  0
    3.9128   -1.1308    2.0724 H   0  0  0  0  0  0  0  0  0  0  0  0
    6.4503    3.9985    1.4452 C   0  0  0  0  0  0  0  0  0  0  0  0
    6.4258    4.8487    2.1259 H   0  0  0  0  0  0  0  0  0  0  0  0
    6.0021    4.2825    0.4890 H   0  0  0  0  0  0  0  0  0  0  0  0
    7.4866    3.6803    1.2971 H   0  0  0  0  0  0  0  0  0  0  0  0
  1  2  1  0  0  0  0
  3  1  1  0  0  0  0
  5  7  2  0  0  0  0
  5 13  1  0  0  0  0
  6 22  2  0  0  0  0
  7  8  1  0  0  0  0
  8 10  2  0  0  0  0
  9  8  1  0  0  0  0
 10 11  1  0  0  0  0
 12 10  1  0  0  0  0
 12 14  1  0  0  0  0
 13 12  2  0  0  0  0
 14 15  1  0  0  0  0
 16 14  2  0  0  0  0
 16 17  1  0  0  0  0
 18 16  1  0  0  0  0
 19 18  1  0  0  0  0
 20 13  1  0  0  0  0
 20 18  2  0  0  0  0
 21 20  1  0  0  0  0
 22 23  1  0  0  0  0
 22  7  1  0  0  0  0
 24  6  1  0  0  0  0
 25  4  1  0  0  0  0
 25 24  2  0  0  0  0
 26 25  1  0  0  0  0
 27 26  1  0  0  0  0
 28 26  2  0  0  0  0
 28 30  1  0  0  0  0
 29 28  1  0  0  0  0
 30 32  2  0  0  0  0
 31 30  1  0  0  0  0
 32 33  1  0  0  0  0
 32 24  1  0  0  0  0
 34  4  1  0  0  0  0
 34 35  1  0  0  0  0
 36 34  1  0  0  0  0
 37 34  1  0  0  0  0
M  END
$$$$
