CSD_code = YAYBEI | q = 0 | S = 0 | Stoichiometry = C17H14Cl2N2OZn | MND = 5
 OpenBabel04212202123D

 37 40  0  0  1  0  0  0  0  0999 V2000
    5.9921    2.3225    0.7031 Zn  0  0  0  0  0  0  0  0  0  0  0  0
    4.1130    3.4664    0.8759 Cl  0  0  0  0  0  0  0  0  0  0  0  0
    8.0594    3.1029    0.9156 Cl  0  0  0  0  0  0  0  0  0  0  0  0
    6.1457    2.8907   -1.6366 O   0  0  0  0  0  0  0  0  0  0  0  0
    6.0747    0.6827    2.1098 N   0  0  0  0  0  0  0  0  0  0  0  0
    5.5783    0.6085   -0.5252 N   0  0  0  0  0  0  0  0  0  0  0  0
    6.0229   -0.4914    1.5087 C   0  0  0  0  0  0  0  0  0  0  0  0
    6.2698   -1.6983    2.2000 C   0  0  0  0  0  0  0  0  0  0  0  0
    6.2143   -2.6358    1.6683 H   0  0  0  0  0  0  0  0  0  0  0  0
    6.5856   -1.6499    3.5291 C   0  0  0  0  0  0  0  0  0  0  0  0
    6.7892   -2.5530    4.0867 H   0  0  0  0  0  0  0  0  0  0  0  0
    6.6471   -0.4039    4.1857 C   0  0  0  0  0  0  0  0  0  0  0  0
    6.3719    0.7657    3.4155 C   0  0  2  0  0  3  0  0  0  0  0  0
    6.9651   -0.2631    5.5502 C   0  0  0  0  0  0  0  0  0  0  0  0
    7.1757   -1.1507    6.1289 H   0  0  0  0  0  0  0  0  0  0  0  0
    7.0070    0.9776    6.1246 C   0  0  0  0  0  0  0  0  0  0  0  0
    7.2551    1.0825    7.1702 H   0  0  0  0  0  0  0  0  0  0  0  0
    6.7279    2.1277    5.3654 C   0  0  0  0  0  0  0  0  0  0  0  0
    6.7657    3.0956    5.8413 H   0  0  0  0  0  0  0  0  0  0  0  0
    6.4128    2.0297    4.0394 C   0  0  0  0  0  0  0  0  0  0  0  0
    6.1961    2.9025    3.4407 H   0  0  0  0  0  0  0  0  0  0  0  0
    5.6933   -0.4987    0.0983 C   0  0  0  0  0  3  0  0  0  0  0  0
    5.5676   -1.4720   -0.3779 H   0  0  0  0  0  0  0  0  0  0  0  0
    5.1906    0.7675   -1.8322 C   0  0  0  0  0  0  0  0  0  0  0  0
    5.4531    2.0374   -2.4055 C   0  0  0  0  0  0  0  0  0  0  0  0
    5.0132    2.3015   -3.6993 C   0  0  0  0  0  0  0  0  0  0  0  0
    5.1875    3.2664   -4.1471 H   0  0  0  0  0  0  0  0  0  0  0  0
    4.3345    1.3327   -4.4152 C   0  0  0  0  0  0  0  0  0  0  0  0
    3.9953    1.5552   -5.4154 H   0  0  0  0  0  0  0  0  0  0  0  0
    4.0754    0.0881   -3.8587 C   0  0  0  0  0  0  0  0  0  0  0  0
    3.5323   -0.6545   -4.4221 H   0  0  0  0  0  0  0  0  0  0  0  0
    4.4980   -0.1914   -2.5770 C   0  0  0  0  0  0  0  0  0  0  0  0
    4.2599   -1.1437   -2.1286 H   0  0  0  0  0  0  0  0  0  0  0  0
    6.4249    4.1953   -2.1050 C   0  0  0  0  0  0  0  0  0  0  0  0
    7.0110    4.1614   -3.0276 H   0  0  0  0  0  0  0  0  0  0  0  0
    7.0142    4.6611   -1.3168 H   0  0  0  0  0  0  0  0  0  0  0  0
    5.5032    4.7627   -2.2584 H   0  0  0  0  0  0  0  0  0  0  0  0
  1  2  1  0  0  0  0
  1  3  1  0  0  0  0
  1  5  1  0  0  0  0
  5 13  1  0  0  0  0
  6 22  1  0  0  0  0
  6  1  1  0  0  0  0
  7  5  1  0  0  0  0
  7  8  2  0  0  0  0
  8 10  1  0  0  0  0
  9  8  1  0  0  0  0
 10 11  1  0  0  0  0
 10 12  2  0  0  0  0
 12 14  1  0  0  0  0
 13 20  1  1  0  0  0
 13 12  1  0  0  0  0
 14 16  2  0  0  0  0
 14 15  1  0  0  0  0
 16 17  1  0  0  0  0
 18 19  1  0  0  0  0
 18 16  1  0  0  0  0
 20 18  2  0  0  0  0
 21 20  1  0  0  0  0
 22  7  1  0  0  0  0
 23 22  1  0  0  0  0
 24  6  1  0  0  0  0
 25 24  1  0  0  0  0
 25  4  1  0  0  0  0
 26 25  2  0  0  0  0
 27 26  1  0  0  0  0
 28 30  2  0  0  0  0
 28 26  1  0  0  0  0
 29 28  1  0  0  0  0
 30 32  1  0  0  0  0
 31 30  1  0  0  0  0
 32 33  1  0  0  0  0
 32 24  2  0  0  0  0
 34  4  1  0  0  0  0
 34 36  1  0  0  0  0
 35 34  1  0  0  0  0
 37 34  1  0  0  0  0
M  END
$$$$
