CSD_code = YAYCEJ | q = 0 | S = 0 | Stoichiometry = C16H18Cl2CuN3S | MND = 3
 OpenBabel04212202123D

 41 43  0  0  0  0  0  0  0  0999 V2000
    4.5456    2.9106    3.3873 Cu  0  0  0  0  0  0  0  0  0  0  0  0
    3.8629    6.1605    6.7407 S   0  0  0  0  0  0  0  0  0  0  0  0
    5.1737    1.6493    1.8670 Cl  0  0  0  0  0  0  0  0  0  0  0  0
    2.6409    2.7955    4.4085 Cl  0  0  0  0  0  0  0  0  0  0  0  0
    5.0744    4.3943    4.4266 N   0  0  0  0  0  0  0  0  0  0  0  0
    5.9293    3.1287    8.3453 C   0  0  0  0  0  0  0  0  0  0  0  0
    6.1947    2.6700    9.5948 N   0  0  0  0  0  0  0  0  0  0  0  0
    6.1609    2.9362    5.9433 C   0  0  0  0  0  0  0  0  0  0  0  0
    6.5505    2.4250    5.0739 H   0  0  0  0  0  0  0  0  0  0  0  0
    4.3999    5.5291    4.1050 C   0  0  0  0  0  0  0  0  0  0  0  0
    5.1509    4.2753    8.1342 C   0  0  0  0  0  0  0  0  0  0  0  0
    4.7298    4.8221    8.9611 H   0  0  0  0  0  0  0  0  0  0  0  0
    3.7766    6.4103    5.0112 C   0  0  0  0  0  0  0  0  0  0  0  0
    5.6904    3.3663   10.7530 C   0  0  0  0  0  0  0  0  0  0  0  0
    6.0082    4.4115   10.7422 H   0  0  0  0  0  0  0  0  0  0  0  0
    6.0837    2.9039   11.6548 H   0  0  0  0  0  0  0  0  0  0  0  0
    4.5972    3.3319   10.7955 H   0  0  0  0  0  0  0  0  0  0  0  0
    6.4406    2.4767    7.1974 C   0  0  0  0  0  0  0  0  0  0  0  0
    7.0620    1.6037    7.2987 H   0  0  0  0  0  0  0  0  0  0  0  0
    3.0669    7.5111    4.5734 C   0  0  0  0  0  0  0  0  0  0  0  0
    2.6097    8.1340    5.3238 H   0  0  0  0  0  0  0  0  0  0  0  0
    4.8614    4.7290    6.8623 C   0  0  0  0  0  0  0  0  0  0  0  0
    4.2803    5.8493    2.7355 C   0  0  0  0  0  0  0  0  0  0  0  0
    4.7622    5.1876    2.0288 H   0  0  0  0  0  0  0  0  0  0  0  0
    2.9214    7.7961    3.2085 C   0  0  0  0  0  0  0  0  0  0  0  0
    6.8876    1.4180    9.7850 C   0  0  0  0  0  0  0  0  0  0  0  0
    6.3871    0.6069    9.2501 H   0  0  0  0  0  0  0  0  0  0  0  0
    6.9008    1.1680   10.8427 H   0  0  0  0  0  0  0  0  0  0  0  0
    7.9224    1.4836    9.4367 H   0  0  0  0  0  0  0  0  0  0  0  0
    5.3447    4.0652    5.7169 C   0  0  0  0  0  0  0  0  0  0  0  0
    3.5693    6.9283    2.2967 C   0  0  0  0  0  0  0  0  0  0  0  0
    3.5029    7.1034    1.2366 H   0  0  0  0  0  0  0  0  0  0  0  0
    2.2011    8.8636    2.7798 N   0  0  0  0  0  0  0  0  0  0  0  0
    1.5134    9.7071    3.7264 C   0  0  0  0  0  0  0  0  0  0  0  0
    0.7977    9.1319    4.3196 H   0  0  0  0  0  0  0  0  0  0  0  0
    0.9690   10.4833    3.1957 H   0  0  0  0  0  0  0  0  0  0  0  0
    2.2218   10.1903    4.4045 H   0  0  0  0  0  0  0  0  0  0  0  0
    2.0352    9.1192    1.3692 C   0  0  0  0  0  0  0  0  0  0  0  0
    3.0017    9.2837    0.8856 H   0  0  0  0  0  0  0  0  0  0  0  0
    1.4327   10.0134    1.2310 H   0  0  0  0  0  0  0  0  0  0  0  0
    1.5301    8.2860    0.8721 H   0  0  0  0  0  0  0  0  0  0  0  0
  1  4  1  0  0  0  0
  1  5  1  0  0  0  0
  2 22  1  0  0  0  0
  3  1  1  0  0  0  0
  5 30  1  0  0  0  0
  6  7  1  0  0  0  0
  7 26  1  0  0  0  0
  7 14  1  0  0  0  0
  8 18  1  0  0  0  0
  9  8  1  0  0  0  0
 10  5  1  0  0  0  0
 10 13  1  0  0  0  0
 11  6  1  0  0  0  0
 11 12  1  0  0  0  0
 13  2  1  0  0  0  0
 14 17  1  0  0  0  0
 14 16  1  0  0  0  0
 15 14  1  0  0  0  0
 18 19  1  0  0  0  0
 18  6  2  0  0  0  0
 20 13  2  0  0  0  0
 20 21  1  0  0  0  0
 22 11  2  0  0  0  0
 23 10  2  0  0  0  0
 24 23  1  0  0  0  0
 25 20  1  0  0  0  0
 26 28  1  0  0  0  0
 27 26  1  0  0  0  0
 29 26  1  0  0  0  0
 30  8  2  0  0  0  0
 30 22  1  0  0  0  0
 31 23  1  0  0  0  0
 31 25  2  0  0  0  0
 32 31  1  0  0  0  0
 33 25  1  0  0  0  0
 33 34  1  0  0  0  0
 34 35  1  0  0  0  0
 34 37  1  0  0  0  0
 36 34  1  0  0  0  0
 38 33  1  0  0  0  0
 39 38  1  0  0  0  0
 40 38  1  0  0  0  0
 41 38  1  0  0  0  0
M  END
$$$$
