CSD_code = YAYCIN | q = 0 | S = 0 | Stoichiometry = C16H18AgCl2N3S | MND = 3
 OpenBabel04212202123D

 41 43  0  0  0  0  0  0  0  0999 V2000
    3.8269    3.0912    3.6954 Ag  0  0  0  0  0  0  0  0  0  0  0  0
    3.7389    6.4689    6.8758 S   0  0  0  0  0  0  0  0  0  0  0  0
    2.0662    3.6631    5.0959 Cl  0  0  0  0  0  0  0  0  0  0  0  0
    5.2770    2.2126    2.1596 Cl  0  0  0  0  0  0  0  0  0  0  0  0
    3.7415    6.7347    5.1508 C   0  0  0  0  0  0  0  0  0  0  0  0
    4.6584    4.9930    7.0257 C   0  0  0  0  0  0  0  0  0  0  0  0
    5.0177    4.6903    4.5980 N   0  0  0  0  0  0  0  0  0  0  0  0
    5.7780    2.8478    9.7863 N   0  0  0  0  0  0  0  0  0  0  0  0
    5.1800    4.3294    5.8933 C   0  0  0  0  0  0  0  0  0  0  0  0
    2.4118    9.2849    2.8715 N   0  0  0  0  0  0  0  0  0  0  0  0
    6.1502    2.6845    7.4015 C   0  0  0  0  0  0  0  0  0  0  0  0
    6.7338    1.7880    7.5228 H   0  0  0  0  0  0  0  0  0  0  0  0
    3.0624    8.1838    3.3234 C   0  0  0  0  0  0  0  0  0  0  0  0
    2.4534    9.6507    1.4762 C   0  0  0  0  0  0  0  0  0  0  0  0
    3.4842    9.6936    1.1192 H   0  0  0  0  0  0  0  0  0  0  0  0
    2.0131   10.6364    1.3484 H   0  0  0  0  0  0  0  0  0  0  0  0
    1.8954    8.9409    0.8577 H   0  0  0  0  0  0  0  0  0  0  0  0
    5.5989    3.3369    8.5335 C   0  0  0  0  0  0  0  0  0  0  0  0
    5.9475    3.1672    6.1421 C   0  0  0  0  0  0  0  0  0  0  0  0
    6.3723    2.6671    5.2792 H   0  0  0  0  0  0  0  0  0  0  0  0
    6.4819    1.6057    9.9978 C   0  0  0  0  0  0  0  0  0  0  0  0
    6.0002    0.7822    9.4638 H   0  0  0  0  0  0  0  0  0  0  0  0
    6.4849    1.3664   11.0578 H   0  0  0  0  0  0  0  0  0  0  0  0
    7.5199    1.6819    9.6637 H   0  0  0  0  0  0  0  0  0  0  0  0
    4.3855    5.8411    4.2665 C   0  0  0  0  0  0  0  0  0  0  0  0
    1.6024   10.0748    3.7676 C   0  0  0  0  0  0  0  0  0  0  0  0
    0.9048    9.4408    4.3194 H   0  0  0  0  0  0  0  0  0  0  0  0
    1.0242   10.7958    3.1956 H   0  0  0  0  0  0  0  0  0  0  0  0
    2.2227   10.6213    4.4846 H   0  0  0  0  0  0  0  0  0  0  0  0
    4.3619    6.1855    2.8944 C   0  0  0  0  0  0  0  0  0  0  0  0
    4.8690    5.5126    2.2123 H   0  0  0  0  0  0  0  0  0  0  0  0
    4.8709    4.5118    8.3032 C   0  0  0  0  0  0  0  0  0  0  0  0
    4.4338    5.0650    9.1174 H   0  0  0  0  0  0  0  0  0  0  0  0
    3.7297    7.3031    2.4348 C   0  0  0  0  0  0  0  0  0  0  0  0
    3.7259    7.4962    1.3756 H   0  0  0  0  0  0  0  0  0  0  0  0
    3.1080    7.8720    4.6887 C   0  0  0  0  0  0  0  0  0  0  0  0
    2.6408    8.5098    5.4203 H   0  0  0  0  0  0  0  0  0  0  0  0
    5.1780    3.5091   10.9193 C   0  0  0  0  0  0  0  0  0  0  0  0
    5.5470    4.5340   11.0108 H   0  0  0  0  0  0  0  0  0  0  0  0
    5.4333    2.9749   11.8305 H   0  0  0  0  0  0  0  0  0  0  0  0
    4.0884    3.5357   10.8302 H   0  0  0  0  0  0  0  0  0  0  0  0
  1  7  1  0  0  0  0
  1  3  1  0  0  0  0
  2  6  1  0  0  0  0
  4  1  1  0  0  0  0
  5  2  1  0  0  0  0
  6 32  1  0  0  0  0
  7  9  1  0  0  0  0
  8 21  1  0  0  0  0
  8 38  1  0  0  0  0
  9 19  1  0  0  0  0
  9  6  2  0  0  0  0
 10 13  1  0  0  0  0
 10 26  1  0  0  0  0
 11 12  1  0  0  0  0
 11 18  1  0  0  0  0
 13 36  2  0  0  0  0
 14 10  1  0  0  0  0
 15 14  1  0  0  0  0
 16 14  1  0  0  0  0
 17 14  1  0  0  0  0
 18  8  1  0  0  0  0
 19 11  2  0  0  0  0
 20 19  1  0  0  0  0
 21 23  1  0  0  0  0
 22 21  1  0  0  0  0
 24 21  1  0  0  0  0
 25  7  1  0  0  0  0
 25  5  2  0  0  0  0
 26 27  1  0  0  0  0
 26 29  1  0  0  0  0
 28 26  1  0  0  0  0
 30 25  1  0  0  0  0
 31 30  1  0  0  0  0
 32 18  2  0  0  0  0
 32 33  1  0  0  0  0
 34 30  2  0  0  0  0
 34 13  1  0  0  0  0
 35 34  1  0  0  0  0
 36  5  1  0  0  0  0
 36 37  1  0  0  0  0
 38 39  1  0  0  0  0
 38 40  1  0  0  0  0
 41 38  1  0  0  0  0
M  END
$$$$
