CSD_code = YAYSUM | q = 0 | S = 0 | Stoichiometry = C25H22Cl3O2P2Re | MND = 6
 OpenBabel04212202123D

 55 59  0  0  0  0  0  0  0  0999 V2000
    0.3951    0.5647    5.2524 Re  0  0  0  0  0  0  0  0  0  0  0  0
    0.5334   -0.5611    7.2896 Cl  0  0  0  0  0  0  0  0  0  0  0  0
    1.0214    1.7079    3.3564 Cl  0  0  0  0  0  0  0  0  0  0  0  0
    0.8400    2.4421    6.3650 Cl  0  0  0  0  0  0  0  0  0  0  0  0
    3.6118   -0.8765    5.2986 P   0  0  0  0  0  4  0  0  0  0  0  0
    0.9365   -1.6492    4.3625 P   0  0  0  0  0  4  0  0  0  0  0  0
   -1.2083    0.3245    4.8901 O   0  0  0  0  0  1  0  0  0  0  0  0
    2.8224    0.3727    5.4502 O   0  0  0  0  0  0  0  0  0  0  0  0
    2.4318   -2.3076    5.2095 C   0  0  0  0  0  0  0  0  0  0  0  0
    4.6894   -1.1348    6.7320 C   0  0  0  0  0  0  0  0  0  0  0  0
    4.0639   -1.2095    7.9722 C   0  0  0  0  0  0  0  0  0  0  0  0
    4.8301   -1.3335    9.1164 C   0  0  0  0  0  0  0  0  0  0  0  0
    6.2127   -1.3762    9.0236 C   0  0  0  0  0  0  0  0  0  0  0  0
    6.8327   -1.2816    7.7883 C   0  0  0  0  0  0  0  0  0  0  0  0
    6.0736   -1.1554    6.6376 C   0  0  0  0  0  0  0  0  0  0  0  0
    4.5389   -0.9026    3.7466 C   0  0  0  0  0  0  0  0  0  0  0  0
    4.3190    0.1274    2.8419 C   0  0  0  0  0  0  0  0  0  0  0  0
    4.9630    0.1091    1.6170 C   0  0  0  0  0  0  0  0  0  0  0  0
    5.8239   -0.9293    1.3030 C   0  0  0  0  0  0  0  0  0  0  0  0
    6.0425   -1.9577    2.2083 C   0  0  0  0  0  0  0  0  0  0  0  0
    5.3972   -1.9507    3.4307 C   0  0  0  0  0  0  0  0  0  0  0  0
    1.2284   -1.7093    2.5775 C   0  0  0  0  0  0  0  0  0  0  0  0
    0.2879   -1.0191    1.8130 C   0  0  0  0  0  0  0  0  0  0  0  0
    0.4090   -0.9793    0.4380 C   0  0  0  0  0  0  0  0  0  0  0  0
    1.4679   -1.6256   -0.1812 C   0  0  0  0  0  0  0  0  0  0  0  0
    2.3933   -2.3250    0.5746 C   0  0  0  0  0  0  0  0  0  0  0  0
    2.2767   -2.3732    1.9527 C   0  0  0  0  0  0  0  0  0  0  0  0
   -0.3012   -2.9471    4.6445 C   0  0  0  0  0  0  0  0  0  0  0  0
   -1.4591   -2.6965    5.3686 C   0  0  0  0  0  0  0  0  0  0  0  0
   -2.3738   -3.7155    5.5727 C   0  0  0  0  0  0  0  0  0  0  0  0
   -2.1374   -4.9770    5.0528 C   0  0  0  0  0  0  0  0  0  0  0  0
   -0.9875   -5.2236    4.3180 C   0  0  0  0  0  0  0  0  0  0  0  0
   -0.0690   -4.2125    4.1103 C   0  0  0  0  0  0  0  0  0  0  0  0
    2.1272   -2.5711    6.2282 H   0  0  0  0  0  0  0  0  0  0  0  0
    2.8461   -3.1819    4.7079 H   0  0  0  0  0  0  0  0  0  0  0  0
    2.9851   -1.1468    8.0343 H   0  0  0  0  0  0  0  0  0  0  0  0
    4.3486   -1.3892   10.0809 H   0  0  0  0  0  0  0  0  0  0  0  0
    6.8102   -1.4710    9.9181 H   0  0  0  0  0  0  0  0  0  0  0  0
    7.9104   -1.2978    7.7204 H   0  0  0  0  0  0  0  0  0  0  0  0
    6.5534   -1.0620    5.6737 H   0  0  0  0  0  0  0  0  0  0  0  0
    3.6344    0.9239    3.0984 H   0  0  0  0  0  0  0  0  0  0  0  0
    4.7885    0.9044    0.9089 H   0  0  0  0  0  0  0  0  0  0  0  0
    6.3284   -0.9422    0.3483 H   0  0  0  0  0  0  0  0  0  0  0  0
    6.7136   -2.7663    1.9579 H   0  0  0  0  0  0  0  0  0  0  0  0
    5.5509   -2.7545    4.1388 H   0  0  0  0  0  0  0  0  0  0  0  0
   -0.5213   -0.5049    2.3171 H   0  0  0  0  0  0  0  0  0  0  0  0
   -0.3137   -0.4355   -0.1503 H   0  0  0  0  0  0  0  0  0  0  0  0
    1.5726   -1.5844   -1.2550 H   0  0  0  0  0  0  0  0  0  0  0  0
    3.2152   -2.8339    0.0926 H   0  0  0  0  0  0  0  0  0  0  0  0
    3.0089   -2.9246    2.5242 H   0  0  0  0  0  0  0  0  0  0  0  0
   -1.6414   -1.7052    5.7611 H   0  0  0  0  0  0  0  0  0  0  0  0
   -3.2727   -3.5216    6.1374 H   0  0  0  0  0  0  0  0  0  0  0  0
   -2.8520   -5.7703    5.2133 H   0  0  0  0  0  0  0  0  0  0  0  0
   -0.8092   -6.2051    3.9042 H   0  0  0  0  0  0  0  0  0  0  0  0
    0.8210   -4.3973    3.5241 H   0  0  0  0  0  0  0  0  0  0  0  0
  1  8  1  0  0  0  0
  1  4  1  0  0  0  0
  1  2  1  0  0  0  0
  3  1  1  0  0  0  0
  5  8  1  0  0  0  0
  5 10  1  0  0  0  0
  6 28  1  0  0  0  0
  6  9  1  0  0  0  0
  6  1  1  0  0  0  0
  7  1  1  0  0  0  0
  9  5  1  0  0  0  0
  9 34  1  0  0  0  0
 10 11  1  0  0  0  0
 11 36  1  0  0  0  0
 11 12  2  0  0  0  0
 12 37  1  0  0  0  0
 13 12  1  0  0  0  0
 13 38  1  0  0  0  0
 14 13  2  0  0  0  0
 15 10  2  0  0  0  0
 15 14  1  0  0  0  0
 16  5  1  0  0  0  0
 17 41  1  0  0  0  0
 17 16  2  0  0  0  0
 18 17  1  0  0  0  0
 19 18  2  0  0  0  0
 19 20  1  0  0  0  0
 20 21  2  0  0  0  0
 21 16  1  0  0  0  0
 21 45  1  0  0  0  0
 22  6  1  0  0  0  0
 23 46  1  0  0  0  0
 23 22  2  0  0  0  0
 24 23  1  0  0  0  0
 25 24  2  0  0  0  0
 25 26  1  0  0  0  0
 26 27  2  0  0  0  0
 27 50  1  0  0  0  0
 27 22  1  0  0  0  0
 28 29  1  0  0  0  0
 29 30  2  0  0  0  0
 29 51  1  0  0  0  0
 30 52  1  0  0  0  0
 31 53  1  0  0  0  0
 31 30  1  0  0  0  0
 32 31  2  0  0  0  0
 33 32  1  0  0  0  0
 33 28  2  0  0  0  0
 35  9  1  0  0  0  0
 39 14  1  0  0  0  0
 40 15  1  0  0  0  0
 42 18  1  0  0  0  0
 43 19  1  0  0  0  0
 44 20  1  0  0  0  0
 47 24  1  0  0  0  0
 48 25  1  0  0  0  0
 49 26  1  0  0  0  0
 54 32  1  0  0  0  0
 55 33  1  0  0  0  0
M  END
$$$$
