CSD_code = YAZCIN | q = 0 | S = 0 | Stoichiometry = C23H25ClIrN3 | MND = 8
 OpenBabel04212202123D

 53 56  0  0  1  0  0  0  0  0999 V2000
    8.4611    3.6935    2.5233 Cl  0  0  0  0  0 15  0  0  0  0  0  0
    4.2683    3.1664    3.9781 C   0  0  0  0  0  0  0  0  0  0  0  0
    3.5270    4.0514    1.6378 C   0  0  0  0  0  0  0  0  0  0  0  0
    4.0164    4.5383    0.7987 H   0  0  0  0  0  0  0  0  0  0  0  0
    2.6169    4.6077    1.8719 H   0  0  0  0  0  0  0  0  0  0  0  0
    3.2447    3.0449    1.3396 H   0  0  0  0  0  0  0  0  0  0  0  0
    6.8730    0.5110    1.6592 C   0  0  0  0  0  0  0  0  0  0  0  0
    7.9669    1.3038    4.9329 C   0  0  0  0  0  0  0  0  0  0  0  0
    7.3130    1.2742    3.7570 N   0  0  0  0  0  0  0  0  0  0  0  0
    8.3983    2.4943    6.8235 C   0  0  0  0  0  0  0  0  0  0  0  0
    8.2096    3.3962    7.3915 H   0  0  0  0  0  0  0  0  0  0  0  0
    5.0200    3.7432    5.0785 C   0  0  0  0  0  0  0  0  0  0  0  0
    7.7519    2.3853    5.6918 N   0  0  0  0  0  0  0  0  0  0  0  0
    6.7501   -0.1840    0.4819 N   0  0  0  0  0  0  0  0  0  0  0  0
    4.4157    4.0322    2.8426 C   0  0  0  0  0  0  0  0  0  0  0  0
    7.2518   -1.4936    0.1814 C   0  0  0  0  0  0  0  0  0  0  0  0
    6.8852   -2.2231    0.9075 H   0  0  0  0  0  0  0  0  0  0  0  0
    8.3449   -1.5035    0.1849 H   0  0  0  0  0  0  0  0  0  0  0  0
    6.9074   -1.7867   -0.8097 H   0  0  0  0  0  0  0  0  0  0  0  0
    4.9090    3.2599    6.4858 C   0  0  0  0  0  0  0  0  0  0  0  0
    5.5979    3.7887    7.1374 H   0  0  0  0  0  0  0  0  0  0  0  0
    5.1269    2.1951    6.5534 H   0  0  0  0  0  0  0  0  0  0  0  0
    3.8922    3.4203    6.8502 H   0  0  0  0  0  0  0  0  0  0  0  0
    8.3662   -0.8268    3.2406 C   0  0  0  0  0  0  0  0  0  0  0  0
    8.5060   -1.6358    2.5435 H   0  0  0  0  0  0  0  0  0  0  0  0
    6.6607    5.7389    5.3250 C   0  0  0  0  0  0  0  0  0  0  0  0
    6.2677    6.7574    5.3056 H   0  0  0  0  0  0  0  0  0  0  0  0
    7.6445    5.7472    4.8567 H   0  0  0  0  0  0  0  0  0  0  0  0
    6.7770    5.4291    6.3601 H   0  0  0  0  0  0  0  0  0  0  0  0
    6.2397    1.7670    1.5282 C   0  0  0  0  0  0  0  0  0  0  0  0
    5.7483    4.8175    4.5872 C   0  0  0  0  0  0  0  0  0  0  0  0
    8.8435    0.2566    5.3282 C   0  0  0  0  0  0  0  0  0  0  0  0
    3.1844    2.1473    4.1522 C   0  0  0  0  0  0  0  0  0  0  0  0
    3.4769    1.3880    4.8742 H   0  0  0  0  0  0  0  0  0  0  0  0
    2.9564    1.6569    3.2087 H   0  0  0  0  0  0  0  0  0  0  0  0
    2.2739    2.6290    4.5161 H   0  0  0  0  0  0  0  0  0  0  0  0
    7.5299    0.2589    2.8857 C   0  0  0  0  0  0  0  0  0  0  0  0
    6.0745    0.6071   -0.3845 C   0  0  0  0  0  0  0  0  0  0  0  0
    5.8599    0.2673   -1.3808 H   0  0  0  0  0  0  0  0  0  0  0  0
    5.7506    1.8041    0.2130 C   0  0  0  0  0  0  0  0  0  0  0  0
    5.2286    2.6075   -0.2653 H   0  0  0  0  0  0  0  0  0  0  0  0
    5.4299    4.9742    3.1746 C   0  0  2  0  0  0  0  0  0  0  0  0
    5.8458    6.1656    2.3694 C   0  0  0  0  0  0  0  0  0  0  0  0
    5.6190    6.0252    1.3157 H   0  0  0  0  0  0  0  0  0  0  0  0
    6.9160    6.3360    2.4673 H   0  0  0  0  0  0  0  0  0  0  0  0
    5.3213    7.0555    2.7240 H   0  0  0  0  0  0  0  0  0  0  0  0
    9.5026    0.3973    6.5574 C   0  0  0  0  0  0  0  0  0  0  0  0
   10.1790   -0.3782    6.8890 H   0  0  0  0  0  0  0  0  0  0  0  0
    9.0075   -0.8346    4.4423 C   0  0  0  0  0  0  0  0  0  0  0  0
    9.6597   -1.6484    4.7244 H   0  0  0  0  0  0  0  0  0  0  0  0
    9.2873    1.5282    7.3091 C   0  0  0  0  0  0  0  0  0  0  0  0
    9.7881    1.6776    8.2527 H   0  0  0  0  0  0  0  0  0  0  0  0
    6.3258    2.9545    3.1499 Ir  0  0  0  0  0  0  0  0  0  0  0  0
  2 33  1  0  0  0  0
  2 12  1  0  0  0  0
  3  5  1  0  0  0  0
  3 15  1  0  0  0  0
  4  3  1  0  0  0  0
  6  3  1  0  0  0  0
  7 37  2  0  0  0  0
  8 32  2  0  0  0  0
  8 13  1  0  0  0  0
  9  8  1  0  0  0  0
 10 51  1  0  0  0  0
 10 11  1  0  0  0  0
 12 20  1  0  0  0  0
 13 10  2  0  0  0  0
 14  7  1  0  0  0  0
 15 42  1  0  0  0  0
 15  2  2  0  0  0  0
 16 18  1  0  0  0  0
 16 14  1  0  0  0  0
 16 17  1  0  0  0  0
 19 16  1  0  0  0  0
 20 22  1  0  0  0  0
 20 23  1  0  0  0  0
 20 21  1  0  0  0  0
 24 49  2  0  0  0  0
 25 24  1  0  0  0  0
 26 29  1  0  0  0  0
 27 26  1  0  0  0  0
 28 26  1  0  0  0  0
 30  7  1  0  0  0  0
 30 53  2  0  0  0  0
 31 12  2  0  0  0  0
 31 26  1  0  0  0  0
 32 47  1  0  0  0  0
 33 36  1  0  0  0  0
 33 34  1  0  0  0  0
 35 33  1  0  0  0  0
 37 24  1  0  0  0  0
 37  9  1  0  0  0  0
 38 40  2  0  0  0  0
 38 14  1  0  0  0  0
 39 38  1  0  0  0  0
 40 30  1  0  0  0  0
 41 40  1  0  0  0  0
 42 43  1  6  0  0  0
 42 31  1  0  0  0  0
 43 45  1  0  0  0  0
 43 46  1  0  0  0  0
 44 43  1  0  0  0  0
 47 48  1  0  0  0  0
 47 51  2  0  0  0  0
 49 50  1  0  0  0  0
 49 32  1  0  0  0  0
 51 52  1  0  0  0  0
 53 42  1  0  0  0  0
 53  9  1  0  0  0  0
M  END
$$$$
