CSD_code = YAZNES | q = 1 | S = 0 | Stoichiometry = C11H21ClN3O4Pt(1+) | MND = 6
 OpenBabel04212202123D

 41 44  0  0  1  0  0  0  0  0999 V2000
   13.8993    4.5130    6.9869 Pt  0  0  0  0  0  0  0  0  0  0  0  0
   14.1870    4.8239    9.2841 Cl  0  0  0  0  0  0  0  0  0  0  0  0
   12.2203    3.2420    7.3350 N   0  0  0  0  0  4  0  0  0  0  0  0
   11.0708    4.0700    7.7759 C   0  0  2  0  0  0  0  0  0  0  0  0
    9.7458    3.3056    7.6136 C   0  0  0  0  0  0  0  0  0  0  0  0
    8.5732    4.2571    7.3409 C   0  0  0  0  0  0  0  0  0  0  0  0
    8.7940    5.5837    8.0543 C   0  0  0  0  0  0  0  0  0  0  0  0
    9.9715    6.3326    7.4197 C   0  0  0  0  0  0  0  0  0  0  0  0
   11.0766    5.3661    6.9532 C   0  0  1  0  0  0  0  0  0  0  0  0
   12.4127    5.9693    7.0946 N   0  0  0  0  0  4  0  0  0  0  0  0
   15.3449    5.8505    6.6436 O   0  0  0  0  0  0  0  0  0  0  0  0
   16.5585    5.4534    6.8891 C   0  0  0  0  0  0  0  0  0  0  0  0
   17.5211    6.1563    6.8026 O   0  0  0  0  0  0  0  0  0  0  0  0
   16.6483    3.9528    7.2928 C   0  0  0  0  0  0  0  0  0  0  0  0
   15.5034    3.2323    6.7113 N   0  0  1  0  0  4  0  0  0  0  0  0
   15.3354    1.9135    7.3263 C   0  0  0  0  0  0  0  0  0  0  0  0
   15.6751    3.1123    5.2460 C   0  0  0  0  0  0  0  0  0  0  0  0
   14.3199    3.2147    4.4868 C   0  0  0  0  0  0  0  0  0  0  0  0
   13.4877    4.0563    5.0119 O   0  0  0  0  0  0  0  0  0  0  0  0
   14.0942    2.5686    3.5037 O   0  0  0  0  0  0  0  0  0  0  0  0
   12.3517    2.4779    8.0003 H   0  0  0  0  0  0  0  0  0  0  0  0
   11.9877    2.8326    6.4217 H   0  0  0  0  0  0  0  0  0  0  0  0
   11.2434    4.3252    8.8272 H   0  0  0  0  0  0  0  0  0  0  0  0
    9.5513    2.7324    8.5202 H   0  0  0  0  0  0  0  0  0  0  0  0
    9.8260    2.5987    6.7856 H   0  0  0  0  0  0  0  0  0  0  0  0
    8.4722    4.4388    6.2707 H   0  0  0  0  0  0  0  0  0  0  0  0
    7.6495    3.7941    7.6832 H   0  0  0  0  0  0  0  0  0  0  0  0
    7.9000    6.2007    7.9849 H   0  0  0  0  0  0  0  0  0  0  0  0
    8.9830    5.3985    9.1121 H   0  0  0  0  0  0  0  0  0  0  0  0
    9.6205    6.9109    6.5655 H   0  0  0  0  0  0  0  0  0  0  0  0
   10.3794    7.0355    8.1483 H   0  0  0  0  0  0  0  0  0  0  0  0
   10.9442    5.1070    5.8965 H   0  0  0  0  0  0  0  0  0  0  0  0
   12.5919    6.6619    6.3615 H   0  0  0  0  0  0  0  0  0  0  0  0
   12.4996    6.4437    8.0012 H   0  0  0  0  0  0  0  0  0  0  0  0
   17.5999    3.5354    6.9497 H   0  0  0  0  0  0  0  0  0  0  0  0
   16.6160    3.8963    8.3851 H   0  0  0  0  0  0  0  0  0  0  0  0
   15.0812    2.0242    8.3819 H   0  0  0  0  0  0  0  0  0  0  0  0
   16.2667    1.3437    7.2574 H   0  0  0  0  0  0  0  0  0  0  0  0
   14.5568    1.3525    6.8073 H   0  0  0  0  0  0  0  0  0  0  0  0
   16.1722    2.1752    4.9831 H   0  0  0  0  0  0  0  0  0  0  0  0
   16.2826    3.9417    4.8693 H   0  0  0  0  0  0  0  0  0  0  0  0
  1 10  1  0  0  0  0
  1  3  1  0  0  0  0
  1  2  1  0  0  0  0
  3  4  1  0  0  0  0
  3 21  1  0  0  0  0
  4 23  1  1  0  0  0
  5  4  1  0  0  0  0
  5 24  1  0  0  0  0
  6  5  1  0  0  0  0
  6 27  1  0  0  0  0
  6  7  1  0  0  0  0
  7 29  1  0  0  0  0
  8  7  1  0  0  0  0
  8 31  1  0  0  0  0
  9 32  1  6  0  0  0
  9 10  1  0  0  0  0
  9  8  1  0  0  0  0
  9  4  1  0  0  0  0
 10 34  1  0  0  0  0
 11 12  1  0  0  0  0
 11  1  1  0  0  0  0
 12 14  1  0  0  0  0
 13 12  2  0  0  0  0
 14 36  1  0  0  0  0
 15  1  1  0  0  0  0
 15 14  1  0  0  0  0
 15 16  1  1  0  0  0
 16 37  1  0  0  0  0
 17 15  1  0  0  0  0
 18 19  1  0  0  0  0
 18 17  1  0  0  0  0
 19  1  1  0  0  0  0
 20 18  2  0  0  0  0
 22  3  1  0  0  0  0
 25  5  1  0  0  0  0
 26  6  1  0  0  0  0
 28  7  1  0  0  0  0
 30  8  1  0  0  0  0
 33 10  1  0  0  0  0
 35 14  1  0  0  0  0
 38 16  1  0  0  0  0
 39 16  1  0  0  0  0
 40 17  1  0  0  0  0
 41 17  1  0  0  0  0
M  END
$$$$
