CSD_code = YAZQEW | q = 0 | S = 0 | Stoichiometry = C20H37ClN2OPdSi | MND = 4
 OpenBabel04212202123D

 63 65  0  0  0  0  0  0  0  0999 V2000
   12.5677    8.2357    2.7744 Pd  0  0  0  0  0  0  0  0  0  0  0  0
   14.2494    6.6615    2.3665 Cl  0  0  0  0  0  0  0  0  0  0  0  0
    7.8839   12.7100    4.0091 Si  0  0  0  0  0  0  0  0  0  0  0  0
    2.5087    9.8807   -0.9856 O   0  0  0  0  0  0  0  0  0  0  0  0
    2.1329    9.2973   -1.6524 H   0  0  0  0  0  0  0  0  0  0  0  0
   13.3105    9.8037    1.5846 N   0  0  0  0  0  4  0  0  0  0  0  0
   11.3800    7.0940    4.0836 N   0  0  0  0  0  4  0  0  0  0  0  0
   11.1884    9.5329    3.1153 C   0  0  0  0  0  0  0  0  0  0  0  0
   11.1770   10.7183    2.3930 C   0  0  0  0  0  0  0  0  0  0  0  0
   10.1939   11.6580    2.6573 C   0  0  0  0  0  0  0  0  0  0  0  0
   10.1747   12.5886    2.1083 H   0  0  0  0  0  0  0  0  0  0  0  0
    9.2173   11.4149    3.6245 C   0  0  0  0  0  0  0  0  0  0  0  0
    9.2470   10.2114    4.3322 C   0  0  0  0  0  0  0  0  0  0  0  0
    8.4934   10.0204    5.0836 H   0  0  0  0  0  0  0  0  0  0  0  0
   10.2330    9.2698    4.0876 C   0  0  0  0  0  0  0  0  0  0  0  0
   12.2469   10.8128    1.3293 C   0  0  0  0  0  0  0  0  0  0  0  0
   12.6887   11.8176    1.2669 H   0  0  0  0  0  0  0  0  0  0  0  0
   11.7882   10.5892    0.3591 H   0  0  0  0  0  0  0  0  0  0  0  0
   14.3302   10.3638    2.4783 C   0  0  0  0  0  0  0  0  0  0  0  0
   15.0502    9.5804    2.7401 H   0  0  0  0  0  0  0  0  0  0  0  0
   13.8538   10.7364    3.3917 H   0  0  0  0  0  0  0  0  0  0  0  0
   14.8652   11.1912    1.9905 H   0  0  0  0  0  0  0  0  0  0  0  0
   13.9336    9.3678    0.3378 C   0  0  0  0  0  0  0  0  0  0  0  0
   14.4024   10.2100   -0.1888 H   0  0  0  0  0  0  0  0  0  0  0  0
   13.1820    8.9103   -0.3089 H   0  0  0  0  0  0  0  0  0  0  0  0
   14.6923    8.6156    0.5624 H   0  0  0  0  0  0  0  0  0  0  0  0
   10.4337    7.9681    4.8295 C   0  0  0  0  0  0  0  0  0  0  0  0
    9.4880    7.4352    5.0043 H   0  0  0  0  0  0  0  0  0  0  0  0
   10.8740    8.1943    5.8076 H   0  0  0  0  0  0  0  0  0  0  0  0
   10.6464    6.2584    3.1268 C   0  0  0  0  0  0  0  0  0  0  0  0
   11.3620    5.6978    2.5150 H   0  0  0  0  0  0  0  0  0  0  0  0
   10.0359    6.8942    2.4764 H   0  0  0  0  0  0  0  0  0  0  0  0
    9.9912    5.5474    3.6505 H   0  0  0  0  0  0  0  0  0  0  0  0
   12.1438    6.2459    4.9948 C   0  0  0  0  0  0  0  0  0  0  0  0
   11.4828    5.5891    5.5761 H   0  0  0  0  0  0  0  0  0  0  0  0
   12.7254    6.8695    5.6771 H   0  0  0  0  0  0  0  0  0  0  0  0
   12.8396    5.6360    4.4152 H   0  0  0  0  0  0  0  0  0  0  0  0
    8.4013   13.6983    5.5592 C   0  0  0  0  0  0  0  0  0  0  0  0
    8.5327   13.0467    6.4174 H   0  0  0  0  0  0  0  0  0  0  0  0
    7.6562   14.4428    5.8212 H   0  0  0  0  0  0  0  0  0  0  0  0
    9.3414   14.2158    5.3958 H   0  0  0  0  0  0  0  0  0  0  0  0
    7.6723   13.9015    2.5347 C   0  0  0  0  0  0  0  0  0  0  0  0
    7.5611   13.3635    1.5984 H   0  0  0  0  0  0  0  0  0  0  0  0
    8.5257   14.5648    2.4356 H   0  0  0  0  0  0  0  0  0  0  0  0
    6.7919   14.5237    2.6627 H   0  0  0  0  0  0  0  0  0  0  0  0
    6.2225   11.8271    4.3589 C   0  0  0  0  0  0  0  0  0  0  0  0
    6.3091   11.2146    5.2580 H   0  0  0  0  0  0  0  0  0  0  0  0
    5.4516   12.5689    4.5733 H   0  0  0  0  0  0  0  0  0  0  0  0
    5.7509   10.9476    3.2040 C   0  0  0  0  0  0  0  0  0  0  0  0
    5.6140   11.5683    2.3187 H   0  0  0  0  0  0  0  0  0  0  0  0
    6.5204   10.2071    2.9744 H   0  0  0  0  0  0  0  0  0  0  0  0
    4.4431   10.2309    3.5350 C   0  0  0  0  0  0  0  0  0  0  0  0
    3.6695   10.9725    3.7476 H   0  0  0  0  0  0  0  0  0  0  0  0
    4.5895    9.6398    4.4432 H   0  0  0  0  0  0  0  0  0  0  0  0
    3.9565    9.3029    2.4215 C   0  0  0  0  0  0  0  0  0  0  0  0
    4.7601    8.6147    2.1483 H   0  0  0  0  0  0  0  0  0  0  0  0
    3.1243    8.7043    2.8016 H   0  0  0  0  0  0  0  0  0  0  0  0
    3.4892   10.0557    1.1795 C   0  0  0  0  0  0  0  0  0  0  0  0
    2.7243   10.7854    1.4498 H   0  0  0  0  0  0  0  0  0  0  0  0
    4.3185   10.5951    0.7225 H   0  0  0  0  0  0  0  0  0  0  0  0
    2.9050    9.1140    0.1321 C   0  0  0  0  0  0  0  0  0  0  0  0
    3.6609    8.3703   -0.1614 H   0  0  0  0  0  0  0  0  0  0  0  0
    2.0425    8.5761    0.5535 H   0  0  0  0  0  0  0  0  0  0  0  0
  1  8  1  0  0  0  0
  1  7  1  0  0  0  0
  2  1  1  0  0  0  0
  3 46  1  0  0  0  0
  3 38  1  0  0  0  0
  4 61  1  0  0  0  0
  5  4  1  0  0  0  0
  6 19  1  0  0  0  0
  6  1  1  0  0  0  0
  7 27  1  0  0  0  0
  7 34  1  0  0  0  0
  8 15  1  0  0  0  0
  9 10  1  0  0  0  0
  9  8  2  0  0  0  0
 10 12  2  0  0  0  0
 11 10  1  0  0  0  0
 12  3  1  0  0  0  0
 12 13  1  0  0  0  0
 13 14  1  0  0  0  0
 15 13  2  0  0  0  0
 15 27  1  0  0  0  0
 16  6  1  0  0  0  0
 16  9  1  0  0  0  0
 17 16  1  0  0  0  0
 18 16  1  0  0  0  0
 19 20  1  0  0  0  0
 19 21  1  0  0  0  0
 22 19  1  0  0  0  0
 23 26  1  0  0  0  0
 23  6  1  0  0  0  0
 24 23  1  0  0  0  0
 25 23  1  0  0  0  0
 27 28  1  0  0  0  0
 27 29  1  0  0  0  0
 30 33  1  0  0  0  0
 30  7  1  0  0  0  0
 31 30  1  0  0  0  0
 32 30  1  0  0  0  0
 34 35  1  0  0  0  0
 34 36  1  0  0  0  0
 37 34  1  0  0  0  0
 38 40  1  0  0  0  0
 38 39  1  0  0  0  0
 41 38  1  0  0  0  0
 42 45  1  0  0  0  0
 42  3  1  0  0  0  0
 43 42  1  0  0  0  0
 44 42  1  0  0  0  0
 46 48  1  0  0  0  0
 46 47  1  0  0  0  0
 49 52  1  0  0  0  0
 49 46  1  0  0  0  0
 50 49  1  0  0  0  0
 51 49  1  0  0  0  0
 52 53  1  0  0  0  0
 52 54  1  0  0  0  0
 55 57  1  0  0  0  0
 55 52  1  0  0  0  0
 56 55  1  0  0  0  0
 58 59  1  0  0  0  0
 58 55  1  0  0  0  0
 60 58  1  0  0  0  0
 61 63  1  0  0  0  0
 61 58  1  0  0  0  0
 62 61  1  0  0  0  0
M  END
$$$$
