CSD_code = YEBBAJ | q = 0 | S = 0 | Stoichiometry = C24H29CdClN8O3 | MND = 6
 OpenBabel04212202123D

 66 67  0  0  1  0  0  0  0  0999 V2000
   -0.2036   15.1327    6.7610 Cd  0  0  0  0  0  0  0  0  0  0  0  0
   -1.9042   16.7369    7.9291 O   0  0  0  0  0  0  0  0  0  0  0  0
   -2.1646   16.0620    8.5689 H   0  0  0  0  0  0  0  0  0  0  0  0
   -2.1137   15.1528    5.3465 Cl  0  0  0  0  0  0  0  0  0  0  0  0
   -0.8187   14.0935    8.6161 O   0  0  0  0  0  0  0  0  0  0  0  0
    1.2302   14.8713    8.5041 O   0  0  0  0  0  0  0  0  0  0  0  0
   -0.2372   12.2227    5.7386 C   0  0  0  0  0  3  0  0  0  0  0  0
   -1.2170   12.5690    5.4319 H   0  0  0  0  0  0  0  0  0  0  0  0
    0.0093   10.8737    5.8679 C   0  0  0  0  0  0  0  0  0  0  0  0
   -0.7999   10.1896    5.6760 H   0  0  0  0  0  0  0  0  0  0  0  0
    1.2745   10.4268    6.2837 C   0  0  0  0  0  0  0  0  0  0  0  0
    2.2287   11.4336    6.5017 C   0  0  0  0  0  0  0  0  0  0  0  0
    3.2446   11.2057    6.7782 H   0  0  0  0  0  0  0  0  0  0  0  0
    1.8849   12.7575    6.3352 C   0  0  0  0  0  0  0  0  0  0  0  0
    2.6183   13.5349    6.5072 H   0  0  0  0  0  0  0  0  0  0  0  0
    0.6724    8.0815    5.9217 C   0  0  0  0  0  0  0  0  0  0  0  0
   -0.3581    8.2254    6.2621 H   0  0  0  0  0  0  0  0  0  0  0  0
    1.0026    7.1100    6.2977 H   0  0  0  0  0  0  0  0  0  0  0  0
    0.7088    8.0633    4.3775 C   0  0  0  0  0  0  0  0  0  0  0  0
    0.2004    8.9399    3.9694 H   0  0  0  0  0  0  0  0  0  0  0  0
    1.7424    8.0830    4.0198 H   0  0  0  0  0  0  0  0  0  0  0  0
    0.0716    6.8720    3.8811 C   0  0  0  0  0  0  0  0  0  0  0  0
    2.7404    8.6339    7.1237 C   0  0  0  0  0  0  0  0  0  0  0  0
    2.4766    7.8140    7.8021 H   0  0  0  0  0  0  0  0  0  0  0  0
    3.1504    9.4409    7.7311 H   0  0  0  0  0  0  0  0  0  0  0  0
    3.8201    8.1129    6.1479 C   0  0  0  0  0  0  0  0  0  0  0  0
    4.7422    7.9128    6.6994 H   0  0  0  0  0  0  0  0  0  0  0  0
    3.4925    7.1788    5.6814 H   0  0  0  0  0  0  0  0  0  0  0  0
    4.0992    9.0619    5.1000 C   0  0  0  0  0  0  0  0  0  0  0  0
    0.3203   14.2707    9.1094 C   0  0  1  0  0  3  0  0  0  0  0  0
    0.5910   13.7399   10.5101 C   0  0  0  0  0  0  0  0  0  0  0  0
    1.6587   13.6102   10.6594 H   0  0  0  0  0  0  0  0  0  0  0  0
    0.2174   14.4645   11.2306 H   0  0  0  0  0  0  0  0  0  0  0  0
    0.6734   13.1669    5.9667 N   0  0  0  0  0  0  0  0  0  0  0  0
    1.5386    9.0957    6.4770 N   0  0  0  0  0  0  0  0  0  0  0  0
   -0.4250    5.9076    3.5217 N   0  0  0  0  0  0  0  0  0  0  0  0
    4.2911    9.8061    4.2546 N   0  0  0  0  0  0  0  0  0  0  0  0
   -2.4132   16.5208    7.1266 H   0  0  0  0  0  0  0  0  0  0  0  0
   -0.0190   17.9206    5.3475 C   0  0  0  0  0  3  0  0  0  0  0  0
   -0.7061   17.4121    4.6829 H   0  0  0  0  0  0  0  0  0  0  0  0
    0.1212   19.2890    5.2853 C   0  0  0  0  0  0  0  0  0  0  0  0
   -0.4738   19.8278    4.5674 H   0  0  0  0  0  0  0  0  0  0  0  0
    0.9845   19.9491    6.1757 C   0  0  0  0  0  0  0  0  0  0  0  0
    1.6864   19.1189    7.0641 C   0  0  0  0  0  0  0  0  0  0  0  0
    2.4054   19.5121    7.7631 H   0  0  0  0  0  0  0  0  0  0  0  0
    1.4848   17.7563    7.0407 C   0  0  0  0  0  0  0  0  0  0  0  0
    2.0189   17.1101    7.7246 H   0  0  0  0  0  0  0  0  0  0  0  0
    0.6600   22.1001    5.0524 C   0  0  0  0  0  0  0  0  0  0  0  0
   -0.3961   21.9056    4.8393 H   0  0  0  0  0  0  0  0  0  0  0  0
    0.7451   23.1563    5.3194 H   0  0  0  0  0  0  0  0  0  0  0  0
    1.5013   21.8312    3.7851 C   0  0  0  0  0  0  0  0  0  0  0  0
    1.2825   20.8401    3.3809 H   0  0  0  0  0  0  0  0  0  0  0  0
    2.5688   21.8647    4.0222 H   0  0  0  0  0  0  0  0  0  0  0  0
    1.2206   22.8249    2.7824 C   0  0  0  0  0  0  0  0  0  0  0  0
    1.7855   22.0234    7.2332 C   0  0  0  0  0  0  0  0  0  0  0  0
    1.2058   22.9213    7.4774 H   0  0  0  0  0  0  0  0  0  0  0  0
    1.8083   21.3974    8.1254 H   0  0  0  0  0  0  0  0  0  0  0  0
    3.2200   22.4702    6.8693 C   0  0  0  0  0  0  0  0  0  0  0  0
    3.7121   22.8716    7.7588 H   0  0  0  0  0  0  0  0  0  0  0  0
    3.1917   23.2585    6.1106 H   0  0  0  0  0  0  0  0  0  0  0  0
    4.0085   21.3812    6.3512 C   0  0  0  0  0  0  0  0  0  0  0  0
    0.0639   12.8015   10.6573 H   0  0  0  0  0  0  0  0  0  0  0  0
    0.6453   17.1497    6.2054 N   0  0  0  0  0  0  0  0  0  0  0  0
    1.1064   21.3141    6.1791 N   0  0  0  0  0  0  0  0  0  0  0  0
    0.9880   23.6400    2.0162 N   0  0  0  0  0  0  0  0  0  0  0  0
    4.6183   20.5209    5.9111 N   0  0  0  0  0  0  0  0  0  0  0  0
  1  6  1  0  0  0  0
  1  5  1  0  0  0  0
  2  3  1  0  0  0  0
  4  1  1  0  0  0  0
  5 30  1  0  0  0  0
  6 30  1  0  0  0  0
  7  9  1  0  0  0  0
  7 34  1  0  0  0  0
  8  7  1  0  0  0  0
  9 11  2  0  0  0  0
 10  9  1  0  0  0  0
 11 35  1  0  0  0  0
 11 12  1  0  0  0  0
 12 13  1  0  0  0  0
 14 12  2  0  0  0  0
 14 15  1  0  0  0  0
 16 17  1  0  0  0  0
 16 18  1  0  0  0  0
 16 35  1  0  0  0  0
 19 16  1  0  0  0  0
 20 19  1  0  0  0  0
 21 19  1  0  0  0  0
 22 19  1  0  0  0  0
 23 25  1  0  0  0  0
 23 24  1  0  0  0  0
 26 27  1  0  0  0  0
 26 23  1  0  0  0  0
 28 26  1  0  0  0  0
 29 26  1  0  0  0  0
 30 31  1  1  0  0  0
 31 62  1  0  0  0  0
 31 32  1  0  0  0  0
 31 33  1  0  0  0  0
 34 14  1  0  0  0  0
 34  1  1  0  0  0  0
 35 23  1  0  0  0  0
 36 22  3  0  0  0  0
 37 29  3  0  0  0  0
 38  2  1  0  0  0  0
 39 63  1  0  0  0  0
 40 39  1  0  0  0  0
 41 39  1  0  0  0  0
 41 43  2  0  0  0  0
 42 41  1  0  0  0  0
 43 64  1  0  0  0  0
 43 44  1  0  0  0  0
 44 45  1  0  0  0  0
 46 44  2  0  0  0  0
 46 47  1  0  0  0  0
 48 50  1  0  0  0  0
 48 64  1  0  0  0  0
 49 48  1  0  0  0  0
 51 53  1  0  0  0  0
 51 48  1  0  0  0  0
 52 51  1  0  0  0  0
 54 51  1  0  0  0  0
 55 56  1  0  0  0  0
 55 57  1  0  0  0  0
 58 55  1  0  0  0  0
 58 59  1  0  0  0  0
 60 58  1  0  0  0  0
 61 58  1  0  0  0  0
 63  1  1  0  0  0  0
 63 46  1  0  0  0  0
 64 55  1  0  0  0  0
 65 54  3  0  0  0  0
 66 61  3  0  0  0  0
M  END
$$$$
