CSD_code = YEBYIQ | q = 0 | S = 0 | Stoichiometry = C20H20ClN5O2SZn | MND = 5
 OpenBabel04212202123D

 50 55  0  0  1  0  0  0  0  0999 V2000
    3.2072    0.8702    1.2048 Zn  0  0  0  0  0  0  0  0  0  0  0  0
    2.0876    1.3608    2.9844 Cl  0  0  0  0  0  0  0  0  0  0  0  0
    5.6818   -0.9136    1.8050 C   0  0  0  0  0  0  0  0  0  0  0  0
    6.1472   -2.2124    2.0680 C   0  0  0  0  0  0  0  0  0  0  0  0
    5.4565   -3.0325    1.9415 H   0  0  0  0  0  0  0  0  0  0  0  0
    7.4398   -2.4334    2.4771 C   0  0  0  0  0  0  0  0  0  0  0  0
    7.7728   -3.4410    2.6784 H   0  0  0  0  0  0  0  0  0  0  0  0
    8.3237   -1.3671    2.6439 C   0  0  0  0  0  0  0  0  0  0  0  0
    9.3335   -1.5483    2.9785 H   0  0  0  0  0  0  0  0  0  0  0  0
    7.9016   -0.0904    2.3666 C   0  0  0  0  0  0  0  0  0  0  0  0
    8.5865    0.7393    2.4751 H   0  0  0  0  0  0  0  0  0  0  0  0
    6.5934    0.1728    1.9289 C   0  0  0  0  0  0  0  0  0  0  0  0
    6.2645    1.5085    1.5429 C   0  0  0  0  0  3  0  0  0  0  0  0
    7.0820    2.2379    1.5751 H   0  0  0  0  0  0  0  0  0  0  0  0
    3.7378    3.4841    0.1061 C   0  0  1  0  0  3  0  0  0  0  0  0
    2.4729    5.0917   -0.8704 C   0  0  0  0  0  0  0  0  0  0  0  0
    1.3985    4.2042   -0.9168 C   0  0  0  0  0  0  0  0  0  0  0  0
    0.4482    4.5092   -1.3220 H   0  0  0  0  0  0  0  0  0  0  0  0
    1.5790    2.9215   -0.4178 C   0  0  0  0  0  0  0  0  0  0  0  0
    2.3660    6.4847   -1.3897 C   0  0  0  0  0  0  0  0  0  0  0  0
    1.5514    7.0068   -0.8919 H   0  0  0  0  0  0  0  0  0  0  0  0
    2.1517    6.4684   -2.4568 H   0  0  0  0  0  0  0  0  0  0  0  0
    3.2976    7.0138   -1.2164 H   0  0  0  0  0  0  0  0  0  0  0  0
    0.4916    1.9155   -0.3674 C   0  0  0  0  0  0  0  0  0  0  0  0
   -0.3363    2.1904   -1.0146 H   0  0  0  0  0  0  0  0  0  0  0  0
    0.1366    1.8487    0.6626 H   0  0  0  0  0  0  0  0  0  0  0  0
    0.8763    0.9322   -0.6315 H   0  0  0  0  0  0  0  0  0  0  0  0
    2.7057   -2.8155    1.9433 C   0  0  0  0  0  0  0  0  0  0  0  0
    2.7996   -4.1789    1.7398 C   0  0  0  0  0  0  0  0  0  0  0  0
    3.2806   -4.5377    0.8430 H   0  0  0  0  0  0  0  0  0  0  0  0
    2.2754   -5.0455    2.6833 C   0  0  0  0  0  0  0  0  0  0  0  0
    2.3456   -6.1122    2.5270 H   0  0  0  0  0  0  0  0  0  0  0  0
    1.6595   -4.5550    3.8292 C   0  0  0  0  0  0  0  0  0  0  0  0
    1.5776   -3.1769    4.0116 C   0  0  0  0  0  0  0  0  0  0  0  0
    1.1006   -2.7840    4.8971 H   0  0  0  0  0  0  0  0  0  0  0  0
    2.0987   -2.3030    3.0748 C   0  0  0  0  0  0  0  0  0  0  0  0
    2.0305   -1.2358    3.2181 H   0  0  0  0  0  0  0  0  0  0  0  0
    1.0766   -5.4834    4.8495 C   0  0  0  0  0  0  0  0  0  0  0  0
    1.3891   -6.5087    4.6704 H   0  0  0  0  0  0  0  0  0  0  0  0
   -0.0116   -5.4432    4.8093 H   0  0  0  0  0  0  0  0  0  0  0  0
    1.3818   -5.1901    5.8518 H   0  0  0  0  0  0  0  0  0  0  0  0
    5.1143    1.8827    1.1091 N   0  0  2  0  0  0  0  0  0  0  0  0
    4.9285    3.1338    0.6428 N   0  0  0  0  0  0  0  0  0  0  0  0
    5.6711    3.8302    0.6626 H   0  0  0  0  0  0  0  0  0  0  0  0
    3.6376    4.7262   -0.3534 N   0  0  0  0  0  0  0  0  0  0  0  0
    2.7677    2.5601    0.0769 N   0  0  0  0  0  0  0  0  0  0  0  0
    4.4036   -0.6680    1.4528 N   0  0  0  0  0  0  0  0  0  0  0  0
    3.4095   -1.7077    0.7295 S   0  0  1  0  0  0  0  0  0  0  0  0
    4.0313   -2.4832   -0.3056 O   0  0  0  0  0  1  0  0  0  0  0  0
    2.3434   -0.7945    0.2962 O   0  0  0  0  0  0  0  0  0  0  0  0
  1 47  1  0  0  0  0
  1  2  1  0  0  0  0
  3 12  2  0  0  0  0
  3  4  1  0  0  0  0
  4  6  2  0  0  0  0
  5  4  1  0  0  0  0
  6  8  1  0  0  0  0
  6  7  1  0  0  0  0
  8  9  1  0  0  0  0
 10 11  1  0  0  0  0
 10  8  2  0  0  0  0
 12 10  1  0  0  0  0
 13 14  1  0  0  0  0
 13 12  1  0  0  0  0
 15 45  1  6  0  0  0
 15 43  1  0  0  0  0
 16 45  2  0  0  0  0
 17 16  1  0  0  0  0
 17 19  2  0  0  0  0
 18 17  1  0  0  0  0
 19 24  1  0  0  0  0
 19 46  1  0  0  0  0
 20 23  1  0  0  0  0
 20 21  1  0  0  0  0
 20 16  1  0  0  0  0
 22 20  1  0  0  0  0
 24 26  1  0  0  0  0
 25 24  1  0  0  0  0
 27 24  1  0  0  0  0
 28 36  1  0  0  0  0
 29 28  2  0  0  0  0
 29 31  1  0  0  0  0
 30 29  1  0  0  0  0
 31 33  2  0  0  0  0
 32 31  1  0  0  0  0
 33 34  1  0  0  0  0
 33 38  1  0  0  0  0
 34 35  1  0  0  0  0
 36 37  1  0  0  0  0
 36 34  2  0  0  0  0
 38 41  1  0  0  0  0
 39 38  1  0  0  0  0
 40 38  1  0  0  0  0
 42  1  1  0  0  0  0
 42 13  1  1  0  0  0
 43 44  1  0  0  0  0
 43 42  1  0  0  0  0
 46 15  1  0  0  0  0
 46  1  1  0  0  0  0
 47  3  1  0  0  0  0
 48 49  1  6  0  0  0
 48 47  1  0  0  0  0
 48 28  1  0  0  0  0
 50 48  1  0  0  0  0
 50  1  1  0  0  0  0
M  END
$$$$
