CSD_code = YECKIC | q = 0 | S = 0 | Stoichiometry = C18H27AuClN3 | MND = 2
 OpenBabel04212202123D

 50 51  0  0  1  0  0  0  0  0999 V2000
    5.0365    6.3704    3.1000 Au  0  0  0  0  0  0  0  0  0  0  0  0
    7.0419    5.4438    2.6959 Cl  0  0  0  0  0  0  0  0  0  0  0  0
    3.1845    9.8036    6.4117 N   0  0  0  0  0  0  0  0  0  0  0  0
    3.0717   10.8096    6.4752 H   0  0  0  0  0  0  0  0  0  0  0  0
    2.9726    8.4430    3.8863 N   0  0  0  0  0  0  0  0  0  0  0  0
    2.0876    6.5365    3.4798 N   0  0  0  0  0  0  0  0  0  0  0  0
    3.0737    9.2134    7.7447 C   0  0  0  0  0  0  0  0  0  0  0  0
    1.8426    9.8500    8.3972 C   0  0  0  0  0  0  0  0  0  0  0  0
    1.9933   10.9180    8.5427 H   0  0  0  0  0  0  0  0  0  0  0  0
    1.6498    9.3975    9.3657 H   0  0  0  0  0  0  0  0  0  0  0  0
    0.9704    9.7061    7.7642 H   0  0  0  0  0  0  0  0  0  0  0  0
    4.3080    9.4748    8.6208 C   0  0  0  0  0  0  0  0  0  0  0  0
    4.4962   10.5443    8.7014 H   0  0  0  0  0  0  0  0  0  0  0  0
    5.1915    9.0001    8.2009 H   0  0  0  0  0  0  0  0  0  0  0  0
    4.1495    9.0782    9.6201 H   0  0  0  0  0  0  0  0  0  0  0  0
    2.8336    7.7074    7.6004 C   0  0  0  0  0  0  0  0  0  0  0  0
    1.9999    7.5361    6.9241 H   0  0  0  0  0  0  0  0  0  0  0  0
    2.5976    7.2737    8.5681 H   0  0  0  0  0  0  0  0  0  0  0  0
    3.7096    7.1973    7.2088 H   0  0  0  0  0  0  0  0  0  0  0  0
    4.3470    9.4875    5.6076 C   0  0  0  0  0  0  0  0  0  0  0  0
    4.7123    8.4918    5.8615 H   0  0  0  0  0  0  0  0  0  0  0  0
    5.1776   10.1962    5.7355 H   0  0  0  0  0  0  0  0  0  0  0  0
    3.9446    9.4734    4.1231 C   0  0  0  0  0  0  0  0  0  0  0  0
    3.5132   10.4379    3.8447 H   0  0  0  0  0  0  0  0  0  0  0  0
    4.8226    9.2683    3.5068 H   0  0  0  0  0  0  0  0  0  0  0  0
    3.2610    7.1902    3.4944 C   0  0  2  0  0  3  0  0  0  0  0  0
    1.6336    8.5706    4.1300 C   0  0  0  0  0  0  0  0  0  0  0  0
    1.2030    9.4872    4.4727 H   0  0  0  0  0  0  0  0  0  0  0  0
    1.0704    7.3666    3.8678 C   0  0  0  0  0  0  0  0  0  0  0  0
    0.0530    7.0368    3.9196 H   0  0  0  0  0  0  0  0  0  0  0  0
    2.0142    4.1725    4.0384 C   0  0  0  0  0  0  0  0  0  0  0  0
    1.8606    2.8584    3.6235 C   0  0  0  0  0  0  0  0  0  0  0  0
    1.9281    2.0667    4.3552 H   0  0  0  0  0  0  0  0  0  0  0  0
    1.6362    2.5406    2.2921 C   0  0  0  0  0  0  0  0  0  0  0  0
    1.5644    3.5686    1.3610 C   0  0  0  0  0  0  0  0  0  0  0  0
    1.3990    3.3301    0.3205 H   0  0  0  0  0  0  0  0  0  0  0  0
    1.7123    4.8942    1.7343 C   0  0  0  0  0  0  0  0  0  0  0  0
    1.9330    5.1811    3.0810 C   0  0  0  0  0  0  0  0  0  0  0  0
    2.2895    4.5099    5.4709 C   0  0  0  0  0  0  0  0  0  0  0  0
    3.2737    4.9700    5.5591 H   0  0  0  0  0  0  0  0  0  0  0  0
    2.2700    3.6150    6.0862 H   0  0  0  0  0  0  0  0  0  0  0  0
    1.5539    5.2150    5.8565 H   0  0  0  0  0  0  0  0  0  0  0  0
    1.4613    1.1177    1.8600 C   0  0  0  0  0  0  0  0  0  0  0  0
    1.9705    0.9386    0.9158 H   0  0  0  0  0  0  0  0  0  0  0  0
    0.4027    0.8988    1.7165 H   0  0  0  0  0  0  0  0  0  0  0  0
    1.8530    0.4331    2.6074 H   0  0  0  0  0  0  0  0  0  0  0  0
    1.6671    5.9994    0.7243 C   0  0  0  0  0  0  0  0  0  0  0  0
    1.4224    5.6090   -0.2593 H   0  0  0  0  0  0  0  0  0  0  0  0
    2.6386    6.4914    0.6707 H   0  0  0  0  0  0  0  0  0  0  0  0
    0.9257    6.7502    0.9973 H   0  0  0  0  0  0  0  0  0  0  0  0
  2  1  1  0  0  0  0
  3  4  1  0  0  0  0
  3  7  1  0  0  0  0
  5 23  1  0  0  0  0
  5 27  1  0  0  0  0
  6 26  1  0  0  0  0
  6 29  1  0  0  0  0
  7  8  1  0  0  0  0
  7 12  1  0  0  0  0
  8  9  1  0  0  0  0
  8 10  1  0  0  0  0
 11  8  1  0  0  0  0
 12 13  1  0  0  0  0
 12 15  1  0  0  0  0
 14 12  1  0  0  0  0
 16  7  1  0  0  0  0
 16 18  1  0  0  0  0
 17 16  1  0  0  0  0
 19 16  1  0  0  0  0
 20 22  1  0  0  0  0
 20 21  1  0  0  0  0
 20  3  1  0  0  0  0
 23 20  1  0  0  0  0
 24 23  1  0  0  0  0
 25 23  1  0  0  0  0
 26  1  1  1  0  0  0
 26  5  1  0  0  0  0
 27 28  1  0  0  0  0
 29 30  1  0  0  0  0
 29 27  2  0  0  0  0
 31 39  1  0  0  0  0
 32 31  1  0  0  0  0
 32 33  1  0  0  0  0
 34 32  2  0  0  0  0
 35 37  2  0  0  0  0
 35 34  1  0  0  0  0
 36 35  1  0  0  0  0
 37 38  1  0  0  0  0
 38  6  1  0  0  0  0
 38 31  2  0  0  0  0
 39 40  1  0  0  0  0
 39 42  1  0  0  0  0
 39 41  1  0  0  0  0
 43 34  1  0  0  0  0
 43 46  1  0  0  0  0
 44 43  1  0  0  0  0
 45 43  1  0  0  0  0
 47 50  1  0  0  0  0
 47 37  1  0  0  0  0
 48 47  1  0  0  0  0
 49 47  1  0  0  0  0
M  END
$$$$
