CSD_code = YECWOU | q = 0 | S = 0 | Stoichiometry = C22H28AgBrN2 | MND = 2
 OpenBabel04212202123D

 54 56  0  0  0  0  0  0  0  0999 V2000
   -1.7549   -5.8697   -5.2741 C   0  0  0  0  0  3  0  0  0  0  0  0
   -1.4532   -3.9048   -3.6916 C   0  0  0  0  0  0  0  0  0  0  0  0
   -1.6394   -3.8505   -2.6157 H   0  0  0  0  0  0  0  0  0  0  0  0
   -2.2073   -3.2827   -4.1736 H   0  0  0  0  0  0  0  0  0  0  0  0
   -0.0472   -3.3484   -3.9550 C   0  0  0  0  0  0  0  0  0  0  0  0
   -0.0921   -2.2608   -3.8618 H   0  0  0  0  0  0  0  0  0  0  0  0
    0.6266   -3.7149   -3.1766 H   0  0  0  0  0  0  0  0  0  0  0  0
    0.5435   -3.7239   -5.3109 C   0  0  0  0  0  0  0  0  0  0  0  0
    0.6139   -4.8104   -5.3881 H   0  0  0  0  0  0  0  0  0  0  0  0
    1.5622   -3.3312   -5.3556 H   0  0  0  0  0  0  0  0  0  0  0  0
   -0.2248   -3.1838   -6.5136 C   0  0  0  0  0  0  0  0  0  0  0  0
    0.3575   -3.4012   -7.4123 H   0  0  0  0  0  0  0  0  0  0  0  0
   -0.3116   -2.0976   -6.4379 H   0  0  0  0  0  0  0  0  0  0  0  0
   -1.6363   -3.7649   -6.6909 C   0  0  0  0  0  0  0  0  0  0  0  0
   -2.3569   -3.2169   -6.0830 H   0  0  0  0  0  0  0  0  0  0  0  0
   -1.9309   -3.6202   -7.7338 H   0  0  0  0  0  0  0  0  0  0  0  0
   -1.7936   -6.1911   -2.9572 C   0  0  0  0  0  0  0  0  0  0  0  0
   -0.7379   -6.9818   -2.4944 C   0  0  0  0  0  0  0  0  0  0  0  0
   -0.9498   -7.7887   -1.3834 C   0  0  0  0  0  0  0  0  0  0  0  0
   -0.1416   -8.4073   -1.0232 H   0  0  0  0  0  0  0  0  0  0  0  0
   -2.1737   -7.8139   -0.7435 C   0  0  0  0  0  0  0  0  0  0  0  0
   -2.3209   -8.4487    0.1167 H   0  0  0  0  0  0  0  0  0  0  0  0
   -3.2122   -7.0328   -1.2134 C   0  0  0  0  0  0  0  0  0  0  0  0
   -4.1740   -7.0591   -0.7227 H   0  0  0  0  0  0  0  0  0  0  0  0
   -3.0395   -6.2152   -2.3209 C   0  0  0  0  0  0  0  0  0  0  0  0
    0.5968   -7.0043   -3.1771 C   0  0  0  0  0  0  0  0  0  0  0  0
    1.3569   -7.3981   -2.5077 H   0  0  0  0  0  0  0  0  0  0  0  0
    0.8963   -6.0145   -3.5087 H   0  0  0  0  0  0  0  0  0  0  0  0
    0.5505   -7.6611   -4.0528 H   0  0  0  0  0  0  0  0  0  0  0  0
   -4.1821   -5.3780   -2.8160 C   0  0  0  0  0  0  0  0  0  0  0  0
   -5.1285   -5.8158   -2.5097 H   0  0  0  0  0  0  0  0  0  0  0  0
   -4.1712   -5.3037   -3.9018 H   0  0  0  0  0  0  0  0  0  0  0  0
   -4.1289   -4.3688   -2.4051 H   0  0  0  0  0  0  0  0  0  0  0  0
   -2.0055   -5.9867   -7.5949 C   0  0  0  0  0  0  0  0  0  0  0  0
   -0.9784   -6.6794   -8.2432 C   0  0  0  0  0  0  0  0  0  0  0  0
   -1.2835   -7.3933   -9.3948 C   0  0  0  0  0  0  0  0  0  0  0  0
   -0.4990   -7.9372   -9.8990 H   0  0  0  0  0  0  0  0  0  0  0  0
   -2.5711   -7.4215   -9.8955 C   0  0  0  0  0  0  0  0  0  0  0  0
   -2.7905   -7.9844  -10.7897 H   0  0  0  0  0  0  0  0  0  0  0  0
   -3.3138   -6.0147   -8.0891 C   0  0  0  0  0  0  0  0  0  0  0  0
    0.4250   -6.6802   -7.7152 C   0  0  0  0  0  0  0  0  0  0  0  0
    0.7919   -5.6680   -7.5627 H   0  0  0  0  0  0  0  0  0  0  0  0
    1.0875   -7.1919   -8.4077 H   0  0  0  0  0  0  0  0  0  0  0  0
    0.4644   -7.2074   -6.7574 H   0  0  0  0  0  0  0  0  0  0  0  0
   -4.4217   -5.2808   -7.3926 C   0  0  0  0  0  0  0  0  0  0  0  0
   -5.3842   -5.7038   -7.6677 H   0  0  0  0  0  0  0  0  0  0  0  0
   -4.4233   -4.2262   -7.6718 H   0  0  0  0  0  0  0  0  0  0  0  0
   -4.3123   -5.3460   -6.3114 H   0  0  0  0  0  0  0  0  0  0  0  0
   -3.5792   -6.7379   -9.2433 C   0  0  0  0  0  0  0  0  0  0  0  0
   -4.5886   -6.7679   -9.6261 H   0  0  0  0  0  0  0  0  0  0  0  0
   -1.6206   -5.3064   -4.0767 N   0  0  0  0  0  0  0  0  0  0  0  0
   -1.7361   -5.1993   -6.4228 N   0  0  0  0  0  0  0  0  0  0  0  0
   -1.8115  -10.4480   -5.5065 Br  0  0  0  0  0  0  0  0  0  0  0  0
   -1.9491   -8.0669   -5.3860 Ag  0  0  0  0  0  0  0  0  0  0  0  0
  1 51  1  0  0  0  0
  2  3  1  0  0  0  0
  4  2  1  0  0  0  0
  5  6  1  0  0  0  0
  5  2  1  0  0  0  0
  5  7  1  0  0  0  0
  8  5  1  0  0  0  0
  9  8  1  0  0  0  0
 10  8  1  0  0  0  0
 11 13  1  0  0  0  0
 11  8  1  0  0  0  0
 12 11  1  0  0  0  0
 14 11  1  0  0  0  0
 14 52  1  0  0  0  0
 14 15  1  0  0  0  0
 16 14  1  0  0  0  0
 17 18  2  0  0  0  0
 17 25  1  0  0  0  0
 18 19  1  0  0  0  0
 19 20  1  0  0  0  0
 19 21  2  0  0  0  0
 21 22  1  0  0  0  0
 23 21  1  0  0  0  0
 23 24  1  0  0  0  0
 25 23  2  0  0  0  0
 26 27  1  0  0  0  0
 26 18  1  0  0  0  0
 28 26  1  0  0  0  0
 29 26  1  0  0  0  0
 30 31  1  0  0  0  0
 30 33  1  0  0  0  0
 30 25  1  0  0  0  0
 32 30  1  0  0  0  0
 34 52  1  0  0  0  0
 35 41  1  0  0  0  0
 35 34  2  0  0  0  0
 36 35  1  0  0  0  0
 37 36  1  0  0  0  0
 38 36  2  0  0  0  0
 38 49  1  0  0  0  0
 39 38  1  0  0  0  0
 40 34  1  0  0  0  0
 40 45  1  0  0  0  0
 41 42  1  0  0  0  0
 41 44  1  0  0  0  0
 43 41  1  0  0  0  0
 45 48  1  0  0  0  0
 46 45  1  0  0  0  0
 47 45  1  0  0  0  0
 49 40  2  0  0  0  0
 50 49  1  0  0  0  0
 51  2  1  0  0  0  0
 51 17  1  0  0  0  0
 52  1  1  0  0  0  0
 53 54  1  0  0  0  0
 54  1  1  0  0  0  0
M  END
$$$$
