CSD_code = YECXIP | q = 0 | S = 0 | Stoichiometry = C28H36ClN2Rh | MND = 6
 OpenBabel04212202123D

 68 70  0  0  1  0  0  0  0  0999 V2000
    1.6103    2.9743    9.8961 Rh  0  0  0  0  0  0  0  0  0  0  0  0
    0.2602    4.8664    9.8072 Cl  0  0  0  0  0 15  0  0  0  0  0  0
    1.0729    2.7472    7.9611 C   0  0  0  0  0  3  0  0  0  0  0  0
    3.3742    1.8027    9.8130 C   0  0  2  0  0  0  0  0  0  0  0  0
    3.6832    1.6088    8.7885 H   0  0  0  0  0  0  0  0  0  0  0  0
    3.0285    3.9510    7.3754 C   0  0  0  0  0  0  0  0  0  0  0  0
    4.1991    3.3398    6.9151 C   0  0  0  0  0  0  0  0  0  0  0  0
    1.7598    3.3886    7.0094 N   0  0  0  0  0  0  0  0  0  0  0  0
    1.3879    3.7099    5.6339 C   0  0  0  0  0  0  0  0  0  0  0  0
    1.0907    2.8126    5.0925 H   0  0  0  0  0  0  0  0  0  0  0  0
    2.2916    4.0842    5.1449 H   0  0  0  0  0  0  0  0  0  0  0  0
    2.3434    1.0140   10.3226 C   0  0  0  0  0  3  0  0  0  0  0  0
    1.9043    0.2883    9.6444 H   0  0  0  0  0  0  0  0  0  0  0  0
    3.0929    5.1229    8.1199 C   0  0  0  0  0  0  0  0  0  0  0  0
    2.1785    5.6079    8.4259 H   0  0  0  0  0  0  0  0  0  0  0  0
   -0.0653    2.0868    7.7205 N   0  0  0  0  0  0  0  0  0  0  0  0
   -0.4815   -0.0567    8.8137 C   0  0  0  0  0  0  0  0  0  0  0  0
   -0.8627    4.6343    6.4911 C   0  0  0  0  0  0  0  0  0  0  0  0
   -0.5043    4.6848    7.5213 H   0  0  0  0  0  0  0  0  0  0  0  0
   -1.5303    5.4871    6.3509 H   0  0  0  0  0  0  0  0  0  0  0  0
    2.5665    3.7087   11.7052 C   0  0  0  0  0  3  0  0  0  0  0  0
    2.5144    4.7956   11.6427 H   0  0  0  0  0  0  0  0  0  0  0  0
    5.4196    3.9159    7.2436 C   0  0  0  0  0  0  0  0  0  0  0  0
    6.3303    3.4448    6.9013 H   0  0  0  0  0  0  0  0  0  0  0  0
   -0.6192    1.3352    8.8115 C   0  0  0  0  0  0  0  0  0  0  0  0
    1.4166    3.0262   12.0427 C   0  0  0  0  0  3  0  0  0  0  0  0
    0.5221    3.6085   12.2649 H   0  0  0  0  0  0  0  0  0  0  0  0
   -0.9145    2.0549    6.5335 C   0  0  0  0  0  0  0  0  0  0  0  0
   -1.6467    1.2588    6.6965 H   0  0  0  0  0  0  0  0  0  0  0  0
   -0.3389    1.7705    5.6531 H   0  0  0  0  0  0  0  0  0  0  0  0
    3.9570    3.1491   11.8985 C   0  0  0  0  0  0  0  0  0  0  0  0
    4.6397    3.9659   12.1427 H   0  0  0  0  0  0  0  0  0  0  0  0
    3.9514    2.4668   12.7504 H   0  0  0  0  0  0  0  0  0  0  0  0
    4.3211    5.6792    8.4358 C   0  0  0  0  0  0  0  0  0  0  0  0
    4.3640    6.5880    9.0165 H   0  0  0  0  0  0  0  0  0  0  0  0
   -1.9037    1.2344   10.8411 C   0  0  0  0  0  0  0  0  0  0  0  0
   -2.4643    1.7349   11.6163 H   0  0  0  0  0  0  0  0  0  0  0  0
   -1.3464    1.9728    9.8106 C   0  0  0  0  0  0  0  0  0  0  0  0
   -1.4887    3.0419    9.7633 H   0  0  0  0  0  0  0  0  0  0  0  0
    2.2261    0.6277   11.7821 C   0  0  0  0  0  0  0  0  0  0  0  0
    3.2277    0.5474   12.2094 H   0  0  0  0  0  0  0  0  0  0  0  0
    1.7663   -0.3611   11.8484 H   0  0  0  0  0  0  0  0  0  0  0  0
    5.4861    5.0724    8.0001 C   0  0  0  0  0  0  0  0  0  0  0  0
    6.4478    5.4990    8.2453 H   0  0  0  0  0  0  0  0  0  0  0  0
   -1.7449   -0.1404   10.8699 C   0  0  0  0  0  0  0  0  0  0  0  0
   -2.1711   -0.7209   11.6752 H   0  0  0  0  0  0  0  0  0  0  0  0
    0.3127    4.8007    5.5334 C   0  0  0  0  0  0  0  0  0  0  0  0
    0.7795    5.7639    5.7497 H   0  0  0  0  0  0  0  0  0  0  0  0
   -0.0431    4.8259    4.4998 H   0  0  0  0  0  0  0  0  0  0  0  0
    1.3733    1.6203   12.5919 C   0  0  0  0  0  0  0  0  0  0  0  0
    0.3338    1.2837   12.5769 H   0  0  0  0  0  0  0  0  0  0  0  0
    1.6984    1.6311   13.6387 H   0  0  0  0  0  0  0  0  0  0  0  0
   -1.0461   -0.7756    9.8595 C   0  0  0  0  0  0  0  0  0  0  0  0
   -0.9329   -1.8505    9.8783 H   0  0  0  0  0  0  0  0  0  0  0  0
   -1.6832    3.3631    6.2969 C   0  0  0  0  0  0  0  0  0  0  0  0
   -2.0972    3.3317    5.2855 H   0  0  0  0  0  0  0  0  0  0  0  0
   -2.5193    3.4016    6.9984 H   0  0  0  0  0  0  0  0  0  0  0  0
    0.2487   -0.7698    7.7128 C   0  0  0  0  0  0  0  0  0  0  0  0
   -0.4336   -1.0022    6.8938 H   0  0  0  0  0  0  0  0  0  0  0  0
    0.6658   -1.7067    8.0749 H   0  0  0  0  0  0  0  0  0  0  0  0
    1.0547   -0.1548    7.3167 H   0  0  0  0  0  0  0  0  0  0  0  0
    4.4723    2.4321   10.6382 C   0  0  0  0  0  0  0  0  0  0  0  0
    5.2016    1.6614   10.9159 H   0  0  0  0  0  0  0  0  0  0  0  0
    4.9916    3.1552   10.0043 H   0  0  0  0  0  0  0  0  0  0  0  0
    4.1584    2.0924    6.0806 C   0  0  0  0  0  0  0  0  0  0  0  0
    3.2769    1.4968    6.3094 H   0  0  0  0  0  0  0  0  0  0  0  0
    5.0461    1.4887    6.2561 H   0  0  0  0  0  0  0  0  0  0  0  0
    4.1312    2.3443    5.0195 H   0  0  0  0  0  0  0  0  0  0  0  0
  3  1  1  0  0  0  0
  4  5  1  6  0  0  0
  4  1  1  0  0  0  0
  4 12  1  0  0  0  0
  4 62  1  0  0  0  0
  6 14  1  0  0  0  0
  7 23  1  0  0  0  0
  7  6  2  0  0  0  0
  8  6  1  0  0  0  0
  8  3  1  0  0  0  0
  9  8  1  0  0  0  0
 10  9  1  0  0  0  0
 11  9  1  0  0  0  0
 12 40  1  0  0  0  0
 13 12  1  0  0  0  0
 14 15  1  0  0  0  0
 14 34  2  0  0  0  0
 16  3  1  0  0  0  0
 16 25  1  0  0  0  0
 17 53  1  0  0  0  0
 18 19  1  0  0  0  0
 20 18  1  0  0  0  0
 21 31  1  0  0  0  0
 21 26  1  0  0  0  0
 22 21  1  0  0  0  0
 23 43  2  0  0  0  0
 24 23  1  0  0  0  0
 25 17  2  0  0  0  0
 25 38  1  0  0  0  0
 26 27  1  0  0  0  0
 26 50  1  0  0  0  0
 28 29  1  0  0  0  0
 28 16  1  0  0  0  0
 30 28  1  0  0  0  0
 31 32  1  0  0  0  0
 31 33  1  0  0  0  0
 34 35  1  0  0  0  0
 36 45  1  0  0  0  0
 36 37  1  0  0  0  0
 38 36  2  0  0  0  0
 39 38  1  0  0  0  0
 40 42  1  0  0  0  0
 40 41  1  0  0  0  0
 40 50  1  0  0  0  0
 43 44  1  0  0  0  0
 43 34  1  0  0  0  0
 45 46  1  0  0  0  0
 47  9  1  0  0  0  0
 47 48  1  0  0  0  0
 47 18  1  0  0  0  0
 49 47  1  0  0  0  0
 50 52  1  0  0  0  0
 51 50  1  0  0  0  0
 53 54  1  0  0  0  0
 53 45  2  0  0  0  0
 55 18  1  0  0  0  0
 55 28  1  0  0  0  0
 55 57  1  0  0  0  0
 56 55  1  0  0  0  0
 58 60  1  0  0  0  0
 58 17  1  0  0  0  0
 59 58  1  0  0  0  0
 61 58  1  0  0  0  0
 62 63  1  0  0  0  0
 62 31  1  0  0  0  0
 64 62  1  0  0  0  0
 65 67  1  0  0  0  0
 65 66  1  0  0  0  0
 65  7  1  0  0  0  0
 68 65  1  0  0  0  0
M  END
$$$$
