CSD_code = YEDKIE | q = 0 | S = 0 | Stoichiometry = C12H12Cl2N4S2Zn | MND = 4
 OpenBabel04212202123D

 33 34  0  0  0  0  0  0  0  0999 V2000
    5.8533    5.1262    2.9148 Zn  0  0  0  0  0  0  0  0  0  0  0  0
    5.0059    4.2668    1.0548 Cl  0  0  0  0  0  0  0  0  0  0  0  0
    5.2686    5.1623    5.0523 Cl  0  0  0  0  0  0  0  0  0  0  0  0
    5.8209   10.3812   -1.5608 S   0  0  0  0  0  0  0  0  0  0  0  0
   11.5588    3.1424    6.2583 S   0  0  0  0  0  0  0  0  0  0  0  0
    6.0173    7.1752    2.3528 N   0  0  0  0  0  0  0  0  0  0  0  0
    4.9343    7.9287   -1.6104 N   0  0  0  0  0  0  0  0  0  0  0  0
    4.6317    7.0581   -1.2043 H   0  0  0  0  0  0  0  0  0  0  0  0
    4.7934    8.0808   -2.5960 H   0  0  0  0  0  0  0  0  0  0  0  0
    7.8082    4.2970    3.0609 N   0  0  0  0  0  0  0  0  0  0  0  0
    9.1051    3.6482    6.9806 N   0  0  0  0  0  0  0  0  0  0  0  0
    8.1160    3.7694    6.8355 H   0  0  0  0  0  0  0  0  0  0  0  0
    9.4577    3.6156    7.9234 H   0  0  0  0  0  0  0  0  0  0  0  0
    5.8577    7.4265    1.0601 C   0  0  0  0  0  3  0  0  0  0  0  0
    5.9145    6.5621    0.4140 H   0  0  0  0  0  0  0  0  0  0  0  0
    5.6355    8.7062    0.5579 C   0  0  0  0  0  0  0  0  0  0  0  0
    5.6347    9.7673    1.4652 C   0  0  0  0  0  0  0  0  0  0  0  0
    5.4819   10.7731    1.1026 H   0  0  0  0  0  0  0  0  0  0  0  0
    5.8202    9.5002    2.8087 C   0  0  0  0  0  0  0  0  0  0  0  0
    5.8177   10.2954    3.5368 H   0  0  0  0  0  0  0  0  0  0  0  0
    5.9909    8.1862    3.2158 C   0  0  0  0  0  0  0  0  0  0  0  0
    6.1059    7.9232    4.2576 H   0  0  0  0  0  0  0  0  0  0  0  0
    5.4294    8.9356   -0.8772 C   0  0  0  0  0  0  0  0  0  0  0  0
    8.3199    4.2431    4.2835 C   0  0  0  0  0  3  0  0  0  0  0  0
    7.7994    4.8326    5.0248 H   0  0  0  0  0  0  0  0  0  0  0  0
    9.4462    3.4885    4.6017 C   0  0  0  0  0  0  0  0  0  0  0  0
   10.0799    2.8014    3.5647 C   0  0  0  0  0  0  0  0  0  0  0  0
   10.9669    2.2235    3.7776 H   0  0  0  0  0  0  0  0  0  0  0  0
    9.5505    2.8752    2.2899 C   0  0  0  0  0  0  0  0  0  0  0  0
   10.0113    2.3518    1.4677 H   0  0  0  0  0  0  0  0  0  0  0  0
    8.4018    3.6223    2.0811 C   0  0  0  0  0  0  0  0  0  0  0  0
    7.9303    3.6829    1.1106 H   0  0  0  0  0  0  0  0  0  0  0  0
    9.9638    3.4332    5.9743 C   0  0  0  0  0  0  0  0  0  0  0  0
  1 10  1  0  0  0  0
  1  3  1  0  0  0  0
  2  1  1  0  0  0  0
  4 23  2  0  0  0  0
  6  1  1  0  0  0  0
  6 21  1  0  0  0  0
  7  8  1  0  0  0  0
  7 23  1  0  0  0  0
  9  7  1  0  0  0  0
 10 24  1  0  0  0  0
 11 13  1  0  0  0  0
 12 11  1  0  0  0  0
 14  6  1  0  0  0  0
 15 14  1  0  0  0  0
 16 14  1  0  0  0  0
 16 17  2  0  0  0  0
 17 19  1  0  0  0  0
 18 17  1  0  0  0  0
 19 21  2  0  0  0  0
 19 20  1  0  0  0  0
 21 22  1  0  0  0  0
 23 16  1  0  0  0  0
 24 26  1  0  0  0  0
 24 25  1  0  0  0  0
 26 33  1  0  0  0  0
 27 28  1  0  0  0  0
 27 26  2  0  0  0  0
 29 27  1  0  0  0  0
 30 29  1  0  0  0  0
 31 29  2  0  0  0  0
 31 10  1  0  0  0  0
 32 31  1  0  0  0  0
 33  5  2  0  0  0  0
 33 11  1  0  0  0  0
M  END
$$$$
