CSD_code = YEDLOJ | q = 0 | S = 0 | Stoichiometry = C27H22I2O2P2RuS | MND = 6
 OpenBabel04212202123D

 57 61  0  0  0  0  0  0  0  0999 V2000
    3.9534   14.3625    2.9769 Ru  0  0  0  0  0  0  0  0  0  0  0  0
    4.6629   11.7555    2.6757 I   0  0  0  0  0  0  0  0  0  0  0  0
    4.4163   14.2966    5.6367 I   0  0  0  0  0  0  0  0  0  0  0  0
    1.5515   13.5108    3.4321 S   0  0  0  0  0  0  0  0  0  0  0  0
    0.6368   15.2128    3.8225 P   0  0  0  0  0  4  0  0  0  0  0  0
   -0.6767   14.9378    5.0353 C   0  0  0  0  0  0  0  0  0  0  0  0
   -2.0143   15.1805    4.7524 C   0  0  0  0  0  0  0  0  0  0  0  0
   -2.3018   15.5834    3.7910 H   0  0  0  0  0  0  0  0  0  0  0  0
   -2.9704   14.8951    5.7111 C   0  0  0  0  0  0  0  0  0  0  0  0
   -4.0125   15.0804    5.4976 H   0  0  0  0  0  0  0  0  0  0  0  0
   -2.5940   14.3662    6.9352 C   0  0  0  0  0  0  0  0  0  0  0  0
   -3.3460   14.1427    7.6766 H   0  0  0  0  0  0  0  0  0  0  0  0
   -1.2587   14.1100    7.2078 C   0  0  0  0  0  0  0  0  0  0  0  0
   -0.9677   13.6854    8.1561 H   0  0  0  0  0  0  0  0  0  0  0  0
   -0.2955   14.3896    6.2577 C   0  0  0  0  0  0  0  0  0  0  0  0
    0.7459   14.1663    6.4533 H   0  0  0  0  0  0  0  0  0  0  0  0
   -0.0630   16.0188    2.3509 C   0  0  0  0  0  0  0  0  0  0  0  0
   -0.0185   15.3443    1.1375 C   0  0  0  0  0  0  0  0  0  0  0  0
    0.4088   14.3501    1.0940 H   0  0  0  0  0  0  0  0  0  0  0  0
   -0.5189   15.9464   -0.0030 C   0  0  0  0  0  0  0  0  0  0  0  0
   -0.4797   15.4238   -0.9465 H   0  0  0  0  0  0  0  0  0  0  0  0
   -1.0652   17.2163    0.0713 C   0  0  0  0  0  0  0  0  0  0  0  0
   -1.4521   17.6894   -0.8185 H   0  0  0  0  0  0  0  0  0  0  0  0
   -1.1247   17.8829    1.2860 C   0  0  0  0  0  0  0  0  0  0  0  0
   -1.5604   18.8692    1.3419 H   0  0  0  0  0  0  0  0  0  0  0  0
   -0.6270   17.2887    2.4293 C   0  0  0  0  0  0  0  0  0  0  0  0
   -0.6825   17.8027    3.3793 H   0  0  0  0  0  0  0  0  0  0  0  0
    3.2566   16.5062    3.4793 P   0  0  0  0  0  4  0  0  0  0  0  0
    4.4485   17.5828    4.3198 C   0  0  0  0  0  0  0  0  0  0  0  0
    4.4094   17.9329    5.6632 C   0  0  0  0  0  0  0  0  0  0  0  0
    3.6197   17.5764    6.3084 H   0  0  0  0  0  0  0  0  0  0  0  0
    5.4158   18.7245    6.1888 C   0  0  0  0  0  0  0  0  0  0  0  0
    5.3909   18.9881    7.2351 H   0  0  0  0  0  0  0  0  0  0  0  0
    6.4557   19.1617    5.3862 C   0  0  0  0  0  0  0  0  0  0  0  0
    7.2430   19.7682    5.8075 H   0  0  0  0  0  0  0  0  0  0  0  0
    6.4944   18.8154    4.0442 C   0  0  0  0  0  0  0  0  0  0  0  0
    7.3069   19.1507    3.4175 H   0  0  0  0  0  0  0  0  0  0  0  0
    5.4930   18.0288    3.5112 C   0  0  0  0  0  0  0  0  0  0  0  0
    5.5079   17.7474    2.4627 H   0  0  0  0  0  0  0  0  0  0  0  0
    2.6626   17.7020    2.2301 C   0  0  0  0  0  0  0  0  0  0  0  0
    2.6101   17.3946    0.8791 C   0  0  0  0  0  0  0  0  0  0  0  0
    2.9294   16.4212    0.5382 H   0  0  0  0  0  0  0  0  0  0  0  0
    2.1578   18.3317   -0.0338 C   0  0  0  0  0  0  0  0  0  0  0  0
    2.1193   18.0807   -1.0830 H   0  0  0  0  0  0  0  0  0  0  0  0
    1.7647   19.5852    0.3991 C   0  0  0  0  0  0  0  0  0  0  0  0
    1.4126   20.3170   -0.3121 H   0  0  0  0  0  0  0  0  0  0  0  0
    1.8386   19.9081    1.7457 C   0  0  0  0  0  0  0  0  0  0  0  0
    1.5511   20.8928    2.0835 H   0  0  0  0  0  0  0  0  0  0  0  0
    2.2896   18.9755    2.6577 C   0  0  0  0  0  0  0  0  0  0  0  0
    2.3724   19.2394    3.7047 H   0  0  0  0  0  0  0  0  0  0  0  0
    1.7644   16.4641    4.5778 C   0  0  0  0  0  0  0  0  0  0  0  0
    2.0390   16.0947    5.5742 H   0  0  0  0  0  0  0  0  0  0  0  0
    1.2825   17.4424    4.6550 H   0  0  0  0  0  0  0  0  0  0  0  0
    5.7125   14.8739    2.6729 C   0  0  0  0  0  2  0  0  0  0  0  0
    6.8044   15.1552    2.4942 O   0  0  0  0  0  1  0  0  0  0  0  0
    3.5549   14.2311    1.1763 C   0  0  0  0  0  2  0  0  0  0  0  0
    3.3132   14.0379    0.0763 O   0  0  0  0  0  1  0  0  0  0  0  0
  1  4  1  0  0  0  0
  1 28  1  0  0  0  0
  1  3  1  0  0  0  0
  2  1  1  0  0  0  0
  4  5  1  0  0  0  0
  5 51  1  0  0  0  0
  5  6  1  0  0  0  0
  6 15  1  0  0  0  0
  7  6  2  0  0  0  0
  7  9  1  0  0  0  0
  8  7  1  0  0  0  0
  9 11  2  0  0  0  0
 10  9  1  0  0  0  0
 11 13  1  0  0  0  0
 11 12  1  0  0  0  0
 13 14  1  0  0  0  0
 15 16  1  0  0  0  0
 15 13  2  0  0  0  0
 17 26  1  0  0  0  0
 17  5  1  0  0  0  0
 18 17  2  0  0  0  0
 19 18  1  0  0  0  0
 20 22  2  0  0  0  0
 20 18  1  0  0  0  0
 21 20  1  0  0  0  0
 22 24  1  0  0  0  0
 23 22  1  0  0  0  0
 24 25  1  0  0  0  0
 24 26  2  0  0  0  0
 26 27  1  0  0  0  0
 28 29  1  0  0  0  0
 28 51  1  0  0  0  0
 29 30  1  0  0  0  0
 30 32  2  0  0  0  0
 30 31  1  0  0  0  0
 32 33  1  0  0  0  0
 34 35  1  0  0  0  0
 34 32  1  0  0  0  0
 36 34  2  0  0  0  0
 37 36  1  0  0  0  0
 38 36  1  0  0  0  0
 38 29  2  0  0  0  0
 39 38  1  0  0  0  0
 40 49  1  0  0  0  0
 40 28  1  0  0  0  0
 41 40  2  0  0  0  0
 42 41  1  0  0  0  0
 43 45  2  0  0  0  0
 43 41  1  0  0  0  0
 44 43  1  0  0  0  0
 45 47  1  0  0  0  0
 46 45  1  0  0  0  0
 47 48  1  0  0  0  0
 47 49  2  0  0  0  0
 49 50  1  0  0  0  0
 51 53  1  0  0  0  0
 51 52  1  0  0  0  0
 54  1  1  0  0  0  0
 55 54  1  0  0  0  0
 56  1  1  0  0  0  0
 57 56  1  0  0  0  0
M  END
$$$$
