CSD_code = YEFJAW | q = 0 | S = 0 | Stoichiometry = C14H10Cl4N4Pt | MND = 4
 OpenBabel04212202123D

 33 36  0  0  0  0  0  0  0  0999 V2000
   -4.0356    8.4467    8.1351 Pt  0  0  0  0  0  0  0  0  0  0  0  0
   -4.0233   10.3697   10.5825 N   0  0  0  0  0  0  0  0  0  0  0  0
   -3.1661   10.0694   10.1218 H   0  0  0  0  0  0  0  0  0  0  0  0
   -2.6750    7.6576    9.7559 Cl  0  0  0  0  0  0  0  0  0  0  0  0
   -3.5652   10.9489    6.2363 N   0  0  0  0  0  0  0  0  0  0  0  0
   -2.7752   10.3809    6.5589 H   0  0  0  0  0  0  0  0  0  0  0  0
   -2.3833    8.1993    6.6119 Cl  0  0  0  0  0  0  0  0  0  0  0  0
   -4.1357   11.2412   11.6321 C   0  0  0  0  0  0  0  0  0  0  0  0
   -3.3212   11.8743   11.9221 H   0  0  0  0  0  0  0  0  0  0  0  0
   -3.5218   12.1029    5.5035 C   0  0  0  0  0  0  0  0  0  0  0  0
   -2.6207   12.6769    5.4214 H   0  0  0  0  0  0  0  0  0  0  0  0
   -5.6110   11.2795    5.3390 C   0  0  0  0  0  0  0  0  0  0  0  0
   -5.3890   11.1493   12.1712 C   0  0  0  0  0  0  0  0  0  0  0  0
   -4.7529   12.3513    4.9617 C   0  0  0  0  0  0  0  0  0  0  0  0
   -6.0939   10.1426   11.4506 C   0  0  0  0  0  0  0  0  0  0  0  0
   -5.1974   13.6907    3.9937 Cl  0  0  0  0  0  0  0  0  0  0  0  0
   -6.0116   12.0587   13.4793 Cl  0  0  0  0  0  0  0  0  0  0  0  0
   -6.9288   10.9093    5.0926 C   0  0  0  0  0  0  0  0  0  0  0  0
   -7.5810   11.5258    4.4946 H   0  0  0  0  0  0  0  0  0  0  0  0
   -7.3489    9.5454   11.5141 C   0  0  0  0  0  0  0  0  0  0  0  0
   -8.0807    9.8570   12.2423 H   0  0  0  0  0  0  0  0  0  0  0  0
   -7.3509    9.7094    5.6336 C   0  0  0  0  0  0  0  0  0  0  0  0
   -8.3520    9.3511    5.4564 H   0  0  0  0  0  0  0  0  0  0  0  0
   -7.6021    8.5253   10.6159 C   0  0  0  0  0  0  0  0  0  0  0  0
   -8.5453    8.0038   10.6335 H   0  0  0  0  0  0  0  0  0  0  0  0
   -6.6480    8.1527    9.6716 C   0  0  0  0  0  3  0  0  0  0  0  0
   -6.8507    7.3423    8.9859 H   0  0  0  0  0  0  0  0  0  0  0  0
   -6.4946    8.9415    6.4195 C   0  0  0  0  0  3  0  0  0  0  0  0
   -6.8351    8.0009    6.8266 H   0  0  0  0  0  0  0  0  0  0  0  0
   -5.1805    9.6809   10.4635 C   0  0  0  0  0  0  0  0  0  0  0  0
   -4.8054   10.4201    6.1385 C   0  0  0  0  0  0  0  0  0  0  0  0
   -5.2429    9.2910    6.7025 N   0  0  0  0  0  0  0  0  0  0  0  0
   -5.4577    8.7345    9.5656 N   0  0  0  0  0  0  0  0  0  0  0  0
  1 33  1  0  0  0  0
  1  4  1  0  0  0  0
  2  8  1  0  0  0  0
  3  2  1  0  0  0  0
  5  6  1  0  0  0  0
  7  1  1  0  0  0  0
  8  9  1  0  0  0  0
  8 13  2  0  0  0  0
 10  5  1  0  0  0  0
 11 10  1  0  0  0  0
 12 31  2  0  0  0  0
 13 17  1  0  0  0  0
 14 12  1  0  0  0  0
 14 10  2  0  0  0  0
 15 20  1  0  0  0  0
 15 13  1  0  0  0  0
 16 14  1  0  0  0  0
 18 12  1  0  0  0  0
 18 22  2  0  0  0  0
 19 18  1  0  0  0  0
 20 21  1  0  0  0  0
 22 28  1  0  0  0  0
 23 22  1  0  0  0  0
 24 25  1  0  0  0  0
 24 20  2  0  0  0  0
 26 24  1  0  0  0  0
 27 26  1  0  0  0  0
 28 32  1  0  0  0  0
 28 29  1  0  0  0  0
 30  2  1  0  0  0  0
 30 15  2  0  0  0  0
 31  5  1  0  0  0  0
 31 32  1  0  0  0  0
 32  1  1  0  0  0  0
 33 26  1  0  0  0  0
 33 30  1  0  0  0  0
M  END
$$$$
