CSD_code = YEFKUP | q = 0 | S = 0 | Stoichiometry = C18H34Br2NiP2 | MND = 4
 OpenBabel04212202123D

 57 57  0  0  0  0  0  0  0  0999 V2000
    6.3629    4.8773   12.8501 Ni  0  0  0  0  0  0  0  0  0  0  0  0
    6.3628    6.6448   14.2430 Br  0  0  0  0  0  0  0  0  0  0  0  0
    6.3633   -0.2566    8.7479 Br  0  0  0  0  0  0  0  0  0  0  0  0
    4.1857    4.8591   12.8482 P   0  0  0  0  0  4  0  0  0  0  0  0
    6.3634    3.4166   11.6825 C   0  0  0  0  0  0  0  0  0  0  0  0
    6.3634    3.6035   10.3007 C   0  0  0  0  0  0  0  0  0  0  0  0
    6.3629    2.5258    9.4306 C   0  0  0  0  0  0  0  0  0  0  0  0
    6.3623    1.2433    9.9461 C   0  0  0  0  0  0  0  0  0  0  0  0
    6.3629    1.0234   11.3110 C   0  0  0  0  0  0  0  0  0  0  0  0
    6.3633    2.1099   12.1697 C   0  0  0  0  0  0  0  0  0  0  0  0
    3.2795    3.5851   11.8548 C   0  0  0  0  0  0  0  0  0  0  0  0
    1.7583    3.6034   11.9031 C   0  0  0  0  0  0  0  0  0  0  0  0
    3.4481    6.4532   12.2913 C   0  0  0  0  0  0  0  0  0  0  0  0
    4.0143    6.8596   10.9367 C   0  0  0  0  0  0  0  0  0  0  0  0
    3.4636    4.6918   14.5353 C   0  0  0  0  0  0  0  0  0  0  0  0
    4.0414    3.4733   15.2440 C   0  0  0  0  0  0  0  0  0  0  0  0
    6.3630    4.6026    9.8790 H   0  0  0  0  0  0  0  0  0  0  0  0
    6.3629    2.6854    8.3623 H   0  0  0  0  0  0  0  0  0  0  0  0
    6.3628    0.0167   11.7022 H   0  0  0  0  0  0  0  0  0  0  0  0
    6.3628    1.9199   13.2375 H   0  0  0  0  0  0  0  0  0  0  0  0
    3.6193    3.7040   10.8212 H   0  0  0  0  0  0  0  0  0  0  0  0
    3.6487    2.6116   12.1918 H   0  0  0  0  0  0  0  0  0  0  0  0
    1.3571    4.5479   11.5438 H   0  0  0  0  0  0  0  0  0  0  0  0
    1.3694    2.8123   11.2640 H   0  0  0  0  0  0  0  0  0  0  0  0
    1.3881    3.4284   12.9104 H   0  0  0  0  0  0  0  0  0  0  0  0
    2.3601    6.3625   12.2590 H   0  0  0  0  0  0  0  0  0  0  0  0
    3.7098    7.2055   13.0405 H   0  0  0  0  0  0  0  0  0  0  0  0
    5.1039    6.9044   10.9969 H   0  0  0  0  0  0  0  0  0  0  0  0
    3.7415    6.1435   10.1630 H   0  0  0  0  0  0  0  0  0  0  0  0
    3.6509    7.8421   10.6427 H   0  0  0  0  0  0  0  0  0  0  0  0
    3.7269    5.5980   15.0876 H   0  0  0  0  0  0  0  0  0  0  0  0
    2.3752    4.6351   14.4645 H   0  0  0  0  0  0  0  0  0  0  0  0
    3.6912    3.4188   16.2726 H   0  0  0  0  0  0  0  0  0  0  0  0
    3.7652    2.5514   14.7344 H   0  0  0  0  0  0  0  0  0  0  0  0
    5.1311    3.5453   15.2597 H   0  0  0  0  0  0  0  0  0  0  0  0
    8.5403    4.8592   12.8482 P   0  0  0  0  0  4  0  0  0  0  0  0
    9.4465    3.5852   11.8548 C   0  0  0  0  0  0  0  0  0  0  0  0
    9.2779    6.4532   12.2913 C   0  0  0  0  0  0  0  0  0  0  0  0
    9.2624    4.6919   14.5352 C   0  0  0  0  0  0  0  0  0  0  0  0
   10.9678    3.6033   11.9032 C   0  0  0  0  0  0  0  0  0  0  0  0
    9.1068    3.7041   10.8212 H   0  0  0  0  0  0  0  0  0  0  0  0
    9.0773    2.6116   12.1917 H   0  0  0  0  0  0  0  0  0  0  0  0
    8.7117    6.8596   10.9367 C   0  0  0  0  0  0  0  0  0  0  0  0
   10.3659    6.3625   12.2589 H   0  0  0  0  0  0  0  0  0  0  0  0
    9.0163    7.2056   13.0404 H   0  0  0  0  0  0  0  0  0  0  0  0
    8.6845    3.4734   15.2439 C   0  0  0  0  0  0  0  0  0  0  0  0
    8.9992    5.5980   15.0876 H   0  0  0  0  0  0  0  0  0  0  0  0
   10.3508    4.6351   14.4644 H   0  0  0  0  0  0  0  0  0  0  0  0
   11.3691    4.5479   11.5440 H   0  0  0  0  0  0  0  0  0  0  0  0
   11.3566    2.8123   11.2640 H   0  0  0  0  0  0  0  0  0  0  0  0
   11.3379    3.4282   12.9104 H   0  0  0  0  0  0  0  0  0  0  0  0
    7.6221    6.9043   10.9969 H   0  0  0  0  0  0  0  0  0  0  0  0
    8.9845    6.1434   10.1630 H   0  0  0  0  0  0  0  0  0  0  0  0
    9.0751    7.8420   10.6426 H   0  0  0  0  0  0  0  0  0  0  0  0
    9.0346    3.4188   16.2725 H   0  0  0  0  0  0  0  0  0  0  0  0
    8.9607    2.5515   14.7342 H   0  0  0  0  0  0  0  0  0  0  0  0
    7.5948    3.5455   15.2595 H   0  0  0  0  0  0  0  0  0  0  0  0
  1  2  1  0  0  0  0
  3  8  1  0  0  0  0
  4  1  1  0  0  0  0
  4 15  1  0  0  0  0
  5 10  1  0  0  0  0
  5  1  1  0  0  0  0
  6  5  2  0  0  0  0
  7  8  2  0  0  0  0
  7  6  1  0  0  0  0
  8  9  1  0  0  0  0
  9 19  1  0  0  0  0
  9 10  2  0  0  0  0
 10 20  1  0  0  0  0
 11 12  1  0  0  0  0
 11 22  1  0  0  0  0
 11  4  1  0  0  0  0
 12 25  1  0  0  0  0
 13  4  1  0  0  0  0
 13 27  1  0  0  0  0
 14 28  1  0  0  0  0
 14 13  1  0  0  0  0
 15 31  1  0  0  0  0
 15 16  1  0  0  0  0
 16 35  1  0  0  0  0
 16 33  1  0  0  0  0
 17  6  1  0  0  0  0
 18  7  1  0  0  0  0
 21 11  1  0  0  0  0
 23 12  1  0  0  0  0
 24 12  1  0  0  0  0
 26 13  1  0  0  0  0
 29 14  1  0  0  0  0
 30 14  1  0  0  0  0
 32 15  1  0  0  0  0
 34 16  1  0  0  0  0
 36  1  1  0  0  0  0
 36 39  1  0  0  0  0
 37 40  1  0  0  0  0
 37 42  1  0  0  0  0
 37 36  1  0  0  0  0
 38 36  1  0  0  0  0
 38 45  1  0  0  0  0
 39 47  1  0  0  0  0
 39 46  1  0  0  0  0
 40 51  1  0  0  0  0
 41 37  1  0  0  0  0
 43 52  1  0  0  0  0
 43 38  1  0  0  0  0
 44 38  1  0  0  0  0
 46 57  1  0  0  0  0
 46 55  1  0  0  0  0
 48 39  1  0  0  0  0
 49 40  1  0  0  0  0
 50 40  1  0  0  0  0
 53 43  1  0  0  0  0
 54 43  1  0  0  0  0
 56 46  1  0  0  0  0
M  END
$$$$
