CSD_code = YEFQUW | q = 0 | S = 0 | Stoichiometry = C22H25ClNOPPd | MND = 4
 OpenBabel04212202123D

 52 55  0  0  1  0  0  0  0  0999 V2000
    9.0362    2.0064   -2.0161 Pd  0  0  2  0  0  0  0  0  0  0  0  0
    7.3080    3.3052   -2.6864 Cl  0  0  0  0  0  0  0  0  0  0  0  0
   10.6358    0.9298   -0.9048 P   0  0  0  0  0  4  0  0  0  0  0  0
   10.4217    1.1673    0.6734 O   0  0  0  0  0  0  0  0  0  0  0  0
    9.7004    3.5849   -0.5080 N   0  0  0  0  0  0  0  0  0  0  0  0
    8.4754    0.5524   -3.3430 C   0  0  0  0  0  0  0  0  0  0  0  0
    9.0608    0.7048   -4.2611 H   0  0  0  0  0  0  0  0  0  0  0  0
    7.4133    0.6495   -3.5795 H   0  0  0  0  0  0  0  0  0  0  0  0
    8.6704   -0.4507   -2.9440 H   0  0  0  0  0  0  0  0  0  0  0  0
    9.3491    1.9356    1.2455 C   0  0  0  0  0  0  0  0  0  0  0  0
    7.9826    1.3424    0.8754 C   0  0  0  0  0  0  0  0  0  0  0  0
    7.9590    0.2876    1.1449 H   0  0  0  0  0  0  0  0  0  0  0  0
    7.7910    1.4396   -0.2126 H   0  0  0  0  0  0  0  0  0  0  0  0
    7.1963    1.8700    1.4106 H   0  0  0  0  0  0  0  0  0  0  0  0
    9.5825    1.8004    2.7534 C   0  0  0  0  0  0  0  0  0  0  0  0
    9.6975    0.7454    2.9905 H   0  0  0  0  0  0  0  0  0  0  0  0
    8.7407    2.1879    3.3183 H   0  0  0  0  0  0  0  0  0  0  0  0
   10.4919    2.3199    3.0458 H   0  0  0  0  0  0  0  0  0  0  0  0
    9.4128    3.3874    0.7768 C   0  0  1  0  0  3  0  0  0  0  0  0
    9.1870    4.4540    1.6357 C   0  0  0  0  0  0  0  0  0  0  0  0
    8.9276    4.2946    2.6682 H   0  0  0  0  0  0  0  0  0  0  0  0
    9.2888    5.7438    1.1371 C   0  0  0  0  0  0  0  0  0  0  0  0
    9.1036    6.5897    1.7821 H   0  0  0  0  0  0  0  0  0  0  0  0
    9.6406    5.9313   -0.1854 C   0  0  0  0  0  0  0  0  0  0  0  0
    9.7471    6.9221   -0.5980 H   0  0  0  0  0  0  0  0  0  0  0  0
    9.8398    4.8169   -0.9948 C   0  0  0  0  0  0  0  0  0  0  0  0
   10.2544    4.9512   -2.4238 C   0  0  0  0  0  0  0  0  0  0  0  0
    9.8756    4.0940   -3.0044 H   0  0  0  0  0  0  0  0  0  0  0  0
   11.3444    4.9672   -2.4855 H   0  0  0  0  0  0  0  0  0  0  0  0
    9.8630    5.8699   -2.8528 H   0  0  0  0  0  0  0  0  0  0  0  0
   12.2238    1.7534   -1.2571 C   0  0  0  0  0  0  0  0  0  0  0  0
   13.2483    1.8427   -0.3257 C   0  0  0  0  0  0  0  0  0  0  0  0
   13.1107    1.4132    0.6567 H   0  0  0  0  0  0  0  0  0  0  0  0
   14.4268    2.4844   -0.6624 C   0  0  0  0  0  0  0  0  0  0  0  0
   15.2252    2.5620    0.0615 H   0  0  0  0  0  0  0  0  0  0  0  0
   14.5876    3.0233   -1.9293 C   0  0  0  0  0  0  0  0  0  0  0  0
   15.5108    3.5205   -2.1887 H   0  0  0  0  0  0  0  0  0  0  0  0
   13.5676    2.9290   -2.8631 C   0  0  0  0  0  0  0  0  0  0  0  0
   13.6964    3.3516   -3.8491 H   0  0  0  0  0  0  0  0  0  0  0  0
   12.3834    2.2988   -2.5251 C   0  0  0  0  0  0  0  0  0  0  0  0
   11.5601    2.2235   -3.2380 H   0  0  0  0  0  0  0  0  0  0  0  0
   11.1822   -0.8038   -0.8976 C   0  0  0  0  0  0  0  0  0  0  0  0
   11.6044   -1.3302   -2.1141 C   0  0  0  0  0  0  0  0  0  0  0  0
   11.5964   -0.6967   -2.9917 H   0  0  0  0  0  0  0  0  0  0  0  0
   12.0211   -2.6445   -2.1939 C   0  0  0  0  0  0  0  0  0  0  0  0
   12.3495   -3.0521   -3.1387 H   0  0  0  0  0  0  0  0  0  0  0  0
   12.0118   -3.4423   -1.0595 C   0  0  0  0  0  0  0  0  0  0  0  0
   12.3349   -4.4710   -1.1211 H   0  0  0  0  0  0  0  0  0  0  0  0
   11.5837   -2.9231    0.1506 C   0  0  0  0  0  0  0  0  0  0  0  0
   11.5734   -3.5473    1.0326 H   0  0  0  0  0  0  0  0  0  0  0  0
   11.1655   -1.6064    0.2339 C   0  0  0  0  0  0  0  0  0  0  0  0
   10.8295   -1.1969    1.1747 H   0  0  0  0  0  0  0  0  0  0  0  0
  1  2  1  1  0  0  0
  1  3  1  0  0  0  0
  1  5  1  0  0  0  0
  3 42  1  0  0  0  0
  3  4  1  0  0  0  0
  4 10  1  0  0  0  0
  5 19  1  0  0  0  0
  6  9  1  0  0  0  0
  6  1  1  0  0  0  0
  7  6  1  0  0  0  0
  8  6  1  0  0  0  0
 10 15  1  0  0  0  0
 11 12  1  0  0  0  0
 11 10  1  0  0  0  0
 11 14  1  0  0  0  0
 13 11  1  0  0  0  0
 15 16  1  0  0  0  0
 15 18  1  0  0  0  0
 15 17  1  0  0  0  0
 19 10  1  0  0  0  0
 19 20  1  1  0  0  0
 20 21  1  0  0  0  0
 22 20  2  0  0  0  0
 22 23  1  0  0  0  0
 24 22  1  0  0  0  0
 25 24  1  0  0  0  0
 26  5  1  0  0  0  0
 26 24  2  0  0  0  0
 27 26  1  0  0  0  0
 28 27  1  0  0  0  0
 29 27  1  0  0  0  0
 30 27  1  0  0  0  0
 31  3  1  0  0  0  0
 31 32  1  0  0  0  0
 32 33  1  0  0  0  0
 34 32  2  0  0  0  0
 34 35  1  0  0  0  0
 36 34  1  0  0  0  0
 37 36  1  0  0  0  0
 38 40  1  0  0  0  0
 38 36  2  0  0  0  0
 39 38  1  0  0  0  0
 40 31  2  0  0  0  0
 41 40  1  0  0  0  0
 42 51  1  0  0  0  0
 43 42  2  0  0  0  0
 44 43  1  0  0  0  0
 45 43  1  0  0  0  0
 45 47  2  0  0  0  0
 46 45  1  0  0  0  0
 47 49  1  0  0  0  0
 48 47  1  0  0  0  0
 49 51  2  0  0  0  0
 49 50  1  0  0  0  0
 51 52  1  0  0  0  0
M  END
$$$$
