CSD_code = YEFRAD | q = 0 | S = 0 | Stoichiometry = C26H24Cl2NPPd | MND = 4
 OpenBabel04212202123D

 55 59  0  0  1  0  0  0  0  0999 V2000
    1.2574   -1.1083    2.5771 Pd  0  0  0  0  0  0  0  0  0  0  0  0
    1.0728   -3.3140    3.0987 Cl  0  0  0  0  0  0  0  0  0  0  0  0
   -0.7682   -1.1250    1.6260 Cl  0  0  0  0  0  0  0  0  0  0  0  0
    1.2339    1.0849    3.1570 P   0  0  0  0  0  4  0  0  0  0  0  0
    3.2137   -0.9569    3.1411 N   0  0  0  0  0  0  0  0  0  0  0  0
    2.4631    0.8277    4.5472 C   0  0  0  0  0  0  0  0  0  0  0  0
    2.7980    1.7540    5.0191 H   0  0  0  0  0  0  0  0  0  0  0  0
    1.9177    0.2254    5.2878 H   0  0  0  0  0  0  0  0  0  0  0  0
    3.5825    0.0205    3.9787 C   0  0  2  0  0  3  0  0  0  0  0  0
    4.9191    0.2893    4.2283 C   0  0  0  0  0  0  0  0  0  0  0  0
    5.1924    1.0713    4.9199 H   0  0  0  0  0  0  0  0  0  0  0  0
    5.8902   -0.4543    3.5734 C   0  0  0  0  0  0  0  0  0  0  0  0
    6.9373   -0.2625    3.7513 H   0  0  0  0  0  0  0  0  0  0  0  0
    5.4932   -1.4193    2.6660 C   0  0  0  0  0  0  0  0  0  0  0  0
    6.2156   -1.9804    2.0943 H   0  0  0  0  0  0  0  0  0  0  0  0
    4.1346   -1.6519    2.4673 C   0  0  0  0  0  0  0  0  0  0  0  0
    3.6548   -2.6269    1.4598 C   0  0  0  0  0  0  0  0  0  0  0  0
    3.8381   -3.9986    1.6787 C   0  0  0  0  0  0  0  0  0  0  0  0
    3.3655   -4.8962    0.7343 C   0  0  0  0  0  0  0  0  0  0  0  0
    3.4878   -5.9549    0.9071 H   0  0  0  0  0  0  0  0  0  0  0  0
    2.7126   -4.4543   -0.4019 C   0  0  0  0  0  0  0  0  0  0  0  0
    2.3332   -5.1671   -1.1184 H   0  0  0  0  0  0  0  0  0  0  0  0
    2.5355   -3.1014   -0.6140 C   0  0  0  0  0  0  0  0  0  0  0  0
    2.0208   -2.7535   -1.4978 H   0  0  0  0  0  0  0  0  0  0  0  0
    3.0004   -2.1680    0.3066 C   0  0  0  0  0  0  0  0  0  0  0  0
    4.4250   -4.5012    2.9616 C   0  0  0  0  0  0  0  0  0  0  0  0
    3.6826   -4.3700    3.7499 H   0  0  0  0  0  0  0  0  0  0  0  0
    5.3241   -3.9594    3.2471 H   0  0  0  0  0  0  0  0  0  0  0  0
    4.6588   -5.5597    2.8855 H   0  0  0  0  0  0  0  0  0  0  0  0
    2.8250   -0.7004   -0.0136 C   0  0  0  0  0  0  0  0  0  0  0  0
    3.0667   -0.5275   -1.0621 H   0  0  0  0  0  0  0  0  0  0  0  0
    3.4690   -0.0598    0.5936 H   0  0  0  0  0  0  0  0  0  0  0  0
    1.7720   -0.4024    0.1286 H   0  0  0  0  0  0  0  0  0  0  0  0
   -0.2488    1.4563    4.1366 C   0  0  0  0  0  0  0  0  0  0  0  0
   -0.7568    2.7311    4.3521 C   0  0  0  0  0  0  0  0  0  0  0  0
   -0.2780    3.5903    3.9035 H   0  0  0  0  0  0  0  0  0  0  0  0
   -1.8837    2.8930    5.1398 C   0  0  0  0  0  0  0  0  0  0  0  0
   -2.2828    3.8831    5.3049 H   0  0  0  0  0  0  0  0  0  0  0  0
   -2.5003    1.7925    5.7112 C   0  0  0  0  0  0  0  0  0  0  0  0
   -3.3837    1.9261    6.3179 H   0  0  0  0  0  0  0  0  0  0  0  0
   -1.9909    0.5195    5.5018 C   0  0  0  0  0  0  0  0  0  0  0  0
   -2.4768   -0.3378    5.9426 H   0  0  0  0  0  0  0  0  0  0  0  0
   -0.8674    0.3476    4.7166 C   0  0  0  0  0  0  0  0  0  0  0  0
   -0.4741   -0.6577    4.5263 H   0  0  0  0  0  0  0  0  0  0  0  0
    1.7033    2.6346    2.3457 C   0  0  0  0  0  0  0  0  0  0  0  0
    2.9568    3.2255    2.4610 C   0  0  0  0  0  0  0  0  0  0  0  0
    3.7030    2.8019    3.1181 H   0  0  0  0  0  0  0  0  0  0  0  0
    3.2509    4.3627    1.7285 C   0  0  0  0  0  0  0  0  0  0  0  0
    4.2218    4.8260    1.8266 H   0  0  0  0  0  0  0  0  0  0  0  0
    2.3085    4.9049    0.8706 C   0  0  0  0  0  0  0  0  0  0  0  0
    2.5442    5.7932    0.3040 H   0  0  0  0  0  0  0  0  0  0  0  0
    1.0682    4.2999    0.7283 C   0  0  0  0  0  0  0  0  0  0  0  0
    0.3395    4.7132    0.0471 H   0  0  0  0  0  0  0  0  0  0  0  0
    0.7696    3.1632    1.4527 C   0  0  0  0  0  0  0  0  0  0  0  0
   -0.1851    2.6648    1.3399 H   0  0  0  0  0  0  0  0  0  0  0  0
  1  2  1  0  0  0  0
  1  5  1  0  0  0  0
  1  4  1  0  0  0  0
  3  1  1  0  0  0  0
  4 34  1  0  0  0  0
  4  6  1  0  0  0  0
  5  9  1  0  0  0  0
  6  7  1  0  0  0  0
  6  8  1  0  0  0  0
  9 10  1  6  0  0  0
  9  6  1  0  0  0  0
 10 11  1  0  0  0  0
 12 13  1  0  0  0  0
 12 10  2  0  0  0  0
 14 12  1  0  0  0  0
 15 14  1  0  0  0  0
 16 14  2  0  0  0  0
 16  5  1  0  0  0  0
 17 18  1  0  0  0  0
 17 16  1  0  0  0  0
 18 26  1  0  0  0  0
 19 20  1  0  0  0  0
 19 18  2  0  0  0  0
 21 19  1  0  0  0  0
 22 21  1  0  0  0  0
 23 21  2  0  0  0  0
 23 25  1  0  0  0  0
 24 23  1  0  0  0  0
 25 17  2  0  0  0  0
 26 28  1  0  0  0  0
 26 27  1  0  0  0  0
 29 26  1  0  0  0  0
 30 33  1  0  0  0  0
 30 25  1  0  0  0  0
 30 32  1  0  0  0  0
 31 30  1  0  0  0  0
 34 35  2  0  0  0  0
 34 43  1  0  0  0  0
 35 37  1  0  0  0  0
 36 35  1  0  0  0  0
 37 38  1  0  0  0  0
 37 39  2  0  0  0  0
 39 40  1  0  0  0  0
 41 39  1  0  0  0  0
 41 42  1  0  0  0  0
 43 41  2  0  0  0  0
 44 43  1  0  0  0  0
 45 46  1  0  0  0  0
 45  4  1  0  0  0  0
 46 47  1  0  0  0  0
 48 49  1  0  0  0  0
 48 46  2  0  0  0  0
 50 48  1  0  0  0  0
 51 50  1  0  0  0  0
 52 50  2  0  0  0  0
 52 54  1  0  0  0  0
 53 52  1  0  0  0  0
 54 45  2  0  0  0  0
 55 54  1  0  0  0  0
M  END
$$$$
