CSD_code = YEFREH | q = 0 | S = 0 | Stoichiometry = C27H27ClNPPd | MND = 4
 OpenBabel04212202123D

 58 62  0  0  1  0  0  0  0  0999 V2000
    0.9718    3.5206    1.8761 Pd  0  0  1  0  0  0  0  0  0  0  0  0
    2.9264    2.4377    1.6394 Cl  0  0  0  0  0  0  0  0  0  0  0  0
   -1.1720    3.7822    2.5487 P   0  0  0  0  0  4  0  0  0  0  0  0
    1.2849    4.1874    4.0202 N   0  0  0  0  0  0  0  0  0  0  0  0
   -0.9066    3.2793    4.3295 C   0  0  0  0  0  0  0  0  0  0  0  0
   -1.8058    3.3879    4.9415 H   0  0  0  0  0  0  0  0  0  0  0  0
   -0.6371    2.2154    4.2744 H   0  0  0  0  0  0  0  0  0  0  0  0
    0.2582    4.0513    4.8610 C   0  0  2  0  0  3  0  0  0  0  0  0
    0.2712    4.6293    6.1227 C   0  0  0  0  0  0  0  0  0  0  0  0
   -0.5661    4.4963    6.7913 H   0  0  0  0  0  0  0  0  0  0  0  0
    1.3742    5.3798    6.5025 C   0  0  0  0  0  0  0  0  0  0  0  0
    1.4089    5.8423    7.4780 H   0  0  0  0  0  0  0  0  0  0  0  0
    2.4146    5.5447    5.6073 C   0  0  0  0  0  0  0  0  0  0  0  0
    3.2716    6.1534    5.8507 H   0  0  0  0  0  0  0  0  0  0  0  0
    2.3382    4.9270    4.3594 C   0  0  0  0  0  0  0  0  0  0  0  0
    3.3977    5.1107    3.3399 C   0  0  0  0  0  0  0  0  0  0  0  0
    4.6407    4.4925    3.5065 C   0  0  0  0  0  0  0  0  0  0  0  0
    5.6164    4.6810    2.5400 C   0  0  0  0  0  0  0  0  0  0  0  0
    6.5733    4.1936    2.6539 H   0  0  0  0  0  0  0  0  0  0  0  0
    5.3674    5.4587    1.4246 C   0  0  0  0  0  0  0  0  0  0  0  0
    6.1327    5.5861    0.6735 H   0  0  0  0  0  0  0  0  0  0  0  0
    4.1346    6.0608    1.2627 C   0  0  0  0  0  0  0  0  0  0  0  0
    3.9364    6.6597    0.3851 H   0  0  0  0  0  0  0  0  0  0  0  0
    3.1335    5.8957    2.2113 C   0  0  0  0  0  0  0  0  0  0  0  0
    4.8845    3.5615    4.6549 C   0  0  0  0  0  0  0  0  0  0  0  0
    5.9392    3.3084    4.7258 H   0  0  0  0  0  0  0  0  0  0  0  0
    4.3235    2.6422    4.4829 H   0  0  0  0  0  0  0  0  0  0  0  0
    4.5577    3.9851    5.6029 H   0  0  0  0  0  0  0  0  0  0  0  0
    1.8023    6.5742    2.0120 C   0  0  0  0  0  0  0  0  0  0  0  0
    1.9160    7.4416    1.3648 H   0  0  0  0  0  0  0  0  0  0  0  0
    1.3693    6.8979    2.9595 H   0  0  0  0  0  0  0  0  0  0  0  0
    1.0930    5.8782    1.5203 H   0  0  0  0  0  0  0  0  0  0  0  0
   -2.3058    5.1974    2.6440 C   0  0  0  0  0  0  0  0  0  0  0  0
   -3.0200    5.5250    1.4915 C   0  0  0  0  0  0  0  0  0  0  0  0
   -2.9314    4.8888    0.6202 H   0  0  0  0  0  0  0  0  0  0  0  0
   -3.8321    6.6414    1.4665 C   0  0  0  0  0  0  0  0  0  0  0  0
   -4.3930    6.8808    0.5752 H   0  0  0  0  0  0  0  0  0  0  0  0
   -3.9217    7.4578    2.5839 C   0  0  0  0  0  0  0  0  0  0  0  0
   -4.5557    8.3316    2.5657 H   0  0  0  0  0  0  0  0  0  0  0  0
   -3.1876    7.1584    3.7191 C   0  0  0  0  0  0  0  0  0  0  0  0
   -3.2451    7.8023    4.5847 H   0  0  0  0  0  0  0  0  0  0  0  0
   -2.3763    6.0377    3.7504 C   0  0  0  0  0  0  0  0  0  0  0  0
   -1.7970    5.8200    4.6364 H   0  0  0  0  0  0  0  0  0  0  0  0
   -2.2119    2.3797    2.0363 C   0  0  0  0  0  0  0  0  0  0  0  0
   -3.6004    2.3629    2.0710 C   0  0  0  0  0  0  0  0  0  0  0  0
   -4.1471    3.2429    2.3798 H   0  0  0  0  0  0  0  0  0  0  0  0
   -4.2805    1.2147    1.7027 C   0  0  0  0  0  0  0  0  0  0  0  0
   -5.3605    1.2025    1.7246 H   0  0  0  0  0  0  0  0  0  0  0  0
   -3.5826    0.0848    1.3093 C   0  0  0  0  0  0  0  0  0  0  0  0
   -4.1206   -0.8059    1.0204 H   0  0  0  0  0  0  0  0  0  0  0  0
   -2.1960    0.0954    1.2852 C   0  0  0  0  0  0  0  0  0  0  0  0
   -1.6531   -0.7865    0.9798 H   0  0  0  0  0  0  0  0  0  0  0  0
   -1.5103    1.2395    1.6463 C   0  0  0  0  0  0  0  0  0  0  0  0
   -0.4156    1.2693    1.6224 H   0  0  0  0  0  0  0  0  0  0  0  0
    0.6788    3.2472   -0.1310 C   0  0  0  0  0  0  0  0  0  0  0  0
    0.9773    2.2482   -0.4575 H   0  0  0  0  0  0  0  0  0  0  0  0
    1.3375    3.9834   -0.6121 H   0  0  0  0  0  0  0  0  0  0  0  0
   -0.3605    3.4302   -0.4296 H   0  0  0  0  0  0  0  0  0  0  0  0
  1  2  1  1  0  0  0
  1  3  1  0  0  0  0
  1  4  1  0  0  0  0
  3 33  1  0  0  0  0
  3  5  1  0  0  0  0
  4 15  1  0  0  0  0
  4  8  1  0  0  0  0
  5  8  1  0  0  0  0
  5  6  1  0  0  0  0
  7  5  1  0  0  0  0
  8  9  1  6  0  0  0
  9 11  2  0  0  0  0
  9 10  1  0  0  0  0
 11 12  1  0  0  0  0
 13 14  1  0  0  0  0
 13 11  1  0  0  0  0
 15 13  2  0  0  0  0
 16 17  1  0  0  0  0
 16 15  1  0  0  0  0
 17 25  1  0  0  0  0
 18 19  1  0  0  0  0
 18 17  2  0  0  0  0
 20 18  1  0  0  0  0
 21 20  1  0  0  0  0
 22 20  2  0  0  0  0
 22 24  1  0  0  0  0
 23 22  1  0  0  0  0
 24 16  2  0  0  0  0
 25 26  1  0  0  0  0
 25 28  1  0  0  0  0
 27 25  1  0  0  0  0
 29 24  1  0  0  0  0
 29 31  1  0  0  0  0
 30 29  1  0  0  0  0
 32 29  1  0  0  0  0
 33 42  1  0  0  0  0
 34 33  2  0  0  0  0
 35 34  1  0  0  0  0
 36 34  1  0  0  0  0
 36 38  2  0  0  0  0
 37 36  1  0  0  0  0
 38 40  1  0  0  0  0
 39 38  1  0  0  0  0
 40 42  2  0  0  0  0
 40 41  1  0  0  0  0
 42 43  1  0  0  0  0
 44 45  1  0  0  0  0
 44  3  1  0  0  0  0
 45 46  1  0  0  0  0
 47 48  1  0  0  0  0
 47 45  2  0  0  0  0
 49 47  1  0  0  0  0
 50 49  1  0  0  0  0
 51 49  2  0  0  0  0
 51 53  1  0  0  0  0
 52 51  1  0  0  0  0
 53 44  2  0  0  0  0
 54 53  1  0  0  0  0
 55  1  1  0  0  0  0
 56 55  1  0  0  0  0
 57 55  1  0  0  0  0
 58 55  1  0  0  0  0
M  END
$$$$
