CSD_code = YEFXUF | q = 0 | S = 0 | Stoichiometry = C20H20I3LaN4 | MND = 7
 OpenBabel04212202123D

 48 51  0  0  0  0  0  0  0  0999 V2000
    2.0025   11.1605   10.7390 La  0  0  0  0  0  0  0  0  0  0  0  0
    0.5783   13.7722   11.3010 I   0  0  0  0  0  0  0  0  0  0  0  0
    3.9028    8.9237    9.9970 I   0  0  0  0  0  0  0  0  0  0  0  0
   -0.2395    9.3657   11.7177 I   0  0  0  0  0  0  0  0  0  0  0  0
    0.5696   10.7450    8.4537 N   0  0  0  0  0  0  0  0  0  0  0  0
    2.6090   10.9135   13.3889 N   0  0  0  0  0  0  0  0  0  0  0  0
    4.3345   12.5878   11.4231 N   0  0  0  0  0  0  0  0  0  0  0  0
    3.1308   12.5108    8.5443 N   0  0  0  0  0  0  0  0  0  0  0  0
   -0.3489   11.6311    8.0688 C   0  0  0  0  0  3  0  0  0  0  0  0
   -0.1923   12.6568    8.3816 H   0  0  0  0  0  0  0  0  0  0  0  0
   -1.4605   11.2976    7.3147 C   0  0  0  0  0  0  0  0  0  0  0  0
   -2.1786   12.0568    7.0488 H   0  0  0  0  0  0  0  0  0  0  0  0
   -1.6327    9.9775    6.9313 C   0  0  0  0  0  0  0  0  0  0  0  0
   -2.4959    9.6773    6.3565 H   0  0  0  0  0  0  0  0  0  0  0  0
   -0.6729    9.0516    7.3061 C   0  0  0  0  0  0  0  0  0  0  0  0
   -0.7597    8.0123    7.0332 H   0  0  0  0  0  0  0  0  0  0  0  0
    0.4025    9.4794    8.0648 C   0  0  0  0  0  0  0  0  0  0  0  0
    1.1587    8.7690    8.3794 H   0  0  0  0  0  0  0  0  0  0  0  0
    1.6653   11.2645   14.2646 C   0  0  0  0  0  3  0  0  0  0  0  0
    0.9137   11.9644   13.9173 H   0  0  0  0  0  0  0  0  0  0  0  0
    1.6076   10.7759   15.5581 C   0  0  0  0  0  0  0  0  0  0  0  0
    0.8131   11.0881   16.2165 H   0  0  0  0  0  0  0  0  0  0  0  0
    2.5726    9.8722   15.9715 C   0  0  0  0  0  0  0  0  0  0  0  0
    2.5501    9.4559   16.9674 H   0  0  0  0  0  0  0  0  0  0  0  0
    3.5659    9.5123   15.0752 C   0  0  0  0  0  0  0  0  0  0  0  0
    4.3397    8.8122   15.3473 H   0  0  0  0  0  0  0  0  0  0  0  0
    3.5429   10.0576   13.8033 C   0  0  0  0  0  0  0  0  0  0  0  0
    4.3076    9.7904   13.0836 H   0  0  0  0  0  0  0  0  0  0  0  0
    4.2886   13.5801   12.3104 C   0  0  0  0  0  3  0  0  0  0  0  0
    3.3282   13.7767   12.7697 H   0  0  0  0  0  0  0  0  0  0  0  0
    5.3890   14.3476   12.6526 C   0  0  0  0  0  0  0  0  0  0  0  0
    5.2894   15.1400   13.3773 H   0  0  0  0  0  0  0  0  0  0  0  0
    6.6048   14.0764   12.0463 C   0  0  0  0  0  0  0  0  0  0  0  0
    7.4846   14.6543   12.2869 H   0  0  0  0  0  0  0  0  0  0  0  0
    6.6635   13.0436   11.1249 C   0  0  0  0  0  0  0  0  0  0  0  0
    7.5859   12.7885   10.6276 H   0  0  0  0  0  0  0  0  0  0  0  0
    5.5084   12.3318   10.8490 C   0  0  0  0  0  0  0  0  0  0  0  0
    5.5337   11.5168   10.1368 H   0  0  0  0  0  0  0  0  0  0  0  0
    3.5979   11.8338    7.4967 C   0  0  0  0  0  3  0  0  0  0  0  0
    3.4586   10.7603    7.5108 H   0  0  0  0  0  0  0  0  0  0  0  0
    4.2386   12.4338    6.4258 C   0  0  0  0  0  0  0  0  0  0  0  0
    4.5985   11.8318    5.6066 H   0  0  0  0  0  0  0  0  0  0  0  0
    4.4057   13.8090    6.4352 C   0  0  0  0  0  0  0  0  0  0  0  0
    4.9022   14.3120    5.6188 H   0  0  0  0  0  0  0  0  0  0  0  0
    3.9172   14.5227    7.5173 C   0  0  0  0  0  0  0  0  0  0  0  0
    4.0162   15.5953    7.5714 H   0  0  0  0  0  0  0  0  0  0  0  0
    3.2902   13.8328    8.5411 C   0  0  0  0  0  0  0  0  0  0  0  0
    2.8960   14.3721    9.3930 H   0  0  0  0  0  0  0  0  0  0  0  0
  1  2  1  0  0  0  0
  1  7  1  0  0  0  0
  1  4  1  0  0  0  0
  1  6  1  0  0  0  0
  3  1  1  0  0  0  0
  5  1  1  0  0  0  0
  6 27  1  0  0  0  0
  6 19  1  0  0  0  0
  7 29  1  0  0  0  0
  8  1  1  0  0  0  0
  9 10  1  0  0  0  0
  9  5  1  0  0  0  0
 11  9  1  0  0  0  0
 12 11  1  0  0  0  0
 13 15  1  0  0  0  0
 13 11  2  0  0  0  0
 14 13  1  0  0  0  0
 15 17  2  0  0  0  0
 16 15  1  0  0  0  0
 17 18  1  0  0  0  0
 17  5  1  0  0  0  0
 19 21  1  0  0  0  0
 20 19  1  0  0  0  0
 21 23  2  0  0  0  0
 21 22  1  0  0  0  0
 23 24  1  0  0  0  0
 25 26  1  0  0  0  0
 25 23  1  0  0  0  0
 27 25  2  0  0  0  0
 28 27  1  0  0  0  0
 29 31  1  0  0  0  0
 29 30  1  0  0  0  0
 31 32  1  0  0  0  0
 33 34  1  0  0  0  0
 33 31  2  0  0  0  0
 35 33  1  0  0  0  0
 36 35  1  0  0  0  0
 37 35  2  0  0  0  0
 37  7  1  0  0  0  0
 38 37  1  0  0  0  0
 39 40  1  0  0  0  0
 39  8  1  0  0  0  0
 41 43  2  0  0  0  0
 41 39  1  0  0  0  0
 42 41  1  0  0  0  0
 43 45  1  0  0  0  0
 44 43  1  0  0  0  0
 45 46  1  0  0  0  0
 45 47  2  0  0  0  0
 47  8  1  0  0  0  0
 47 48  1  0  0  0  0
M  END
$$$$
