CSD_code = YEFYEQ | q = -1 | S = 0 | Stoichiometry = C8H16I4LaO2(1-) | MND = 6
 OpenBabel04212202123D

 31 30  0  0  0  0  0  0  0  0999 V2000
    4.3082   -0.0012   14.3760 La  0  0  0  0  0  0  0  0  0  0  0  0
    4.4083    0.0766   11.3240 I   0  0  0  0  0  0  0  0  0  0  0  0
    4.2236   -3.0521   14.2869 I   0  0  0  0  0  0  0  0  0  0  0  0
    1.6038    0.0258   14.8387 O   0  0  0  0  0  0  0  0  0  0  0  0
    0.9315   -1.1835   15.2329 C   0  0  0  0  0  0  0  0  0  0  0  0
    1.5788   -1.7444   15.9197 H   0  0  0  0  0  0  0  0  0  0  0  0
    0.7548   -1.7888   14.3387 H   0  0  0  0  0  0  0  0  0  0  0  0
   -0.3516   -0.7626   15.9411 C   0  0  0  0  0  0  0  0  0  0  0  0
   -0.6652   -1.4971   16.6788 H   0  0  0  0  0  0  0  0  0  0  0  0
   -1.1569   -0.6125   15.2195 H   0  0  0  0  0  0  0  0  0  0  0  0
    0.0684    0.5694   16.5554 C   0  0  0  0  0  0  0  0  0  0  0  0
   -0.7679    1.2205   16.7984 H   0  0  0  0  0  0  0  0  0  0  0  0
    0.6666    0.3995   17.4512 H   0  0  0  0  0  0  0  0  0  0  0  0
    0.9426    1.1443   15.4483 C   0  0  0  0  0  0  0  0  0  0  0  0
    0.3359    1.6503   14.6845 H   0  0  0  0  0  0  0  0  0  0  0  0
    1.6932    1.8455   15.8226 H   0  0  0  0  0  0  0  0  0  0  0  0
    4.1927   -0.0784   17.4275 I   0  0  0  0  0  0  0  0  0  0  0  0
    4.3937    3.0499   14.4635 I   0  0  0  0  0  0  0  0  0  0  0  0
    7.0123   -0.0275   13.9003 O   0  0  0  0  0  0  0  0  0  0  0  0
    7.6804    1.1824   13.5014 C   0  0  0  0  0  0  0  0  0  0  0  0
    7.0260    1.7449   12.8228 H   0  0  0  0  0  0  0  0  0  0  0  0
    7.8669    1.7857   14.3950 H   0  0  0  0  0  0  0  0  0  0  0  0
    8.9555    0.7628   12.7781 C   0  0  0  0  0  0  0  0  0  0  0  0
    9.2621    1.4998   12.0399 H   0  0  0  0  0  0  0  0  0  0  0  0
    9.7682    0.6089   13.4905 H   0  0  0  0  0  0  0  0  0  0  0  0
    8.5270   -0.5663   12.1636 C   0  0  0  0  0  0  0  0  0  0  0  0
    9.3596   -1.2174   11.9081 H   0  0  0  0  0  0  0  0  0  0  0  0
    7.9183   -0.3923   11.2755 H   0  0  0  0  0  0  0  0  0  0  0  0
    7.6651   -1.1445   13.2786 C   0  0  0  0  0  0  0  0  0  0  0  0
    8.2801   -1.6541   14.0334 H   0  0  0  0  0  0  0  0  0  0  0  0
    6.9096   -1.8436   12.9104 H   0  0  0  0  0  0  0  0  0  0  0  0
  1 18  1  0  0  0  0
  1 17  1  0  0  0  0
  2  1  1  0  0  0  0
  3  1  1  0  0  0  0
  4  5  1  0  0  0  0
  4 14  1  0  0  0  0
  5  6  1  0  0  0  0
  5  8  1  0  0  0  0
  7  5  1  0  0  0  0
  8 11  1  0  0  0  0
  8  9  1  0  0  0  0
 10  8  1  0  0  0  0
 11 12  1  0  0  0  0
 11 13  1  0  0  0  0
 14 16  1  0  0  0  0
 14 11  1  0  0  0  0
 15 14  1  0  0  0  0
 20 19  1  0  0  0  0
 20 22  1  0  0  0  0
 21 20  1  0  0  0  0
 23 25  1  0  0  0  0
 23 20  1  0  0  0  0
 24 23  1  0  0  0  0
 26 23  1  0  0  0  0
 26 29  1  0  0  0  0
 27 26  1  0  0  0  0
 28 26  1  0  0  0  0
 29 19  1  0  0  0  0
 29 30  1  0  0  0  0
 31 29  1  0  0  0  0
M  END
$$$$
