CSD_code = YEHMEF | q = 0 | S = 0 | Stoichiometry = C28H27Cl2N2OPZn | MND = 4
 OpenBabel04212202123D

 62 66  0  0  0  0  0  0  0  0999 V2000
    6.9837    1.7190    8.6343 C   0  0  0  0  0  0  0  0  0  0  0  0
    7.6418    1.0051    8.1552 H   0  0  0  0  0  0  0  0  0  0  0  0
    6.4843    3.2509   10.4071 C   0  0  0  0  0  0  0  0  0  0  0  0
    6.7673    3.7377   11.3282 H   0  0  0  0  0  0  0  0  0  0  0  0
    5.7545    2.0066    8.0491 C   0  0  0  0  0  0  0  0  0  0  0  0
    4.8928    2.9232    8.6397 C   0  0  0  0  0  0  0  0  0  0  0  0
    3.9384    3.1445    8.1838 H   0  0  0  0  0  0  0  0  0  0  0  0
    7.3443    2.3378    9.8160 C   0  0  0  0  0  0  0  0  0  0  0  0
    8.2945    2.1117   10.2757 H   0  0  0  0  0  0  0  0  0  0  0  0
    5.2632    3.5419    9.8203 C   0  0  0  0  0  0  0  0  0  0  0  0
    4.5978    4.2554   10.2829 H   0  0  0  0  0  0  0  0  0  0  0  0
    7.2618    1.5066    2.5647 Zn  0  0  0  0  0  0  0  0  0  0  0  0
    5.1000    1.2764    2.0571 Cl  0  0  0  0  0  0  0  0  0  0  0  0
    9.0463    0.8632    1.4806 Cl  0  0  0  0  0  0  0  0  0  0  0  0
    5.4263    1.2400    6.4327 P   0  0  0  0  0  4  0  0  0  0  0  0
    7.2227    1.1551    4.5640 N   0  0  0  0  0  0  0  0  0  0  0  0
    0.9259    0.9726    5.6751 C   0  0  0  0  0  0  0  0  0  0  0  0
   -0.1344    0.8745    5.4954 H   0  0  0  0  0  0  0  0  0  0  0  0
    7.1142   -0.0889    5.0261 C   0  0  0  0  0  0  0  0  0  0  0  0
    1.4336    0.7202    6.9412 C   0  0  0  0  0  0  0  0  0  0  0  0
    0.7726    0.4219    7.7416 H   0  0  0  0  0  0  0  0  0  0  0  0
    3.6333    1.2337    6.1396 C   0  0  0  0  0  0  0  0  0  0  0  0
    3.1335    1.4590    4.8616 C   0  0  0  0  0  0  0  0  0  0  0  0
    3.8009    1.7092    4.0464 H   0  0  0  0  0  0  0  0  0  0  0  0
    7.3510    3.6606    1.9968 O   0  0  0  0  0  0  0  0  0  0  0  0
    1.7729    1.3348    4.6398 C   0  0  0  0  0  0  0  0  0  0  0  0
    1.3806    1.5125    3.6506 H   0  0  0  0  0  0  0  0  0  0  0  0
    2.7898    0.8435    7.1772 C   0  0  0  0  0  0  0  0  0  0  0  0
    3.2015    0.6423    8.1581 H   0  0  0  0  0  0  0  0  0  0  0  0
    6.2229   -0.2973    6.1209 C   0  0  0  0  0  0  0  0  0  0  0  0
    6.7571   -2.6140    6.2060 C   0  0  0  0  0  0  0  0  0  0  0  0
    6.6399   -3.5963    6.6363 H   0  0  0  0  0  0  0  0  0  0  0  0
    7.8269   -1.2032    4.5456 C   0  0  0  0  0  0  0  0  0  0  0  0
    8.5008   -1.0710    3.7129 H   0  0  0  0  0  0  0  0  0  0  0  0
    6.3463    2.0037    5.2772 N   0  0  0  0  0  0  0  0  0  0  0  0
    6.5332    3.3838    5.2246 C   0  0  0  0  0  0  0  0  0  0  0  0
    7.7626    3.9332    4.8705 C   0  0  0  0  0  0  0  0  0  0  0  0
    8.5880    3.2798    4.6336 H   0  0  0  0  0  0  0  0  0  0  0  0
    7.9134    5.3070    4.8464 C   0  0  0  0  0  0  0  0  0  0  0  0
    8.8686    5.7318    4.5746 H   0  0  0  0  0  0  0  0  0  0  0  0
    6.8574    6.1391    5.1821 C   0  0  0  0  0  0  0  0  0  0  0  0
    6.9833    7.2111    5.1628 H   0  0  0  0  0  0  0  0  0  0  0  0
    6.0346   -1.5539    6.6951 C   0  0  0  0  0  0  0  0  0  0  0  0
    5.3366   -1.6749    7.5118 H   0  0  0  0  0  0  0  0  0  0  0  0
    5.4734    4.2187    5.5678 C   0  0  0  0  0  0  0  0  0  0  0  0
    4.5184    3.7781    5.8229 H   0  0  0  0  0  0  0  0  0  0  0  0
    6.2116    4.4746    1.7108 C   0  0  0  0  0  0  0  0  0  0  0  0
    5.9488    5.0323    2.6200 H   0  0  0  0  0  0  0  0  0  0  0  0
    5.3804    3.8219    1.4411 H   0  0  0  0  0  0  0  0  0  0  0  0
    7.6428   -2.4266    5.1334 C   0  0  0  0  0  0  0  0  0  0  0  0
    8.1916   -3.2778    4.7584 H   0  0  0  0  0  0  0  0  0  0  0  0
    8.1142    5.6300    0.9334 C   0  0  0  0  0  0  0  0  0  0  0  0
    8.7072    5.9631    0.0853 H   0  0  0  0  0  0  0  0  0  0  0  0
    8.2129    6.3517    1.7457 H   0  0  0  0  0  0  0  0  0  0  0  0
    8.5195    4.2377    1.4047 C   0  0  0  0  0  0  0  0  0  0  0  0
    8.8378    3.6088    0.5665 H   0  0  0  0  0  0  0  0  0  0  0  0
    9.3143    4.2455    2.1541 H   0  0  0  0  0  0  0  0  0  0  0  0
    5.6383    5.5897    5.5470 C   0  0  0  0  0  0  0  0  0  0  0  0
    4.8105    6.2321    5.8085 H   0  0  0  0  0  0  0  0  0  0  0  0
    6.6409    5.4192    0.5950 C   0  0  0  0  0  0  0  0  0  0  0  0
    6.5423    4.9300   -0.3742 H   0  0  0  0  0  0  0  0  0  0  0  0
    6.0631    6.3402    0.5915 H   0  0  0  0  0  0  0  0  0  0  0  0
  1  8  1  0  0  0  0
  2  1  1  0  0  0  0
  3  4  1  0  0  0  0
  5  1  2  0  0  0  0
  5  6  1  0  0  0  0
  6 10  2  0  0  0  0
  7  6  1  0  0  0  0
  8  9  1  0  0  0  0
  8  3  2  0  0  0  0
 10 11  1  0  0  0  0
 10  3  1  0  0  0  0
 12 16  1  0  0  0  0
 13 12  1  0  0  0  0
 14 12  1  0  0  0  0
 15  5  1  0  0  0  0
 16 19  1  0  0  0  0
 16 35  1  0  0  0  0
 17 20  1  0  0  0  0
 18 17  1  0  0  0  0
 19 30  1  0  0  0  0
 20 28  2  0  0  0  0
 20 21  1  0  0  0  0
 22 15  1  0  0  0  0
 22 28  1  0  0  0  0
 23 22  2  0  0  0  0
 24 23  1  0  0  0  0
 26 23  1  0  0  0  0
 26 17  2  0  0  0  0
 27 26  1  0  0  0  0
 28 29  1  0  0  0  0
 30 15  1  0  0  0  0
 30 43  2  0  0  0  0
 31 32  1  0  0  0  0
 31 43  1  0  0  0  0
 33 19  2  0  0  0  0
 33 50  1  0  0  0  0
 34 33  1  0  0  0  0
 35 15  1  0  0  0  0
 36 35  1  0  0  0  0
 36 45  1  0  0  0  0
 37 36  2  0  0  0  0
 38 37  1  0  0  0  0
 39 37  1  0  0  0  0
 39 41  2  0  0  0  0
 40 39  1  0  0  0  0
 41 58  1  0  0  0  0
 42 41  1  0  0  0  0
 43 44  1  0  0  0  0
 45 46  1  0  0  0  0
 47 25  1  0  0  0  0
 47 48  1  0  0  0  0
 49 47  1  0  0  0  0
 50 31  2  0  0  0  0
 51 50  1  0  0  0  0
 52 55  1  0  0  0  0
 52 54  1  0  0  0  0
 53 52  1  0  0  0  0
 55 25  1  0  0  0  0
 55 57  1  0  0  0  0
 56 55  1  0  0  0  0
 58 45  2  0  0  0  0
 58 59  1  0  0  0  0
 60 52  1  0  0  0  0
 60 47  1  0  0  0  0
 61 60  1  0  0  0  0
 62 60  1  0  0  0  0
M  END
$$$$
