CSD_code = YEHVUF | q = 0 | S = 0 | Stoichiometry = C24H24Cl2N4O2Pd | MND = 4
 OpenBabel04212202123D

 57 60  0  0  1  0  0  0  0  0999 V2000
    9.0920    4.9505    8.5547 Pd  0  0  0  0  0  0  0  0  0  0  0  0
   10.8201    3.6458    9.3629 Cl  0  0  0  0  0  0  0  0  0  0  0  0
    6.9056    8.2013   10.4595 O   0  0  0  0  0  0  0  0  0  0  0  0
    9.0072    7.5924    9.8629 N   0  0  0  0  0  0  0  0  0  0  0  0
    9.8269    6.6937    9.2662 N   0  0  0  0  0  0  0  0  0  0  0  0
    8.9816   10.0268   10.5042 C   0  0  0  0  0  0  0  0  0  0  0  0
    8.1391   10.3483    9.8941 H   0  0  0  0  0  0  0  0  0  0  0  0
    9.7178   10.8249   10.5549 H   0  0  0  0  0  0  0  0  0  0  0  0
    8.5964    9.8219   11.5018 H   0  0  0  0  0  0  0  0  0  0  0  0
   10.9468    7.3255    8.9592 C   0  0  1  0  0  3  0  0  0  0  0  0
    9.6053    8.8199    9.9172 C   0  0  0  0  0  0  0  0  0  0  0  0
    7.7112    7.3088   10.3709 C   0  0  0  0  0  0  0  0  0  0  0  0
    8.1994    3.9103   11.9939 C   0  0  0  0  0  0  0  0  0  0  0  0
    8.9966    3.2559   12.3133 H   0  0  0  0  0  0  0  0  0  0  0  0
    8.5163    5.1119   11.3769 C   0  0  0  0  0  0  0  0  0  0  0  0
    9.5586    5.4134   11.3309 H   0  0  0  0  0  0  0  0  0  0  0  0
   10.8519    8.6689    9.3662 C   0  0  0  0  0  0  0  0  0  0  0  0
   11.6049    9.4217    9.2557 H   0  0  0  0  0  0  0  0  0  0  0  0
    5.8574    4.4256   11.8482 C   0  0  0  0  0  0  0  0  0  0  0  0
    4.8281    4.1707   12.0521 H   0  0  0  0  0  0  0  0  0  0  0  0
   12.1182    6.6699    8.3307 C   0  0  0  0  0  0  0  0  0  0  0  0
   11.9170    5.6111    8.1714 H   0  0  0  0  0  0  0  0  0  0  0  0
   12.9848    6.7698    8.9834 H   0  0  0  0  0  0  0  0  0  0  0  0
   12.3513    7.1452    7.3798 H   0  0  0  0  0  0  0  0  0  0  0  0
    6.8769    3.5645   12.2247 C   0  0  0  0  0  0  0  0  0  0  0  0
    6.6434    2.6319   12.7173 H   0  0  0  0  0  0  0  0  0  0  0  0
    7.4853    5.9623   10.9486 C   0  0  0  0  0  0  0  0  0  0  0  0
    6.1576    5.6113   11.2054 C   0  0  0  0  0  0  0  0  0  0  0  0
    5.3792    6.2896   10.8900 H   0  0  0  0  0  0  0  0  0  0  0  0
    7.3637    6.2558    7.7449 Cl  0  0  0  0  0  0  0  0  0  0  0  0
   11.2780    1.6999    6.6486 O   0  0  0  0  0  0  0  0  0  0  0  0
    9.1765    2.3088    7.2459 N   0  0  0  0  0  0  0  0  0  0  0  0
    8.3571    3.2073    7.8432 N   0  0  0  0  0  0  0  0  0  0  0  0
    9.2019   -0.1255    6.6041 C   0  0  0  0  0  0  0  0  0  0  0  0
   10.0448   -0.4473    7.2135 H   0  0  0  0  0  0  0  0  0  0  0  0
    8.4656   -0.9236    6.5538 H   0  0  0  0  0  0  0  0  0  0  0  0
    9.5862    0.0796    5.6063 H   0  0  0  0  0  0  0  0  0  0  0  0
    7.2376    2.5752    8.1513 C   0  0  2  0  0  3  0  0  0  0  0  0
    8.5786    1.0811    7.1920 C   0  0  0  0  0  0  0  0  0  0  0  0
   10.4724    2.5924    6.7375 C   0  0  0  0  0  0  0  0  0  0  0  0
    9.9853    5.9925    5.1177 C   0  0  0  0  0  0  0  0  0  0  0  0
    9.1883    6.6473    4.7987 H   0  0  0  0  0  0  0  0  0  0  0  0
    9.6679    4.7906    5.7340 C   0  0  0  0  0  0  0  0  0  0  0  0
    8.6257    4.4890    5.7790 H   0  0  0  0  0  0  0  0  0  0  0  0
    7.3325    1.2319    7.7440 C   0  0  0  0  0  0  0  0  0  0  0  0
    6.5796    0.4790    7.8549 H   0  0  0  0  0  0  0  0  0  0  0  0
   12.3271    5.4765    5.2631 C   0  0  0  0  0  0  0  0  0  0  0  0
   13.3565    5.7312    5.0595 H   0  0  0  0  0  0  0  0  0  0  0  0
    6.0668    3.2302    8.7812 C   0  0  0  0  0  0  0  0  0  0  0  0
    6.2656    4.2896    8.9364 H   0  0  0  0  0  0  0  0  0  0  0  0
    5.1985    3.1261    8.1325 H   0  0  0  0  0  0  0  0  0  0  0  0
    5.8381    2.7582    9.7342 H   0  0  0  0  0  0  0  0  0  0  0  0
   11.3078    6.3380    4.8871 C   0  0  0  0  0  0  0  0  0  0  0  0
   11.5417    7.2712    4.3958 H   0  0  0  0  0  0  0  0  0  0  0  0
   10.6988    3.9396    6.1615 C   0  0  0  0  0  0  0  0  0  0  0  0
   12.0266    4.2903    5.9051 C   0  0  0  0  0  0  0  0  0  0  0  0
   12.8047    3.6114    6.2196 H   0  0  0  0  0  0  0  0  0  0  0  0
  1  5  1  0  0  0  0
  1  2  1  0  0  0  0
  4 11  1  0  0  0  0
  4 12  1  0  0  0  0
  5  4  1  0  0  0  0
  6  8  1  0  0  0  0
  6  9  1  0  0  0  0
  7  6  1  0  0  0  0
 10 21  1  1  0  0  0
 10  5  1  0  0  0  0
 10 17  1  0  0  0  0
 11  6  1  0  0  0  0
 12  3  2  0  0  0  0
 12 27  1  0  0  0  0
 13 25  1  0  0  0  0
 13 14  1  0  0  0  0
 15 13  2  0  0  0  0
 16 15  1  0  0  0  0
 17 11  2  0  0  0  0
 18 17  1  0  0  0  0
 19 20  1  0  0  0  0
 19 25  2  0  0  0  0
 21 23  1  0  0  0  0
 22 21  1  0  0  0  0
 24 21  1  0  0  0  0
 25 26  1  0  0  0  0
 27 28  2  0  0  0  0
 27 15  1  0  0  0  0
 28 19  1  0  0  0  0
 29 28  1  0  0  0  0
 30  1  1  0  0  0  0
 31 40  2  0  0  0  0
 32 33  1  0  0  0  0
 33 38  1  0  0  0  0
 33  1  1  0  0  0  0
 34 39  1  0  0  0  0
 34 35  1  0  0  0  0
 36 34  1  0  0  0  0
 37 34  1  0  0  0  0
 38 49  1  6  0  0  0
 39 32  1  0  0  0  0
 39 45  2  0  0  0  0
 40 32  1  0  0  0  0
 41 43  1  0  0  0  0
 42 41  1  0  0  0  0
 43 44  1  0  0  0  0
 43 55  2  0  0  0  0
 45 46  1  0  0  0  0
 45 38  1  0  0  0  0
 47 56  2  0  0  0  0
 48 47  1  0  0  0  0
 49 50  1  0  0  0  0
 49 52  1  0  0  0  0
 51 49  1  0  0  0  0
 53 41  2  0  0  0  0
 53 47  1  0  0  0  0
 54 53  1  0  0  0  0
 55 40  1  0  0  0  0
 56 55  1  0  0  0  0
 56 57  1  0  0  0  0
M  END
$$$$
