CSD_code = YEHVOX | q = 0 | S = 0 | Stoichiometry = C22H28Cl2N2Pd | MND = 4
 OpenBabel04212202123D

 55 57  0  0  0  0  0  0  0  0999 V2000
   12.2480    5.4608    7.1625 C   0  0  0  0  0  0  0  0  0  0  0  0
   12.7256    4.4733    7.1945 H   0  0  0  0  0  0  0  0  0  0  0  0
   12.8765    6.1401    6.5718 H   0  0  0  0  0  0  0  0  0  0  0  0
   12.0772    5.9814    8.5947 C   0  0  0  0  0  0  0  0  0  0  0  0
   11.7310    7.0218    8.5548 H   0  0  0  0  0  0  0  0  0  0  0  0
   13.0290    5.9496    9.1406 H   0  0  0  0  0  0  0  0  0  0  0  0
   11.1228    4.9264   10.4983 C   0  0  0  0  0  3  0  0  0  0  0  0
   10.3280    4.2939   10.8944 H   0  0  0  0  0  0  0  0  0  0  0  0
   12.1631    5.3796   11.4326 C   0  0  0  0  0  0  0  0  0  0  0  0
   12.2884    6.7207   11.7981 C   0  0  0  0  0  0  0  0  0  0  0  0
   13.2856    7.0810   12.6956 C   0  0  0  0  0  0  0  0  0  0  0  0
   13.3795    8.1196   12.9793 H   0  0  0  0  0  0  0  0  0  0  0  0
   14.1509    6.1438   13.2355 C   0  0  0  0  0  0  0  0  0  0  0  0
   13.9944    4.8091   12.8770 C   0  0  0  0  0  0  0  0  0  0  0  0
   14.6541    4.0667   13.3027 H   0  0  0  0  0  0  0  0  0  0  0  0
   13.0085    4.4112   11.9927 C   0  0  0  0  0  0  0  0  0  0  0  0
   11.3472    7.7705   11.2846 C   0  0  0  0  0  0  0  0  0  0  0  0
   10.4768    7.3294   10.8035 H   0  0  0  0  0  0  0  0  0  0  0  0
   11.8543    8.4236   10.5733 H   0  0  0  0  0  0  0  0  0  0  0  0
   11.0032    8.3922   12.1092 H   0  0  0  0  0  0  0  0  0  0  0  0
   15.2152    6.5441   14.2097 C   0  0  0  0  0  0  0  0  0  0  0  0
   15.3855    7.6174   14.1829 H   0  0  0  0  0  0  0  0  0  0  0  0
   16.1500    6.0318   13.9912 H   0  0  0  0  0  0  0  0  0  0  0  0
   14.9143    6.2709   15.2211 H   0  0  0  0  0  0  0  0  0  0  0  0
   12.8446    2.9727   11.6086 C   0  0  0  0  0  0  0  0  0  0  0  0
   13.6062    2.3577   12.0810 H   0  0  0  0  0  0  0  0  0  0  0  0
   12.9141    2.8460   10.5285 H   0  0  0  0  0  0  0  0  0  0  0  0
   11.8645    2.6094   11.9167 H   0  0  0  0  0  0  0  0  0  0  0  0
   10.6978    5.6179    5.3666 C   0  0  0  0  0  3  0  0  0  0  0  0
    9.6692    5.4917    5.0291 H   0  0  0  0  0  0  0  0  0  0  0  0
   11.6731    6.1352    4.3944 C   0  0  0  0  0  0  0  0  0  0  0  0
   11.5252    7.4590    3.9573 C   0  0  0  0  0  0  0  0  0  0  0  0
   12.4211    7.9663    3.0345 C   0  0  0  0  0  0  0  0  0  0  0  0
   12.3167    8.9892    2.7019 H   0  0  0  0  0  0  0  0  0  0  0  0
   13.4505    7.1853    2.5189 C   0  0  0  0  0  0  0  0  0  0  0  0
   13.5642    5.8724    2.9446 C   0  0  0  0  0  0  0  0  0  0  0  0
   14.3473    5.2462    2.5414 H   0  0  0  0  0  0  0  0  0  0  0  0
   12.6888    5.3304    3.8777 C   0  0  0  0  0  0  0  0  0  0  0  0
   10.4163    8.3018    4.5093 C   0  0  0  0  0  0  0  0  0  0  0  0
   10.4800    9.3194    4.1324 H   0  0  0  0  0  0  0  0  0  0  0  0
   10.4506    8.3297    5.5982 H   0  0  0  0  0  0  0  0  0  0  0  0
    9.4501    7.8863    4.2240 H   0  0  0  0  0  0  0  0  0  0  0  0
   14.3959    7.7607    1.5101 C   0  0  0  0  0  0  0  0  0  0  0  0
   15.2003    7.0649    1.2866 H   0  0  0  0  0  0  0  0  0  0  0  0
   14.8272    8.6905    1.8776 H   0  0  0  0  0  0  0  0  0  0  0  0
   13.8652    7.9843    0.5850 H   0  0  0  0  0  0  0  0  0  0  0  0
   12.8314    3.8912    4.2769 C   0  0  0  0  0  0  0  0  0  0  0  0
   11.9385    3.5239    4.7781 H   0  0  0  0  0  0  0  0  0  0  0  0
   13.6869    3.7631    4.9415 H   0  0  0  0  0  0  0  0  0  0  0  0
   13.0077    3.2778    3.3955 H   0  0  0  0  0  0  0  0  0  0  0  0
   10.9288    5.3084    6.5795 N   0  0  0  0  0  0  0  0  0  0  0  0
   11.0593    5.1838    9.2527 N   0  0  0  0  0  0  0  0  0  0  0  0
    8.1311    4.0599    6.4011 Cl  0  0  0  0  0  0  0  0  0  0  0  0
    8.2930    3.8508    9.5521 Cl  0  0  0  0  0  0  0  0  0  0  0  0
    9.6254    4.6120    7.9466 Pd  0  0  0  0  0  0  0  0  0  0  0  0
  1  2  1  0  0  0  0
  1  4  1  0  0  0  0
  3  1  1  0  0  0  0
  4  6  1  0  0  0  0
  4 52  1  0  0  0  0
  5  4  1  0  0  0  0
  7  8  1  0  0  0  0
  7  9  1  0  0  0  0
  9 10  2  0  0  0  0
  9 16  1  0  0  0  0
 10 11  1  0  0  0  0
 11 12  1  0  0  0  0
 11 13  2  0  0  0  0
 13 21  1  0  0  0  0
 14 13  1  0  0  0  0
 14 15  1  0  0  0  0
 16 14  2  0  0  0  0
 17 10  1  0  0  0  0
 17 20  1  0  0  0  0
 18 17  1  0  0  0  0
 19 17  1  0  0  0  0
 21 24  1  0  0  0  0
 22 21  1  0  0  0  0
 23 21  1  0  0  0  0
 25 28  1  0  0  0  0
 25 16  1  0  0  0  0
 25 26  1  0  0  0  0
 27 25  1  0  0  0  0
 29 51  1  0  0  0  0
 30 29  1  0  0  0  0
 31 29  1  0  0  0  0
 32 31  1  0  0  0  0
 32 39  1  0  0  0  0
 33 32  2  0  0  0  0
 34 33  1  0  0  0  0
 35 36  2  0  0  0  0
 35 33  1  0  0  0  0
 36 38  1  0  0  0  0
 37 36  1  0  0  0  0
 38 47  1  0  0  0  0
 38 31  2  0  0  0  0
 39 41  1  0  0  0  0
 40 39  1  0  0  0  0
 42 39  1  0  0  0  0
 43 45  1  0  0  0  0
 43 35  1  0  0  0  0
 44 43  1  0  0  0  0
 46 43  1  0  0  0  0
 47 48  1  0  0  0  0
 47 49  1  0  0  0  0
 50 47  1  0  0  0  0
 51  1  1  0  0  0  0
 51 55  1  0  0  0  0
 52  7  1  0  0  0  0
 53 55  1  0  0  0  0
 55 52  1  0  0  0  0
 55 54  1  0  0  0  0
M  END
$$$$
