CSD_code = YEJBAS | q = 1 | S = 0 | Stoichiometry = C16H17ClN5OZn(1+) | MND = 5
 OpenBabel04212202123D

 41 45  0  0  1  0  0  0  0  0999 V2000
    2.7098    1.9566    3.7535 Zn  0  0  2  0  0  0  0  0  0  0  0  0
    4.2789    3.4129    3.5860 Cl  0  0  0  0  0  0  0  0  0  0  0  0
    4.1500    0.6756    4.9435 O   0  0  0  0  0  0  0  0  0  0  0  0
    1.1378    2.0872    4.9807 N   0  0  0  0  0  0  0  0  0  0  0  0
   -1.0180    2.1804    7.8331 C   0  0  0  0  0  0  0  0  0  0  0  0
   -2.0353    2.4820    8.0233 H   0  0  0  0  0  0  0  0  0  0  0  0
   -0.9474    2.7038    5.3541 N   0  0  0  0  0  0  0  0  0  0  0  0
   -0.2073    1.6884    8.8362 C   0  0  0  0  0  0  0  0  0  0  0  0
   -0.6006    1.6040    9.8369 H   0  0  0  0  0  0  0  0  0  0  0  0
    2.3539    0.7976    2.1282 N   0  0  0  0  0  0  0  0  0  0  0  0
    1.1118    1.2949    8.5912 C   0  0  0  0  0  0  0  0  0  0  0  0
    1.7007    0.9155    9.4113 H   0  0  0  0  0  0  0  0  0  0  0  0
    1.9107    0.6811   -0.0318 N   0  0  0  0  0  0  0  0  0  0  0  0
    1.6749    1.3802    7.3353 C   0  0  0  0  0  0  0  0  0  0  0  0
    2.6888    1.0746    7.1357 H   0  0  0  0  0  0  0  0  0  0  0  0
    1.2678    3.2555    2.5036 N   0  0  2  0  0  4  0  0  0  0  0  0
    0.8733    1.8781    6.3155 C   0  0  0  0  0  0  0  0  0  0  0  0
   -0.4567    2.2689    6.5685 C   0  0  0  0  0  0  0  0  0  0  0  0
    0.0403    2.5743    4.4473 C   0  0  2  0  0  3  0  0  0  0  0  0
   -0.0619    2.9104    2.9948 C   0  0  0  0  0  0  0  0  0  0  0  0
   -0.4091    2.0168    2.4626 H   0  0  0  0  0  0  0  0  0  0  0  0
   -0.7990    3.7096    2.8375 H   0  0  0  0  0  0  0  0  0  0  0  0
    1.5430    2.8960    1.1208 C   0  0  0  0  0  0  0  0  0  0  0  0
    2.3923    3.4953    0.7758 H   0  0  0  0  0  0  0  0  0  0  0  0
    0.6936    3.0867    0.4482 H   0  0  0  0  0  0  0  0  0  0  0  0
    1.9351    1.4559    1.0707 C   0  0  2  0  0  3  0  0  0  0  0  0
    2.3502   -0.5747    0.3323 C   0  0  0  0  0  0  0  0  0  0  0  0
    2.6178   -0.4896    1.7134 C   0  0  0  0  0  0  0  0  0  0  0  0
    3.0489   -1.6056    2.4208 C   0  0  0  0  0  0  0  0  0  0  0  0
    3.2172   -1.5541    3.4846 H   0  0  0  0  0  0  0  0  0  0  0  0
    3.2225   -2.7747    1.7099 C   0  0  0  0  0  0  0  0  0  0  0  0
    3.5566   -3.6623    2.2238 H   0  0  0  0  0  0  0  0  0  0  0  0
    2.9736   -2.8456    0.3364 C   0  0  0  0  0  0  0  0  0  0  0  0
    3.1277   -3.7822   -0.1753 H   0  0  0  0  0  0  0  0  0  0  0  0
    2.5279   -1.7517   -0.3781 C   0  0  0  0  0  0  0  0  0  0  0  0
    2.3264   -1.8097   -1.4355 H   0  0  0  0  0  0  0  0  0  0  0  0
    1.4534    4.2420    2.6558 H   0  0  0  0  0  0  0  0  0  0  0  0
    1.6582    0.9705   -0.9636 H   0  0  0  0  0  0  0  0  0  0  0  0
    4.7764    1.3551    5.2306 H   0  0  0  0  0  0  0  0  0  0  0  0
   -1.8767    3.0562    5.1868 H   0  0  0  0  0  0  0  0  0  0  0  0
    4.6735    0.0179    4.4717 H   0  0  0  0  0  0  0  0  0  0  0  0
  1  2  1  1  0  0  0
  1  4  1  0  0  0  0
  3 39  1  0  0  0  0
  4 17  1  0  0  0  0
  5  6  1  0  0  0  0
  5  8  1  0  0  0  0
  7 18  1  0  0  0  0
  8  9  1  0  0  0  0
 10  1  1  0  0  0  0
 11  8  2  0  0  0  0
 11 12  1  0  0  0  0
 13 27  1  0  0  0  0
 14 11  1  0  0  0  0
 15 14  1  0  0  0  0
 16 37  1  1  0  0  0
 16 20  1  0  0  0  0
 16  1  1  0  0  0  0
 17 18  1  0  0  0  0
 17 14  2  0  0  0  0
 18  5  2  0  0  0  0
 19 20  1  6  0  0  0
 19  4  1  0  0  0  0
 19  7  1  0  0  0  0
 21 20  1  0  0  0  0
 22 20  1  0  0  0  0
 23 16  1  0  0  0  0
 24 23  1  0  0  0  0
 25 23  1  0  0  0  0
 26 13  1  6  0  0  0
 26 23  1  0  0  0  0
 26 10  1  0  0  0  0
 27 28  1  0  0  0  0
 28 10  1  0  0  0  0
 28 29  2  0  0  0  0
 29 30  1  0  0  0  0
 31 32  1  0  0  0  0
 31 29  1  0  0  0  0
 33 31  2  0  0  0  0
 34 33  1  0  0  0  0
 35 27  2  0  0  0  0
 35 33  1  0  0  0  0
 36 35  1  0  0  0  0
 38 13  1  0  0  0  0
 40  7  1  0  0  0  0
 41  3  1  0  0  0  0
M  END
$$$$
