CSD_code = YEJBUK | q = 1 | S = 0 | Stoichiometry = C11H19ClN3Pd(1+) | MND = 4
 OpenBabel04212202123D

 35 37  0  0  1  0  0  0  0  0999 V2000
    2.0958    1.9812    2.7100 Pd  0  0  2  0  0  0  0  0  0  0  0  0
    1.9824    3.7448    1.3491 Cl  0  0  0  0  0  0  0  0  0  0  0  0
    0.4764    1.0913    1.9793 N   0  0  0  0  0  0  0  0  0  0  0  0
    2.1696    0.3087    3.9430 N   0  0  2  0  0  4  0  0  0  0  0  0
    3.8633    2.5740    3.5413 N   0  0  0  0  0  4  0  0  0  0  0  0
   -0.5349    1.6276    1.3020 C   0  0  0  0  0  3  0  0  0  0  0  0
   -1.6251    0.8748    0.8937 C   0  0  0  0  0  0  0  0  0  0  0  0
   -1.6640   -0.4736    1.2088 C   0  0  0  0  0  0  0  0  0  0  0  0
   -0.6113   -1.0252    1.9269 C   0  0  0  0  0  0  0  0  0  0  0  0
    0.4504   -0.2163    2.2972 C   0  0  0  0  0  0  0  0  0  0  0  0
    1.6570   -0.7409    3.0502 C   0  0  0  0  0  0  0  0  0  0  0  0
    1.3244    0.4112    5.1328 C   0  0  0  0  0  0  0  0  0  0  0  0
    3.5955    0.2017    4.2844 C   0  0  0  0  0  0  0  0  0  0  0  0
    4.1487    1.5956    4.6193 C   0  0  0  0  0  0  0  0  0  0  0  0
    4.8718    2.4814    2.4762 C   0  0  0  0  0  0  0  0  0  0  0  0
    3.8484    3.9363    4.0850 C   0  0  0  0  0  0  0  0  0  0  0  0
   -0.4586    2.6846    1.0746 H   0  0  0  0  0  0  0  0  0  0  0  0
   -2.4222    1.3417    0.3393 H   0  0  0  0  0  0  0  0  0  0  0  0
   -2.4967   -1.0884    0.9062 H   0  0  0  0  0  0  0  0  0  0  0  0
   -0.6125   -2.0707    2.1917 H   0  0  0  0  0  0  0  0  0  0  0  0
    1.4020   -1.6551    3.6032 H   0  0  0  0  0  0  0  0  0  0  0  0
    2.4303   -0.9931    2.3110 H   0  0  0  0  0  0  0  0  0  0  0  0
    1.5993    1.2840    5.7257 H   0  0  0  0  0  0  0  0  0  0  0  0
    1.4215   -0.4835    5.7593 H   0  0  0  0  0  0  0  0  0  0  0  0
    0.2790    0.5173    4.8376 H   0  0  0  0  0  0  0  0  0  0  0  0
    4.1328   -0.2097    3.4236 H   0  0  0  0  0  0  0  0  0  0  0  0
    3.7540   -0.4718    5.1374 H   0  0  0  0  0  0  0  0  0  0  0  0
    3.6856    1.9557    5.5421 H   0  0  0  0  0  0  0  0  0  0  0  0
    5.2301    1.5294    4.7951 H   0  0  0  0  0  0  0  0  0  0  0  0
    4.8689    1.4825    2.0272 H   0  0  0  0  0  0  0  0  0  0  0  0
    5.8724    2.6906    2.8702 H   0  0  0  0  0  0  0  0  0  0  0  0
    4.6398    3.2104    1.6973 H   0  0  0  0  0  0  0  0  0  0  0  0
    3.0373    4.0399    4.8106 H   0  0  0  0  0  0  0  0  0  0  0  0
    3.6738    4.6440    3.2742 H   0  0  0  0  0  0  0  0  0  0  0  0
    4.8007    4.1755    4.5695 H   0  0  0  0  0  0  0  0  0  0  0  0
  1  2  1  1  0  0  0
  1  5  1  0  0  0  0
  1  4  1  0  0  0  0
  3 10  1  0  0  0  0
  3  1  1  0  0  0  0
  4 13  1  0  0  0  0
  4 12  1  1  0  0  0
  5 16  1  0  0  0  0
  5 14  1  0  0  0  0
  6  3  1  0  0  0  0
  7  8  2  0  0  0  0
  7  6  1  0  0  0  0
  8  9  1  0  0  0  0
  9 20  1  0  0  0  0
  9 10  2  0  0  0  0
 10 11  1  0  0  0  0
 11 21  1  0  0  0  0
 11  4  1  0  0  0  0
 12 23  1  0  0  0  0
 12 24  1  0  0  0  0
 13 14  1  0  0  0  0
 13 27  1  0  0  0  0
 14 29  1  0  0  0  0
 14 28  1  0  0  0  0
 15 31  1  0  0  0  0
 15  5  1  0  0  0  0
 16 35  1  0  0  0  0
 16 33  1  0  0  0  0
 17  6  1  0  0  0  0
 18  7  1  0  0  0  0
 19  8  1  0  0  0  0
 22 11  1  0  0  0  0
 25 12  1  0  0  0  0
 26 13  1  0  0  0  0
 30 15  1  0  0  0  0
 32 15  1  0  0  0  0
 34 16  1  0  0  0  0
M  END
$$$$
