CSD_code = YEJMUW | q = 0 | S = 0 | Stoichiometry = C20H18ClN3PdS2 | MND = 4
 OpenBabel04212202123D

 45 49  0  0  0  0  0  0  0  0999 V2000
    3.6967    2.0109    3.5988 Pd  0  0  2  0  0  0  0  0  0  0  0  0
    2.8403    1.9360    5.6171 Cl  0  0  0  0  0  0  0  0  0  0  0  0
    4.7346   -0.1337    3.6023 S   0  0  0  0  0  0  0  0  0  0  0  0
    2.9153    4.1791    2.9987 S   0  0  0  0  0  0  0  0  0  0  0  0
    6.0836   -1.1008    1.5264 N   0  0  0  0  0  0  0  0  0  0  0  0
    4.4437    2.0794    1.8328 N   0  0  0  0  0  0  0  0  0  0  0  0
    3.4419    5.3223    0.6586 N   0  0  0  0  0  0  0  0  0  0  0  0
    5.1694    1.1002    1.2529 C   0  0  0  0  0  0  0  0  0  0  0  0
    5.5383    1.5242   -0.0480 C   0  0  0  0  0  0  0  0  0  0  0  0
    5.0083    2.7845   -0.2233 C   0  0  0  0  0  0  0  0  0  0  0  0
    4.3246    3.1135    0.9735 C   0  0  0  0  0  0  0  0  0  0  0  0
    5.3952   -0.0721    2.0307 C   0  0  0  0  0  0  0  0  0  0  0  0
    6.4754   -2.2822    2.2631 C   0  0  0  0  0  0  0  0  0  0  0  0
    7.9279   -2.2062    2.6660 C   0  0  0  0  0  0  0  0  0  0  0  0
    8.8715   -3.0531    2.1024 C   0  0  0  0  0  0  0  0  0  0  0  0
   10.2042   -2.9558    2.4649 C   0  0  0  0  0  0  0  0  0  0  0  0
   10.6043   -2.0033    3.3857 C   0  0  0  0  0  0  0  0  0  0  0  0
    9.6677   -1.1510    3.9474 C   0  0  0  0  0  0  0  0  0  0  0  0
    8.3355   -1.2518    3.5909 C   0  0  0  0  0  0  0  0  0  0  0  0
    3.5807    4.2395    1.4302 C   0  0  0  0  0  0  0  0  0  0  0  0
    2.5990    6.4579    0.9714 C   0  0  0  0  0  0  0  0  0  0  0  0
    1.2519    6.3103    0.3072 C   0  0  0  0  0  0  0  0  0  0  0  0
    1.0337    6.8272   -0.9632 C   0  0  0  0  0  0  0  0  0  0  0  0
   -0.1863    6.6485   -1.5916 C   0  0  0  0  0  0  0  0  0  0  0  0
   -1.1955    5.9448   -0.9568 C   0  0  0  0  0  0  0  0  0  0  0  0
   -0.9820    5.4228    0.3081 C   0  0  0  0  0  0  0  0  0  0  0  0
    0.2365    5.6029    0.9384 C   0  0  0  0  0  0  0  0  0  0  0  0
    6.5149   -0.9695    0.6223 H   0  0  0  0  0  0  0  0  0  0  0  0
    3.7719    5.2546   -0.2939 H   0  0  0  0  0  0  0  0  0  0  0  0
    6.1186    0.9706   -0.7613 H   0  0  0  0  0  0  0  0  0  0  0  0
    5.0977    3.3985   -1.0991 H   0  0  0  0  0  0  0  0  0  0  0  0
    6.3008   -3.1583    1.6323 H   0  0  0  0  0  0  0  0  0  0  0  0
    5.8370   -2.3413    3.1478 H   0  0  0  0  0  0  0  0  0  0  0  0
    8.5626   -3.7988    1.3832 H   0  0  0  0  0  0  0  0  0  0  0  0
   10.9302   -3.6239    2.0259 H   0  0  0  0  0  0  0  0  0  0  0  0
   11.6439   -1.9263    3.6669 H   0  0  0  0  0  0  0  0  0  0  0  0
    9.9753   -0.4081    4.6680 H   0  0  0  0  0  0  0  0  0  0  0  0
    7.6032   -0.5936    4.0344 H   0  0  0  0  0  0  0  0  0  0  0  0
    3.1036    7.3621    0.6203 H   0  0  0  0  0  0  0  0  0  0  0  0
    2.4902    6.4982    2.0566 H   0  0  0  0  0  0  0  0  0  0  0  0
    1.8191    7.3798   -1.4603 H   0  0  0  0  0  0  0  0  0  0  0  0
   -0.3486    7.0588   -2.5774 H   0  0  0  0  0  0  0  0  0  0  0  0
   -2.1472    5.8048   -1.4471 H   0  0  0  0  0  0  0  0  0  0  0  0
   -1.7668    4.8741    0.8065 H   0  0  0  0  0  0  0  0  0  0  0  0
    0.4037    5.1964    1.9243 H   0  0  0  0  0  0  0  0  0  0  0  0
  1  3  1  0  0  0  0
  1  2  1  6  0  0  0
  4  1  1  0  0  0  0
  5 12  1  0  0  0  0
  5 13  1  0  0  0  0
  6  1  1  0  0  0  0
  7 21  1  0  0  0  0
  7 20  1  0  0  0  0
  8  6  1  0  0  0  0
  8 12  2  0  0  0  0
  9  8  1  0  0  0  0
 10  9  2  0  0  0  0
 10 11  1  0  0  0  0
 11 20  2  0  0  0  0
 11  6  1  0  0  0  0
 12  3  1  0  0  0  0
 13 14  1  0  0  0  0
 13 33  1  0  0  0  0
 14 19  1  0  0  0  0
 15 16  1  0  0  0  0
 15 14  2  0  0  0  0
 16 17  2  0  0  0  0
 17 36  1  0  0  0  0
 17 18  1  0  0  0  0
 18 37  1  0  0  0  0
 19 18  2  0  0  0  0
 19 38  1  0  0  0  0
 20  4  1  0  0  0  0
 21 40  1  0  0  0  0
 22 27  1  0  0  0  0
 22 21  1  0  0  0  0
 23 22  2  0  0  0  0
 24 23  1  0  0  0  0
 24 25  2  0  0  0  0
 25 26  1  0  0  0  0
 26 44  1  0  0  0  0
 26 27  2  0  0  0  0
 27 45  1  0  0  0  0
 28  5  1  0  0  0  0
 29  7  1  0  0  0  0
 30  9  1  0  0  0  0
 31 10  1  0  0  0  0
 32 13  1  0  0  0  0
 34 15  1  0  0  0  0
 35 16  1  0  0  0  0
 39 21  1  0  0  0  0
 41 23  1  0  0  0  0
 42 24  1  0  0  0  0
 43 25  1  0  0  0  0
M  END
$$$$
