CSD_code = YEJNOR | q = -1 | S = 0 | Stoichiometry = C32H16Br2CoN8(1-) | MND = 6
 OpenBabel04212202123D

 59 70  0  0  0  0  0  0  0  0999 V2000
    9.6764    1.9689    4.9139 Br  0  0  0  0  0  0  0  0  0  0  0  0
   10.7060   -0.0002    3.8042 Co  0  0  0  0  0  0  0  0  0  0  0  0
   12.2250    0.1344    4.9766 N   0  0  0  0  0  4  0  0  0  0  0  0
   13.6384    1.5951    3.6966 N   0  0  0  0  0  0  0  0  0  0  0  0
   11.5751    1.1651    2.5446 N   0  0  0  0  0  0  0  0  0  0  0  0
    9.9079    1.2654    0.8184 N   0  0  0  0  0  0  0  0  0  0  0  0
   11.0663    1.5723    1.3510 C   0  0  0  0  0  0  0  0  0  0  0  0
   12.0093    2.4452    0.6843 C   0  0  0  0  0  0  0  0  0  0  0  0
   11.9782    3.1152   -0.5271 C   0  0  0  0  0  0  0  0  0  0  0  0
   13.0789    3.8847   -0.8601 C   0  0  0  0  0  0  0  0  0  0  0  0
   14.1792    3.9836   -0.0098 C   0  0  0  0  0  0  0  0  0  0  0  0
   14.2155    3.3158    1.2015 C   0  0  0  0  0  0  0  0  0  0  0  0
   13.1165    2.5442    1.5395 C   0  0  0  0  0  0  0  0  0  0  0  0
   12.8046    1.7268    2.6930 C   0  0  0  0  0  0  0  0  0  0  0  0
   13.3539    0.8553    4.7414 C   0  0  0  0  0  0  0  0  0  0  0  0
   14.2736    0.7082    5.8498 C   0  0  0  0  0  0  0  0  0  0  0  0
   15.5352    1.2206    6.1009 C   0  0  0  0  0  0  0  0  0  0  0  0
   16.1438    0.8651    7.2917 C   0  0  0  0  0  0  0  0  0  0  0  0
   15.5127    0.0230    8.2060 C   0  0  0  0  0  0  0  0  0  0  0  0
   14.2523   -0.4921    7.9596 C   0  0  0  0  0  0  0  0  0  0  0  0
   13.6390   -0.1397    6.7693 C   0  0  0  0  0  0  0  0  0  0  0  0
   12.3584   -0.4767    6.1841 C   0  0  0  0  0  0  0  0  0  0  0  0
   11.1220    3.0325   -1.1781 H   0  0  0  0  0  0  0  0  0  0  0  0
   13.0902    4.4226   -1.7982 H   0  0  0  0  0  0  0  0  0  0  0  0
   15.0193    4.5961   -0.3072 H   0  0  0  0  0  0  0  0  0  0  0  0
   15.0621    3.3860    1.8664 H   0  0  0  0  0  0  0  0  0  0  0  0
   16.0153    1.8715    5.3871 H   0  0  0  0  0  0  0  0  0  0  0  0
   17.1295    1.2457    7.5220 H   0  0  0  0  0  0  0  0  0  0  0  0
   16.0228   -0.2305    9.1252 H   0  0  0  0  0  0  0  0  0  0  0  0
   13.7557   -1.1445    8.6607 H   0  0  0  0  0  0  0  0  0  0  0  0
   11.7359   -1.9697    2.6954 Br  0  0  0  0  0  0  0  0  0  0  0  0
    9.1868   -0.1344    2.6322 N   0  0  0  0  0  4  0  0  0  0  0  0
    7.7735   -1.5950    3.9122 N   0  0  0  0  0  0  0  0  0  0  0  0
    9.8368   -1.1650    5.0642 N   0  0  0  0  0  0  0  0  0  0  0  0
   11.5040   -1.2653    6.7904 N   0  0  0  0  0  0  0  0  0  0  0  0
   10.3456   -1.5721    6.2578 C   0  0  0  0  0  0  0  0  0  0  0  0
    9.4026   -2.4452    6.9245 C   0  0  0  0  0  0  0  0  0  0  0  0
    9.4337   -3.1152    8.1359 C   0  0  0  0  0  0  0  0  0  0  0  0
    8.3331   -3.8848    8.4689 C   0  0  0  0  0  0  0  0  0  0  0  0
    7.2328   -3.9836    7.6185 C   0  0  0  0  0  0  0  0  0  0  0  0
    7.1964   -3.3158    6.4072 C   0  0  0  0  0  0  0  0  0  0  0  0
    8.2954   -2.5442    6.0693 C   0  0  0  0  0  0  0  0  0  0  0  0
    8.6073   -1.7267    4.9158 C   0  0  0  0  0  0  0  0  0  0  0  0
    8.0579   -0.8552    2.8675 C   0  0  0  0  0  0  0  0  0  0  0  0
    7.1382   -0.7081    1.7590 C   0  0  0  0  0  0  0  0  0  0  0  0
    5.8767   -1.2206    1.5078 C   0  0  0  0  0  0  0  0  0  0  0  0
    5.2681   -0.8651    0.3171 C   0  0  0  0  0  0  0  0  0  0  0  0
    5.8992   -0.0230   -0.5972 C   0  0  0  0  0  0  0  0  0  0  0  0
    7.1596    0.4921   -0.3509 C   0  0  0  0  0  0  0  0  0  0  0  0
    7.7728    0.1397    0.8395 C   0  0  0  0  0  0  0  0  0  0  0  0
    9.0534    0.4768    1.4247 C   0  0  0  0  0  0  0  0  0  0  0  0
   10.2899   -3.0325    8.7869 H   0  0  0  0  0  0  0  0  0  0  0  0
    8.3217   -4.4226    9.4070 H   0  0  0  0  0  0  0  0  0  0  0  0
    6.3926   -4.5961    7.9160 H   0  0  0  0  0  0  0  0  0  0  0  0
    6.3498   -3.3860    5.7424 H   0  0  0  0  0  0  0  0  0  0  0  0
    5.3966   -1.8714    2.2217 H   0  0  0  0  0  0  0  0  0  0  0  0
    4.2824   -1.2457    0.0868 H   0  0  0  0  0  0  0  0  0  0  0  0
    5.3891    0.2305   -1.5164 H   0  0  0  0  0  0  0  0  0  0  0  0
    7.6562    1.1446   -1.0519 H   0  0  0  0  0  0  0  0  0  0  0  0
  2  1  1  0  0  0  0
  2  3  1  0  0  0  0
  2 34  1  0  0  0  0
  3 22  1  0  0  0  0
  4 15  1  0  0  0  0
  5 14  1  0  0  0  0
  5  2  1  0  0  0  0
  6  7  2  0  0  0  0
  6 51  1  0  0  0  0
  7  5  1  0  0  0  0
  8  7  1  0  0  0  0
  8 13  2  0  0  0  0
  9  8  1  0  0  0  0
 10  9  2  0  0  0  0
 10 11  1  0  0  0  0
 11 12  2  0  0  0  0
 12 13  1  0  0  0  0
 12 26  1  0  0  0  0
 13 14  1  0  0  0  0
 14  4  2  0  0  0  0
 15  3  2  0  0  0  0
 15 16  1  0  0  0  0
 16 17  1  0  0  0  0
 16 21  2  0  0  0  0
 17 18  2  0  0  0  0
 18 28  1  0  0  0  0
 18 19  1  0  0  0  0
 19 29  1  0  0  0  0
 20 19  2  0  0  0  0
 20 30  1  0  0  0  0
 21 20  1  0  0  0  0
 22 21  1  0  0  0  0
 22 35  2  0  0  0  0
 23  9  1  0  0  0  0
 24 10  1  0  0  0  0
 25 11  1  0  0  0  0
 27 17  1  0  0  0  0
 31  2  1  0  0  0  0
 32 44  1  0  0  0  0
 32  2  1  0  0  0  0
 33 43  1  0  0  0  0
 34 36  1  0  0  0  0
 36 35  1  0  0  0  0
 36 37  2  0  0  0  0
 37 38  1  0  0  0  0
 38 39  2  0  0  0  0
 38 52  1  0  0  0  0
 39 53  1  0  0  0  0
 40 54  1  0  0  0  0
 40 39  1  0  0  0  0
 41 40  2  0  0  0  0
 42 41  1  0  0  0  0
 42 37  1  0  0  0  0
 43 34  1  0  0  0  0
 43 42  2  0  0  0  0
 44 33  2  0  0  0  0
 45 44  1  0  0  0  0
 46 45  1  0  0  0  0
 46 56  1  0  0  0  0
 47 46  2  0  0  0  0
 48 49  2  0  0  0  0
 48 47  1  0  0  0  0
 49 50  1  0  0  0  0
 50 51  1  0  0  0  0
 50 45  2  0  0  0  0
 51 32  2  0  0  0  0
 55 41  1  0  0  0  0
 57 47  1  0  0  0  0
 58 48  1  0  0  0  0
 59 49  1  0  0  0  0
M  END
$$$$
