CSD_code = YEJSIR | q = 0 | S = 0 | Stoichiometry = C27H26Br2NiP2 | MND = 4
 OpenBabel04212202123D

 58 62  0  0  0  0  0  0  0  0999 V2000
    7.0800    6.6324   11.0144 Ni  0  0  0  0  0  0  0  0  0  0  0  0
    8.6021    5.7482   12.4068 Br  0  0  0  0  0  0  0  0  0  0  0  0
    8.5337    7.9378    9.8799 Br  0  0  0  0  0  0  0  0  0  0  0  0
    5.5203    7.8949   10.1797 P   0  0  0  0  0  4  0  0  0  0  0  0
    5.6116    5.1136   11.4386 P   0  0  0  0  0  4  0  0  0  0  0  0
    3.7469    7.5075   10.5782 C   0  0  0  0  0  0  0  0  0  0  0  0
    3.1675    8.4202   10.4080 H   0  0  0  0  0  0  0  0  0  0  0  0
    3.3587    6.7284    9.9182 H   0  0  0  0  0  0  0  0  0  0  0  0
    3.6404    7.0612   12.0351 C   0  0  0  0  0  0  0  0  0  0  0  0
    4.3059    7.6788   12.6506 H   0  0  0  0  0  0  0  0  0  0  0  0
    2.6225    7.2222   12.4022 H   0  0  0  0  0  0  0  0  0  0  0  0
    4.0000    5.5880   12.2164 C   0  0  0  0  0  0  0  0  0  0  0  0
    3.2147    4.9505   11.8008 H   0  0  0  0  0  0  0  0  0  0  0  0
    4.0836    5.3586   13.2830 H   0  0  0  0  0  0  0  0  0  0  0  0
    5.6693    9.4523   11.1098 C   0  0  0  0  0  0  0  0  0  0  0  0
    6.4657    9.4613   12.2504 C   0  0  0  0  0  0  0  0  0  0  0  0
    7.0299    8.5676   12.5309 H   0  0  0  0  0  0  0  0  0  0  0  0
    6.5668   10.6041   13.0218 C   0  0  0  0  0  0  0  0  0  0  0  0
    7.1925   10.6061   13.9013 H   0  0  0  0  0  0  0  0  0  0  0  0
    5.8706   11.7432   12.6540 C   0  0  0  0  0  0  0  0  0  0  0  0
    5.9535   12.6408   13.2484 H   0  0  0  0  0  0  0  0  0  0  0  0
    5.0712   11.7377   11.5210 C   0  0  0  0  0  0  0  0  0  0  0  0
    4.5315   12.6291   11.2363 H   0  0  0  0  0  0  0  0  0  0  0  0
    4.9633   10.5956   10.7502 C   0  0  0  0  0  0  0  0  0  0  0  0
    4.3455   10.5919    9.8618 H   0  0  0  0  0  0  0  0  0  0  0  0
    5.4244    8.3797    8.4344 C   0  0  0  0  0  0  0  0  0  0  0  0
    6.1721    9.4600    7.9721 C   0  0  0  0  0  0  0  0  0  0  0  0
    6.7757   10.0321    8.6614 H   0  0  0  0  0  0  0  0  0  0  0  0
    6.1554    9.7877    6.6295 C   0  0  0  0  0  0  0  0  0  0  0  0
    6.7372   10.6266    6.2790 H   0  0  0  0  0  0  0  0  0  0  0  0
    5.4078    9.0370    5.7370 C   0  0  0  0  0  0  0  0  0  0  0  0
    5.4021    9.2903    4.6874 H   0  0  0  0  0  0  0  0  0  0  0  0
    4.6752    7.9527    6.1906 C   0  0  0  0  0  0  0  0  0  0  0  0
    4.0990    7.3572    5.4973 H   0  0  0  0  0  0  0  0  0  0  0  0
    4.6847    7.6201    7.5324 C   0  0  0  0  0  0  0  0  0  0  0  0
    4.1220    6.7607    7.8689 H   0  0  0  0  0  0  0  0  0  0  0  0
    5.9509    3.5591   12.3178 C   0  0  0  0  0  0  0  0  0  0  0  0
    6.2081    3.6340   13.6849 C   0  0  0  0  0  0  0  0  0  0  0  0
    6.1993    4.5945   14.1827 H   0  0  0  0  0  0  0  0  0  0  0  0
    6.5080    2.4900   14.3971 C   0  0  0  0  0  0  0  0  0  0  0  0
    6.7110    2.5536   15.4553 H   0  0  0  0  0  0  0  0  0  0  0  0
    6.5640    1.2663   13.7489 C   0  0  0  0  0  0  0  0  0  0  0  0
    6.8038    0.3721   14.3042 H   0  0  0  0  0  0  0  0  0  0  0  0
    6.3306    1.1919   12.3864 C   0  0  0  0  0  0  0  0  0  0  0  0
    6.3894    0.2412   11.8772 H   0  0  0  0  0  0  0  0  0  0  0  0
    6.0322    2.3349   11.6657 C   0  0  0  0  0  0  0  0  0  0  0  0
    5.8693    2.2728   10.5986 H   0  0  0  0  0  0  0  0  0  0  0  0
    5.2012    4.5658    9.7450 C   0  0  0  0  0  0  0  0  0  0  0  0
    6.1732    4.8076    8.7755 C   0  0  0  0  0  0  0  0  0  0  0  0
    7.1209    5.2729    9.0589 H   0  0  0  0  0  0  0  0  0  0  0  0
    5.9614    4.4509    7.4569 C   0  0  0  0  0  0  0  0  0  0  0  0
    6.7203    4.6507    6.7159 H   0  0  0  0  0  0  0  0  0  0  0  0
    4.7690    3.8463    7.0951 C   0  0  0  0  0  0  0  0  0  0  0  0
    4.5904    3.5745    6.0657 H   0  0  0  0  0  0  0  0  0  0  0  0
    4.0186    3.9326    9.3769 C   0  0  0  0  0  0  0  0  0  0  0  0
    3.2645    3.7031   10.1173 H   0  0  0  0  0  0  0  0  0  0  0  0
    3.8048    3.5822    8.0558 C   0  0  0  0  0  0  0  0  0  0  0  0
    2.8805    3.0982    7.7750 H   0  0  0  0  0  0  0  0  0  0  0  0
  1  5  1  0  0  0  0
  1  2  1  0  0  0  0
  3  1  1  0  0  0  0
  4  6  1  0  0  0  0
  4  1  1  0  0  0  0
  4 15  1  0  0  0  0
  5 12  1  0  0  0  0
  5 37  1  0  0  0  0
  6  9  1  0  0  0  0
  7  6  1  0  0  0  0
  8  6  1  0  0  0  0
  9 12  1  0  0  0  0
  9 11  1  0  0  0  0
  9 10  1  0  0  0  0
 12 14  1  0  0  0  0
 13 12  1  0  0  0  0
 15 16  1  0  0  0  0
 16 17  1  0  0  0  0
 16 18  2  0  0  0  0
 18 19  1  0  0  0  0
 20 18  1  0  0  0  0
 20 21  1  0  0  0  0
 22 20  2  0  0  0  0
 23 22  1  0  0  0  0
 24 15  2  0  0  0  0
 24 22  1  0  0  0  0
 25 24  1  0  0  0  0
 26  4  1  0  0  0  0
 27 26  1  0  0  0  0
 27 28  1  0  0  0  0
 29 27  2  0  0  0  0
 30 29  1  0  0  0  0
 31 33  2  0  0  0  0
 31 29  1  0  0  0  0
 32 31  1  0  0  0  0
 33 35  1  0  0  0  0
 34 33  1  0  0  0  0
 35 36  1  0  0  0  0
 35 26  2  0  0  0  0
 37 38  1  0  0  0  0
 38 39  1  0  0  0  0
 38 40  2  0  0  0  0
 40 41  1  0  0  0  0
 42 43  1  0  0  0  0
 42 40  1  0  0  0  0
 44 42  2  0  0  0  0
 45 44  1  0  0  0  0
 46 37  2  0  0  0  0
 46 44  1  0  0  0  0
 47 46  1  0  0  0  0
 48  5  1  0  0  0  0
 49 50  1  0  0  0  0
 49 48  2  0  0  0  0
 51 49  1  0  0  0  0
 52 51  1  0  0  0  0
 53 51  2  0  0  0  0
 53 57  1  0  0  0  0
 54 53  1  0  0  0  0
 55 48  1  0  0  0  0
 55 56  1  0  0  0  0
 57 55  2  0  0  0  0
 58 57  1  0  0  0  0
M  END
$$$$
