CSD_code = YEJXOB | q = 0 | S = 0 | Stoichiometry = C26H20Cl2N2W | MND = 4
 OpenBabel04212202123D

 51 56  0  0  0  0  0  0  0  0999 V2000
    3.9571   10.0318    5.3225 C   0  0  0  0  0  0  0  0  0  0  0  0
    3.2281   10.1631    6.5102 C   0  0  0  0  0  0  0  0  0  0  0  0
    3.9166   10.1383    7.7135 C   0  0  0  0  0  0  0  0  0  0  0  0
    3.3659   10.2460    8.6369 H   0  0  0  0  0  0  0  0  0  0  0  0
    5.2915    9.9770    7.7468 C   0  0  0  0  0  0  0  0  0  0  0  0
    5.8078    9.9594    8.6948 H   0  0  0  0  0  0  0  0  0  0  0  0
    6.0028    9.8420    6.5666 C   0  0  0  0  0  0  0  0  0  0  0  0
    7.0748    9.7166    6.5883 H   0  0  0  0  0  0  0  0  0  0  0  0
    5.3370    9.8671    5.3544 C   0  0  0  0  0  0  0  0  0  0  0  0
    5.8728    9.7663    4.4206 H   0  0  0  0  0  0  0  0  0  0  0  0
    1.7437   10.3414    6.4400 C   0  0  0  0  0  0  0  0  0  0  0  0
    1.3424   10.6550    7.3999 H   0  0  0  0  0  0  0  0  0  0  0  0
    1.2633    9.4072    6.1463 H   0  0  0  0  0  0  0  0  0  0  0  0
    1.5004   11.0929    5.6785 H   0  0  0  0  0  0  0  0  0  0  0  0
    3.6321   10.1469   -0.4601 C   0  0  0  0  0  0  0  0  0  0  0  0
    4.0898   10.3677   -1.4206 H   0  0  0  0  0  0  0  0  0  0  0  0
    3.8815    9.1231   -0.1786 H   0  0  0  0  0  0  0  0  0  0  0  0
    4.0497   10.8123    0.3058 H   0  0  0  0  0  0  0  0  0  0  0  0
    2.8680   11.6874    3.0017 W   0  0  0  0  0  0  0  0  0  0  0  0
    2.3881   13.1385    1.4302 Cl  0  0  0  0  0  0  0  0  0  0  0  0
    3.6783   12.9710    4.5830 Cl  0  0  0  0  0  0  0  0  0  0  0  0
    3.2739   10.0471    4.0758 N   0  0  0  0  0  0  0  0  0  0  0  0
    2.0887   10.1974    1.9148 N   0  0  0  0  0  0  0  0  0  0  0  0
    2.8629    8.8442    3.6075 C   0  0  0  0  0  0  0  0  0  0  0  0
    2.9200    7.4568    4.0272 C   0  0  0  0  0  0  0  0  0  0  0  0
    1.4402    4.8124    1.8549 C   0  0  0  0  0  0  0  0  0  0  0  0
    1.2822    3.7454    1.7940 H   0  0  0  0  0  0  0  0  0  0  0  0
    0.9982    5.6366    0.8489 C   0  0  0  0  0  0  0  0  0  0  0  0
    0.4913    5.2022   -0.0011 H   0  0  0  0  0  0  0  0  0  0  0  0
    1.8190    7.5967    1.9445 C   0  0  0  0  0  0  0  0  0  0  0  0
    1.1749    7.0333    0.8685 C   0  0  0  0  0  0  0  0  0  0  0  0
    0.8067    7.6325    0.0489 H   0  0  0  0  0  0  0  0  0  0  0  0
    2.2045    8.9278    2.3732 C   0  0  0  0  0  0  0  0  0  0  0  0
    2.2742    6.7376    2.9832 C   0  0  0  0  0  0  0  0  0  0  0  0
    2.1071    5.3561    2.9787 C   0  0  0  0  0  0  0  0  0  0  0  0
    2.6241    4.6619    4.0987 C   0  0  0  0  0  0  0  0  0  0  0  0
    2.5227    3.5877    4.1529 H   0  0  0  0  0  0  0  0  0  0  0  0
    1.4146   10.3546    0.6731 C   0  0  0  0  0  0  0  0  0  0  0  0
    2.1469   10.3229   -0.5194 C   0  0  0  0  0  0  0  0  0  0  0  0
    1.4643   10.4720   -1.7172 C   0  0  0  0  0  0  0  0  0  0  0  0
    2.0193   10.4570   -2.6442 H   0  0  0  0  0  0  0  0  0  0  0  0
    0.0898   10.6379   -1.7404 C   0  0  0  0  0  0  0  0  0  0  0  0
   -0.4219   10.7519   -2.6842 H   0  0  0  0  0  0  0  0  0  0  0  0
   -0.6260   10.6621   -0.5556 C   0  0  0  0  0  0  0  0  0  0  0  0
   -1.6977   10.7922   -0.5694 H   0  0  0  0  0  0  0  0  0  0  0  0
    0.0344   10.5183    0.6511 C   0  0  0  0  0  0  0  0  0  0  0  0
   -0.5043   10.5367    1.5886 H   0  0  0  0  0  0  0  0  0  0  0  0
    3.4105    6.7492    5.0990 C   0  0  0  0  0  0  0  0  0  0  0  0
    3.9105    7.2380    5.9220 H   0  0  0  0  0  0  0  0  0  0  0  0
    3.2493    5.3505    5.1095 C   0  0  0  0  0  0  0  0  0  0  0  0
    3.6371    4.8024    5.9564 H   0  0  0  0  0  0  0  0  0  0  0  0
  1  9  2  0  0  0  0
  1  2  1  0  0  0  0
  2  3  2  0  0  0  0
  3  5  1  0  0  0  0
  3  4  1  0  0  0  0
  5  6  1  0  0  0  0
  7  8  1  0  0  0  0
  7  5  2  0  0  0  0
  9  7  1  0  0  0  0
 10  9  1  0  0  0  0
 11  2  1  0  0  0  0
 11 12  1  0  0  0  0
 13 11  1  0  0  0  0
 14 11  1  0  0  0  0
 15 17  1  0  0  0  0
 15 18  1  0  0  0  0
 16 15  1  0  0  0  0
 19 22  1  0  0  0  0
 19 21  1  0  0  0  0
 20 19  1  0  0  0  0
 22  1  1  0  0  0  0
 23 33  1  0  0  0  0
 23 19  1  0  0  0  0
 24 25  1  0  0  0  0
 24 22  1  0  0  0  0
 25 48  1  0  0  0  0
 26 35  1  0  0  0  0
 27 26  1  0  0  0  0
 28 31  1  0  0  0  0
 28 26  2  0  0  0  0
 29 28  1  0  0  0  0
 30 33  1  0  0  0  0
 30 34  1  0  0  0  0
 31 30  2  0  0  0  0
 32 31  1  0  0  0  0
 33 24  2  0  0  0  0
 34 25  2  0  0  0  0
 35 34  1  0  0  0  0
 35 36  2  0  0  0  0
 36 37  1  0  0  0  0
 36 50  1  0  0  0  0
 38 23  1  0  0  0  0
 39 15  1  0  0  0  0
 39 38  2  0  0  0  0
 40 39  1  0  0  0  0
 41 40  1  0  0  0  0
 42 40  2  0  0  0  0
 42 44  1  0  0  0  0
 43 42  1  0  0  0  0
 44 46  2  0  0  0  0
 45 44  1  0  0  0  0
 46 38  1  0  0  0  0
 46 47  1  0  0  0  0
 48 50  2  0  0  0  0
 48 49  1  0  0  0  0
 50 51  1  0  0  0  0
M  END
$$$$
