CSD_code = YEJXUH | q = 0 | S = 0 | Stoichiometry = C22H28Cl2N2W | MND = 4
 OpenBabel04212202123D

 55 57  0  0  0  0  0  0  0  0999 V2000
   17.8628    4.6479   13.7672 C   0  0  0  0  0  0  0  0  0  0  0  0
   17.8958    5.6015   14.2877 H   0  0  0  0  0  0  0  0  0  0  0  0
   18.7032    4.5961   13.0767 H   0  0  0  0  0  0  0  0  0  0  0  0
   17.9855    3.8505   14.4997 H   0  0  0  0  0  0  0  0  0  0  0  0
   11.5227    2.8731   11.9965 W   0  0  0  0  0  0  0  0  0  0  0  0
   10.5325    3.9720   13.6910 Cl  0  0  0  0  0  0  0  0  0  0  0  0
   11.9577    0.6678   12.0290 Cl  0  0  0  0  0  0  0  0  0  0  0  0
   13.2288    6.2495   12.6382 C   0  0  0  0  0  0  0  0  0  0  0  0
   12.2670    5.7466   12.7763 H   0  0  0  0  0  0  0  0  0  0  0  0
   13.1589    6.8450   11.7280 H   0  0  0  0  0  0  0  0  0  0  0  0
   13.4080    6.9162   13.4767 H   0  0  0  0  0  0  0  0  0  0  0  0
   12.9134    3.9095   11.0596 N   0  0  0  0  0  0  0  0  0  0  0  0
   14.1504    4.1249   11.6844 C   0  0  0  0  0  0  0  0  0  0  0  0
   10.7162    3.3254   10.2645 N   0  0  0  0  0  0  0  0  0  0  0  0
   15.1924    3.2034   11.5029 C   0  0  0  0  0  0  0  0  0  0  0  0
    7.7681    1.3089    9.3517 C   0  0  0  0  0  0  0  0  0  0  0  0
    7.5448    0.3224    8.9703 H   0  0  0  0  0  0  0  0  0  0  0  0
   12.6611    4.4063    9.7976 C   0  0  0  0  0  0  0  0  0  0  0  0
   15.5355    5.3968   13.1777 C   0  0  0  0  0  0  0  0  0  0  0  0
   15.6724    6.2549   13.8207 H   0  0  0  0  0  0  0  0  0  0  0  0
    6.7313    2.1769    9.6544 C   0  0  0  0  0  0  0  0  0  0  0  0
   13.6687    5.2062    9.0322 C   0  0  0  0  0  0  0  0  0  0  0  0
   14.5821    5.3233    9.6088 H   0  0  0  0  0  0  0  0  0  0  0  0
   13.2710    6.1930    8.7973 H   0  0  0  0  0  0  0  0  0  0  0  0
   13.9069    4.7144    8.0897 H   0  0  0  0  0  0  0  0  0  0  0  0
   16.3810    3.3943   12.1863 C   0  0  0  0  0  0  0  0  0  0  0  0
   17.1848    2.6837   12.0546 H   0  0  0  0  0  0  0  0  0  0  0  0
    9.3888    2.9488   10.0201 C   0  0  0  0  0  0  0  0  0  0  0  0
    9.0965    1.6741    9.5223 C   0  0  0  0  0  0  0  0  0  0  0  0
   10.1963    0.7172    9.1711 C   0  0  0  0  0  0  0  0  0  0  0  0
   11.1643    1.2200    9.1567 H   0  0  0  0  0  0  0  0  0  0  0  0
   10.0108    0.2699    8.1964 H   0  0  0  0  0  0  0  0  0  0  0  0
   10.2418   -0.0873    9.9056 H   0  0  0  0  0  0  0  0  0  0  0  0
   16.5669    4.4807   13.0326 C   0  0  0  0  0  0  0  0  0  0  0  0
   14.3300    5.2419   12.5110 C   0  0  0  0  0  0  0  0  0  0  0  0
    8.3521    3.8511   10.3098 C   0  0  0  0  0  0  0  0  0  0  0  0
   11.4183    4.0817    9.3496 C   0  0  0  0  0  0  0  0  0  0  0  0
   10.8588    4.4533    8.0112 C   0  0  0  0  0  0  0  0  0  0  0  0
    9.8481    4.0702    7.9009 H   0  0  0  0  0  0  0  0  0  0  0  0
   11.4779    4.0402    7.2151 H   0  0  0  0  0  0  0  0  0  0  0  0
   10.8430    5.5360    7.8901 H   0  0  0  0  0  0  0  0  0  0  0  0
    7.0417    3.4465   10.1291 C   0  0  0  0  0  0  0  0  0  0  0  0
    6.2406    4.1343   10.3604 H   0  0  0  0  0  0  0  0  0  0  0  0
   15.0052    2.0537   10.5610 C   0  0  0  0  0  0  0  0  0  0  0  0
   14.0155    1.6075   10.6960 H   0  0  0  0  0  0  0  0  0  0  0  0
   15.7663    1.2949   10.7202 H   0  0  0  0  0  0  0  0  0  0  0  0
   15.0702    2.4009    9.5295 H   0  0  0  0  0  0  0  0  0  0  0  0
    5.2995    1.7717    9.4737 C   0  0  0  0  0  0  0  0  0  0  0  0
    5.2276    0.7704    9.0573 H   0  0  0  0  0  0  0  0  0  0  0  0
    4.7891    2.4649    8.8064 H   0  0  0  0  0  0  0  0  0  0  0  0
    4.7786    1.7878   10.4304 H   0  0  0  0  0  0  0  0  0  0  0  0
    8.6855    5.2283   10.7975 C   0  0  0  0  0  0  0  0  0  0  0  0
    9.5292    5.1921   11.4942 H   0  0  0  0  0  0  0  0  0  0  0  0
    7.8297    5.6784   11.2934 H   0  0  0  0  0  0  0  0  0  0  0  0
    8.9745    5.8642    9.9606 H   0  0  0  0  0  0  0  0  0  0  0  0
  1  2  1  0  0  0  0
  1  4  1  0  0  0  0
  3  1  1  0  0  0  0
  5  7  1  0  0  0  0
  5  6  1  0  0  0  0
  8  9  1  0  0  0  0
  8 11  1  0  0  0  0
 10  8  1  0  0  0  0
 12 13  1  0  0  0  0
 12  5  1  0  0  0  0
 13 35  1  0  0  0  0
 14  5  1  0  0  0  0
 15 13  2  0  0  0  0
 15 26  1  0  0  0  0
 16 29  2  0  0  0  0
 16 21  1  0  0  0  0
 17 16  1  0  0  0  0
 18 12  1  0  0  0  0
 19 20  1  0  0  0  0
 21 42  2  0  0  0  0
 22 23  1  0  0  0  0
 22 18  1  0  0  0  0
 24 22  1  0  0  0  0
 25 22  1  0  0  0  0
 26 34  2  0  0  0  0
 27 26  1  0  0  0  0
 28 14  1  0  0  0  0
 28 36  2  0  0  0  0
 29 28  1  0  0  0  0
 30 29  1  0  0  0  0
 30 33  1  0  0  0  0
 31 30  1  0  0  0  0
 32 30  1  0  0  0  0
 34 19  1  0  0  0  0
 34  1  1  0  0  0  0
 35  8  1  0  0  0  0
 35 19  2  0  0  0  0
 36 52  1  0  0  0  0
 37 18  2  0  0  0  0
 37 14  1  0  0  0  0
 38 37  1  0  0  0  0
 39 38  1  0  0  0  0
 40 38  1  0  0  0  0
 41 38  1  0  0  0  0
 42 36  1  0  0  0  0
 42 43  1  0  0  0  0
 44 45  1  0  0  0  0
 44 46  1  0  0  0  0
 44 15  1  0  0  0  0
 47 44  1  0  0  0  0
 48 21  1  0  0  0  0
 48 51  1  0  0  0  0
 49 48  1  0  0  0  0
 50 48  1  0  0  0  0
 52 54  1  0  0  0  0
 52 53  1  0  0  0  0
 55 52  1  0  0  0  0
M  END
$$$$
