CSD_code = YEKHAY | q = 0 | S = 0 | Stoichiometry = C19H17Cl2N3OPd | MND = 4
 OpenBabel04212202123D

 43 47  0  0  1  0  0  0  0  0999 V2000
   -3.1991    1.9761    7.3977 Pd  0  0  0  0  0  0  0  0  0  0  0  0
   -3.1868    0.6766    9.1990 Cl  0  0  0  0  0  0  0  0  0  0  0  0
   -5.4027    1.8334    7.2749 Cl  0  0  0  0  0  0  0  0  0  0  0  0
    0.5666    2.6284    5.8838 O   0  0  0  0  0  0  0  0  0  0  0  0
   -1.1055    1.9666    7.2206 N   0  0  0  0  0  0  0  0  0  0  0  0
   -1.6713    3.3328    5.4501 N   0  0  0  0  0  0  0  0  0  0  0  0
   -3.6635    4.0890    5.1240 N   0  0  0  0  0  0  0  0  0  0  0  0
   -2.9818    3.2033    5.8591 C   0  0  0  0  0  0  0  0  0  0  0  0
   -1.5685    4.2821    4.4533 C   0  0  0  0  0  0  0  0  0  0  0  0
   -0.6356    4.5315    3.9931 H   0  0  0  0  0  0  0  0  0  0  0  0
   -2.8223    4.7482    4.2586 C   0  0  0  0  0  0  0  0  0  0  0  0
   -3.1784    5.5033    3.5879 H   0  0  0  0  0  0  0  0  0  0  0  0
   -0.7422    2.6476    6.1679 C   0  0  1  0  0  3  0  0  0  0  0  0
    1.1028    1.8290    6.8680 C   0  0  0  0  0  0  0  0  0  0  0  0
    0.0564    1.4076    7.7087 C   0  0  0  0  0  0  0  0  0  0  0  0
    0.2936    0.5802    8.7962 C   0  0  0  0  0  0  0  0  0  0  0  0
   -0.5279    0.2653    9.4214 H   0  0  0  0  0  0  0  0  0  0  0  0
    1.6046    0.1985    9.0054 C   0  0  0  0  0  0  0  0  0  0  0  0
    1.8387   -0.4467    9.8379 H   0  0  0  0  0  0  0  0  0  0  0  0
    2.6382    0.6221    8.1698 C   0  0  0  0  0  0  0  0  0  0  0  0
    3.6464    0.2967    8.3748 H   0  0  0  0  0  0  0  0  0  0  0  0
    2.4120    1.4475    7.0806 C   0  0  0  0  0  0  0  0  0  0  0  0
    3.2077    1.7744    6.4319 H   0  0  0  0  0  0  0  0  0  0  0  0
   -5.0440    4.3827    5.3066 C   0  0  0  0  0  0  0  0  0  0  0  0
   -5.4450    5.0059    6.4899 C   0  0  0  0  0  0  0  0  0  0  0  0
   -4.4606    5.3136    7.5778 C   0  0  0  0  0  0  0  0  0  0  0  0
   -4.1411    4.3728    8.0662 H   0  0  0  0  0  0  0  0  0  0  0  0
   -4.9184    5.9440    8.3347 H   0  0  0  0  0  0  0  0  0  0  0  0
   -3.5758    5.8181    7.1879 H   0  0  0  0  0  0  0  0  0  0  0  0
   -6.7892    5.3012    6.6442 C   0  0  0  0  0  0  0  0  0  0  0  0
   -7.1208    5.7757    7.5556 H   0  0  0  0  0  0  0  0  0  0  0  0
   -7.7221    4.9805    5.6674 C   0  0  0  0  0  0  0  0  0  0  0  0
   -9.1729    5.2796    5.8814 C   0  0  0  0  0  0  0  0  0  0  0  0
   -9.6209    4.4874    6.4808 H   0  0  0  0  0  0  0  0  0  0  0  0
   -9.7061    5.3326    4.9356 H   0  0  0  0  0  0  0  0  0  0  0  0
   -9.3018    6.2177    6.4163 H   0  0  0  0  0  0  0  0  0  0  0  0
   -7.2921    4.3420    4.5137 C   0  0  0  0  0  0  0  0  0  0  0  0
   -8.0132    4.0651    3.7587 H   0  0  0  0  0  0  0  0  0  0  0  0
   -5.9568    4.0277    4.3171 C   0  0  0  0  0  0  0  0  0  0  0  0
   -5.5050    3.2792    3.0998 C   0  0  0  0  0  0  0  0  0  0  0  0
   -6.3613    2.9622    2.5117 H   0  0  0  0  0  0  0  0  0  0  0  0
   -4.9443    2.3941    3.3990 H   0  0  0  0  0  0  0  0  0  0  0  0
   -4.8627    3.8922    2.4675 H   0  0  0  0  0  0  0  0  0  0  0  0
  1  2  1  0  0  0  0
  3  1  1  0  0  0  0
  4 14  1  0  0  0  0
  5  1  1  0  0  0  0
  5 15  1  0  0  0  0
  6  8  1  0  0  0  0
  6 13  1  0  0  0  0
  7 24  1  0  0  0  0
  7  8  1  0  0  0  0
  8  1  2  0  0  0  0
  9  6  1  0  0  0  0
 10  9  1  0  0  0  0
 11  9  2  0  0  0  0
 11  7  1  0  0  0  0
 12 11  1  0  0  0  0
 13  4  1  1  0  0  0
 13  5  1  0  0  0  0
 14 22  2  0  0  0  0
 14 15  1  0  0  0  0
 15 16  2  0  0  0  0
 16 18  1  0  0  0  0
 16 17  1  0  0  0  0
 18 19  1  0  0  0  0
 20 21  1  0  0  0  0
 20 18  2  0  0  0  0
 22 20  1  0  0  0  0
 23 22  1  0  0  0  0
 24 25  1  0  0  0  0
 25 30  2  0  0  0  0
 25 26  1  0  0  0  0
 26 27  1  0  0  0  0
 26 28  1  0  0  0  0
 29 26  1  0  0  0  0
 30 31  1  0  0  0  0
 32 33  1  0  0  0  0
 32 30  1  0  0  0  0
 33 36  1  0  0  0  0
 33 34  1  0  0  0  0
 35 33  1  0  0  0  0
 37 32  2  0  0  0  0
 38 37  1  0  0  0  0
 39 37  1  0  0  0  0
 39 24  2  0  0  0  0
 40 42  1  0  0  0  0
 40 39  1  0  0  0  0
 41 40  1  0  0  0  0
 43 40  1  0  0  0  0
M  END
$$$$
