CSD_code = YEKMEH | q = 0 | S = 0 | Stoichiometry = C19H19Cl2N2PPdS | MND = 4
 OpenBabel04212202123D

 45 47  0  0  0  0  0  0  0  0999 V2000
    2.8097    3.7545    3.5210 Pd  0  0  0  0  0  0  0  0  0  0  0  0
    3.2618    2.1823    1.9889 P   0  0  0  0  0  4  0  0  0  0  0  0
    1.1081    4.4257    2.2161 Cl  0  0  0  0  0  0  0  0  0  0  0  0
    2.4143    5.5276    4.9386 Cl  0  0  0  0  0  0  0  0  0  0  0  0
    4.5834    2.9410    4.9554 S   0  0  0  0  0  0  0  0  0  0  0  0
    3.6665    2.5707    6.3191 C   0  0  0  0  0  0  0  0  0  0  0  0
    4.2383    1.8431    7.2943 N   0  0  0  0  0  0  0  0  0  0  0  0
    3.7759    1.6802    8.1732 H   0  0  0  0  0  0  0  0  0  0  0  0
    5.2049    1.5869    7.1975 H   0  0  0  0  0  0  0  0  0  0  0  0
    2.3826    2.9212    6.4123 N   0  0  0  0  0  4  0  0  0  0  0  0
    2.1173    3.7860    5.8674 H   0  0  0  0  0  0  0  0  0  0  0  0
    1.9041    2.7772    7.2910 H   0  0  0  0  0  0  0  0  0  0  0  0
    2.5099    2.1568    0.3372 C   0  0  0  0  0  0  0  0  0  0  0  0
    1.1733    1.7730    0.2586 C   0  0  0  0  0  0  0  0  0  0  0  0
    0.6490    1.4955    1.1636 H   0  0  0  0  0  0  0  0  0  0  0  0
    0.5261    1.7723   -0.9609 C   0  0  0  0  0  0  0  0  0  0  0  0
   -0.5125    1.4826   -1.0203 H   0  0  0  0  0  0  0  0  0  0  0  0
    1.2070    2.1561   -2.1063 C   0  0  0  0  0  0  0  0  0  0  0  0
    0.6986    2.1621   -3.0592 H   0  0  0  0  0  0  0  0  0  0  0  0
    2.5344    2.5415   -2.0292 C   0  0  0  0  0  0  0  0  0  0  0  0
    3.0619    2.8461   -2.9214 H   0  0  0  0  0  0  0  0  0  0  0  0
    3.1895    2.5478   -0.8096 C   0  0  0  0  0  0  0  0  0  0  0  0
    4.2237    2.8581   -0.7498 H   0  0  0  0  0  0  0  0  0  0  0  0
    5.0323    2.4473    1.6609 C   0  0  0  0  0  0  0  0  0  0  0  0
    5.3901    3.7981    1.6179 C   0  0  0  0  0  0  0  0  0  0  0  0
    4.6153    4.5637    1.7657 H   0  0  0  0  0  0  0  0  0  0  0  0
    6.7042    4.1611    1.3969 C   0  0  0  0  0  0  0  0  0  0  0  0
    6.9803    5.2044    1.3616 H   0  0  0  0  0  0  0  0  0  0  0  0
    7.6709    3.1793    1.2339 C   0  0  0  0  0  0  0  0  0  0  0  0
    8.7003    3.4605    1.0680 H   0  0  0  0  0  0  0  0  0  0  0  0
    7.3221    1.8412    1.2981 C   0  0  0  0  0  0  0  0  0  0  0  0
    8.0809    1.0803    1.1857 H   0  0  0  0  0  0  0  0  0  0  0  0
    6.0047    1.4692    1.5117 C   0  0  0  0  0  0  0  0  0  0  0  0
    5.7408    0.4241    1.5792 H   0  0  0  0  0  0  0  0  0  0  0  0
    2.9949    0.4742    2.5419 C   0  0  0  0  0  0  0  0  0  0  0  0
    3.3094   -0.6347    1.7630 C   0  0  0  0  0  0  0  0  0  0  0  0
    3.7362   -0.4982    0.7789 H   0  0  0  0  0  0  0  0  0  0  0  0
    3.0512   -1.9049    2.2453 C   0  0  0  0  0  0  0  0  0  0  0  0
    3.3005   -2.7689    1.6466 H   0  0  0  0  0  0  0  0  0  0  0  0
    2.4638   -2.0726    3.4899 C   0  0  0  0  0  0  0  0  0  0  0  0
    2.2631   -3.0675    3.8592 H   0  0  0  0  0  0  0  0  0  0  0  0
    2.1148   -0.9688    4.2513 C   0  0  0  0  0  0  0  0  0  0  0  0
    1.6325   -1.1029    5.2085 H   0  0  0  0  0  0  0  0  0  0  0  0
    2.3768    0.3036    3.7765 C   0  0  0  0  0  0  0  0  0  0  0  0
    2.0844    1.1888    4.3454 H   0  0  0  0  0  0  0  0  0  0  0  0
  1  4  1  0  0  0  0
  1  5  1  0  0  0  0
  2 35  1  0  0  0  0
  2  1  1  0  0  0  0
  3  1  1  0  0  0  0
  5  6  1  0  0  0  0
  6 10  2  0  0  0  0
  6  7  1  0  0  0  0
  7  8  1  0  0  0  0
  9  7  1  0  0  0  0
 10 12  1  0  0  0  0
 11 10  1  0  0  0  0
 13  2  1  0  0  0  0
 14 13  1  0  0  0  0
 14 15  1  0  0  0  0
 16 14  2  0  0  0  0
 17 16  1  0  0  0  0
 18 20  2  0  0  0  0
 18 16  1  0  0  0  0
 19 18  1  0  0  0  0
 20 22  1  0  0  0  0
 21 20  1  0  0  0  0
 22 23  1  0  0  0  0
 22 13  2  0  0  0  0
 24  2  1  0  0  0  0
 25 24  1  0  0  0  0
 25 26  1  0  0  0  0
 27 25  2  0  0  0  0
 28 27  1  0  0  0  0
 29 31  2  0  0  0  0
 29 27  1  0  0  0  0
 30 29  1  0  0  0  0
 31 33  1  0  0  0  0
 32 31  1  0  0  0  0
 33 34  1  0  0  0  0
 33 24  2  0  0  0  0
 35 44  1  0  0  0  0
 36 38  1  0  0  0  0
 36 35  2  0  0  0  0
 37 36  1  0  0  0  0
 38 40  2  0  0  0  0
 39 38  1  0  0  0  0
 40 41  1  0  0  0  0
 40 42  1  0  0  0  0
 42 43  1  0  0  0  0
 44 42  2  0  0  0  0
 44 45  1  0  0  0  0
M  END
$$$$
