CSD_code = YEKSUC | q = 0 | S = 0 | Stoichiometry = C28H25ClOSiTi | MND = 12
 OpenBabel04212202123D

 57 62  0  0  1  0  0  0  0  0999 V2000
    3.8396    4.3723    3.1738 Ti  0  0  0  0  0  0  0  0  0  0  0  0
    4.3189    5.4166    5.0989 Cl  0  0  0  0  0  0  0  0  0  0  0  0
    0.8967    3.5793    4.4568 Si  0  0  0  0  0  0  0  0  0  0  0  0
    2.2128    4.0129    3.6330 O   0  0  0  0  0  0  0  0  0  0  0  0
   -0.1015    2.4287    3.3274 C   0  0  0  0  0  0  0  0  0  0  0  0
   -1.2119    1.7311    3.7894 C   0  0  0  0  0  0  0  0  0  0  0  0
   -1.9254    0.8910    2.9530 C   0  0  0  0  0  0  0  0  0  0  0  0
   -1.5369    0.7343    1.6330 C   0  0  0  0  0  0  0  0  0  0  0  0
   -0.4316    1.4194    1.1564 C   0  0  0  0  0  0  0  0  0  0  0  0
    0.2763    2.2571    1.9995 C   0  0  0  0  0  0  0  0  0  0  0  0
   -0.0495    5.1711    4.8801 C   0  0  0  0  0  0  0  0  0  0  0  0
   -1.4330    5.2122    5.0188 C   0  0  0  0  0  0  0  0  0  0  0  0
   -2.0829    6.3934    5.3297 C   0  0  0  0  0  0  0  0  0  0  0  0
   -1.3562    7.5586    5.5086 C   0  0  0  0  0  0  0  0  0  0  0  0
    0.0219    7.5361    5.3709 C   0  0  0  0  0  0  0  0  0  0  0  0
    0.6668    6.3528    5.0591 C   0  0  0  0  0  0  0  0  0  0  0  0
    1.4801    2.6518    6.0160 C   0  0  0  0  0  0  0  0  0  0  0  0
    2.1309    3.3525    7.0296 C   0  0  0  0  0  0  0  0  0  0  0  0
    2.6401    2.6962    8.1362 C   0  0  0  0  0  0  0  0  0  0  0  0
    2.5046    1.3225    8.2523 C   0  0  0  0  0  0  0  0  0  0  0  0
    1.8582    0.6110    7.2559 C   0  0  0  0  0  0  0  0  0  0  0  0
    1.3544    1.2715    6.1488 C   0  0  0  0  0  0  0  0  0  0  0  0
    2.5623    6.0277    1.9031 C   0  0  0  0  0  0  0  0  0  0  0  0
    3.1165    5.0919    1.0041 C   0  0  0  0  0  0  0  0  0  0  0  0
    4.5233    5.2292    1.0451 C   0  0  0  0  0  0  0  0  0  0  0  0
    4.8410    6.1844    2.0243 C   0  0  1  0  0  0  0  0  0  0  0  0
    3.6219    6.6890    2.5448 C   0  0  0  0  0  0  0  0  0  0  0  0
    3.9227    1.9837    3.1425 C   0  0  0  0  0  3  0  0  0  0  0  0
    4.6805    2.4500    2.0494 C   0  0  2  0  0  0  0  0  0  0  0  0
    5.8155    3.1256    2.5602 C   0  0  0  0  0  0  0  0  0  0  0  0
    5.7369    3.1063    3.9584 C   0  0  0  0  0  0  0  0  0  0  0  0
    4.5581    2.4102    4.3245 C   0  0  1  0  0  0  0  0  0  0  0  0
   -1.5142    1.8432    4.8209 H   0  0  0  0  0  0  0  0  0  0  0  0
   -2.7849    0.3548    3.3296 H   0  0  0  0  0  0  0  0  0  0  0  0
   -2.0928    0.0788    0.9783 H   0  0  0  0  0  0  0  0  0  0  0  0
   -0.1244    1.2979    0.1271 H   0  0  0  0  0  0  0  0  0  0  0  0
    1.1463    2.7942    1.6365 H   0  0  0  0  0  0  0  0  0  0  0  0
   -2.0071    4.3090    4.8731 H   0  0  0  0  0  0  0  0  0  0  0  0
   -3.1588    6.4069    5.4327 H   0  0  0  0  0  0  0  0  0  0  0  0
   -1.8627    8.4810    5.7536 H   0  0  0  0  0  0  0  0  0  0  0  0
    0.5940    8.4423    5.5102 H   0  0  0  0  0  0  0  0  0  0  0  0
    1.7444    6.3341    4.9504 H   0  0  0  0  0  0  0  0  0  0  0  0
    2.2443    4.4235    6.9447 H   0  0  0  0  0  0  0  0  0  0  0  0
    3.1466    3.2565    8.9087 H   0  0  0  0  0  0  0  0  0  0  0  0
    2.9021    0.8079    9.1153 H   0  0  0  0  0  0  0  0  0  0  0  0
    1.7496   -0.4612    7.3402 H   0  0  0  0  0  0  0  0  0  0  0  0
    0.8550    0.7069    5.3737 H   0  0  0  0  0  0  0  0  0  0  0  0
    1.5078    6.2277    2.0440 H   0  0  0  0  0  0  0  0  0  0  0  0
    2.5613    4.5080    0.2809 H   0  0  0  0  0  0  0  0  0  0  0  0
    5.2167    4.7725    0.3522 H   0  0  0  0  0  0  0  0  0  0  0  0
    5.8267    6.5793    2.2424 H   0  0  0  0  0  0  0  0  0  0  0  0
    3.5304    7.5167    3.2363 H   0  0  0  0  0  0  0  0  0  0  0  0
    3.0464    1.3508    3.0892 H   0  0  0  0  0  0  0  0  0  0  0  0
    4.5107    2.1900    1.0122 H   0  0  0  0  0  0  0  0  0  0  0  0
    6.6612    3.4786    1.9843 H   0  0  0  0  0  0  0  0  0  0  0  0
    6.4911    3.4686    4.6459 H   0  0  0  0  0  0  0  0  0  0  0  0
    4.2591    2.1604    5.3346 H   0  0  0  0  0  0  0  0  0  0  0  0
  1  4  1  0  0  0  0
  1 32  1  0  0  0  0
  1  2  1  0  0  0  0
  3 11  1  0  0  0  0
  3 17  1  0  0  0  0
  4  3  1  0  0  0  0
  5  6  1  0  0  0  0
  5  3  1  0  0  0  0
  6 33  1  0  0  0  0
  7 34  1  0  0  0  0
  7  6  2  0  0  0  0
  8  7  1  0  0  0  0
  9  8  2  0  0  0  0
  9 10  1  0  0  0  0
 10  5  2  0  0  0  0
 11 12  2  0  0  0  0
 11 16  1  0  0  0  0
 12 13  1  0  0  0  0
 13 39  1  0  0  0  0
 13 14  2  0  0  0  0
 14 40  1  0  0  0  0
 15 14  1  0  0  0  0
 15 41  1  0  0  0  0
 16 15  2  0  0  0  0
 17 22  2  0  0  0  0
 17 18  1  0  0  0  0
 18 19  2  0  0  0  0
 19 20  1  0  0  0  0
 19 44  1  0  0  0  0
 20 45  1  0  0  0  0
 21 46  1  0  0  0  0
 21 20  2  0  0  0  0
 22 21  1  0  0  0  0
 23 48  1  0  0  0  0
 23 27  2  0  0  0  0
 24 25  2  0  0  0  0
 24 23  1  0  0  0  0
 25 26  1  0  0  0  0
 26 51  1  1  0  0  0
 26 27  1  0  0  0  0
 26  1  1  0  0  0  0
 27 52  1  0  0  0  0
 28 32  1  0  0  0  0
 29 54  1  6  0  0  0
 29 30  1  0  0  0  0
 29 28  1  0  0  0  0
 29  1  1  0  0  0  0
 30 31  2  0  0  0  0
 31 32  1  0  0  0  0
 31 56  1  0  0  0  0
 32 57  1  1  0  0  0
 35  8  1  0  0  0  0
 36  9  1  0  0  0  0
 37 10  1  0  0  0  0
 38 12  1  0  0  0  0
 42 16  1  0  0  0  0
 43 18  1  0  0  0  0
 47 22  1  0  0  0  0
 49 24  1  0  0  0  0
 50 25  1  0  0  0  0
 53 28  1  0  0  0  0
 55 30  1  0  0  0  0
M  END
$$$$
