CSD_code = YEKSIT | q = 0 | S = 0 | Stoichiometry = C25H29ClN6Pd | MND = 4
 OpenBabel04212202123D

 62 66  0  0  0  0  0  0  0  0999 V2000
   18.5817    2.1225    3.3876 C   0  0  0  0  0  0  0  0  0  0  0  0
   17.1853    1.8339    5.1192 C   0  0  0  0  0  0  0  0  0  0  0  0
   16.8371    3.1914    5.1765 C   0  0  0  0  0  0  0  0  0  0  0  0
   17.4981    3.9541    4.2162 C   0  0  0  0  0  3  0  0  0  0  0  0
   17.3456    5.0243    4.1276 H   0  0  0  0  0  0  0  0  0  0  0  0
   15.6973    1.6847    6.9112 C   0  0  0  0  0  0  0  0  0  0  0  0
   15.5306   -0.5149    7.2341 C   0  0  0  0  0  0  0  0  0  0  0  0
   15.1612   -1.4188    7.6731 H   0  0  0  0  0  0  0  0  0  0  0  0
   16.4435   -0.3183    6.2518 C   0  0  0  0  0  0  0  0  0  0  0  0
   17.0258   -1.0082    5.6780 H   0  0  0  0  0  0  0  0  0  0  0  0
   14.0525    1.0249    8.5564 C   0  0  0  0  0  0  0  0  0  0  0  0
   14.2691    0.8203    9.9181 C   0  0  0  0  0  0  0  0  0  0  0  0
   13.2774    1.2013   10.8093 C   0  0  0  0  0  0  0  0  0  0  0  0
   13.4388    1.0566   11.8678 H   0  0  0  0  0  0  0  0  0  0  0  0
   12.0936    1.7783   10.3730 C   0  0  0  0  0  0  0  0  0  0  0  0
   11.9010    1.9604    9.0109 C   0  0  0  0  0  0  0  0  0  0  0  0
   10.9813    2.4075    8.6624 H   0  0  0  0  0  0  0  0  0  0  0  0
   12.8663    1.5959    8.0846 C   0  0  0  0  0  0  0  0  0  0  0  0
   12.6482    1.8265    6.6191 C   0  0  0  0  0  0  0  0  0  0  0  0
   13.3206    2.6242    6.2454 H   0  0  0  0  0  0  0  0  0  0  0  0
   11.6210    2.1267    6.4302 H   0  0  0  0  0  0  0  0  0  0  0  0
   12.8613    0.9237    6.0471 H   0  0  0  0  0  0  0  0  0  0  0  0
   15.5542    0.2246   10.4086 C   0  0  0  0  0  0  0  0  0  0  0  0
   15.5425   -0.8595   10.2945 H   0  0  0  0  0  0  0  0  0  0  0  0
   15.7000    0.4501   11.4617 H   0  0  0  0  0  0  0  0  0  0  0  0
   16.4022    0.6104    9.8451 H   0  0  0  0  0  0  0  0  0  0  0  0
   11.0603    2.2329   11.3568 C   0  0  0  0  0  0  0  0  0  0  0  0
   11.2808    3.2529   11.6738 H   0  0  0  0  0  0  0  0  0  0  0  0
   11.0574    1.5989   12.2400 H   0  0  0  0  0  0  0  0  0  0  0  0
   10.0687    2.2254   10.9114 H   0  0  0  0  0  0  0  0  0  0  0  0
   20.1019    2.4633    1.5337 C   0  0  0  0  0  0  0  0  0  0  0  0
   21.0876    2.0436    1.3148 H   0  0  0  0  0  0  0  0  0  0  0  0
   20.2230    3.4449    1.9954 H   0  0  0  0  0  0  0  0  0  0  0  0
   19.2896    2.6095    0.2484 C   0  0  0  0  0  0  0  0  0  0  0  0
   19.1209    1.6399   -0.2157 H   0  0  0  0  0  0  0  0  0  0  0  0
   19.8159    3.2474   -0.4564 H   0  0  0  0  0  0  0  0  0  0  0  0
   18.3281    3.0592    0.4789 H   0  0  0  0  0  0  0  0  0  0  0  0
   19.7159    0.1860    2.4733 C   0  0  0  0  0  0  0  0  0  0  0  0
   19.9797   -0.1015    1.4522 H   0  0  0  0  0  0  0  0  0  0  0  0
   18.8035   -0.3389    2.7654 H   0  0  0  0  0  0  0  0  0  0  0  0
   20.8438   -0.1873    3.4344 C   0  0  0  0  0  0  0  0  0  0  0  0
   21.7578    0.3430    3.1769 H   0  0  0  0  0  0  0  0  0  0  0  0
   21.0362   -1.2564    3.3931 H   0  0  0  0  0  0  0  0  0  0  0  0
   20.5597    0.0820    4.4478 H   0  0  0  0  0  0  0  0  0  0  0  0
   13.3457    4.8613    8.3769 C   0  0  0  0  0  3  0  0  0  0  0  0
   12.8998    4.9461    7.3919 H   0  0  0  0  0  0  0  0  0  0  0  0
   12.7790    5.4911    9.4719 C   0  0  0  0  0  0  0  0  0  0  0  0
   11.8728    6.0645    9.3565 H   0  0  0  0  0  0  0  0  0  0  0  0
   13.4019    5.3798   10.7042 C   0  0  0  0  0  0  0  0  0  0  0  0
   12.9910    5.8637   11.5782 H   0  0  0  0  0  0  0  0  0  0  0  0
   14.5732    4.6440   10.7879 C   0  0  0  0  0  0  0  0  0  0  0  0
   15.1006    4.5410   11.7233 H   0  0  0  0  0  0  0  0  0  0  0  0
   15.0646    4.0424    9.6423 C   0  0  0  0  0  0  0  0  0  0  0  0
   15.9803    3.4573    9.6702 H   0  0  0  0  0  0  0  0  0  0  0  0
   18.3444    3.4354    3.3379 N   0  0  0  0  0  0  0  0  0  0  0  0
   18.0236    1.2739    4.2694 N   0  0  0  0  0  2  0  0  0  0  0  0
   16.5264    1.0343    6.0664 N   0  0  0  0  0  0  0  0  0  0  0  0
   15.0757    0.7259    7.6220 N   0  0  0  0  0  0  0  0  0  0  0  0
   19.4438    1.6032    2.4897 N   0  0  0  0  0  0  0  0  0  0  0  0
   14.4596    4.1397    8.4618 N   0  0  0  0  0  0  0  0  0  0  0  0
   15.5092    5.8432    6.2387 Cl  0  0  0  0  0  0  0  0  0  0  0  0
   15.5886    3.6530    6.6863 Pd  0  0  1  0  0  0  0  0  0  0  0  0
  1 56  1  0  0  0  0
  2  3  2  0  0  0  0
  2 57  1  0  0  0  0
  3 62  1  0  0  0  0
  4  3  1  0  0  0  0
  5  4  1  0  0  0  0
  6 58  1  0  0  0  0
  7 58  1  0  0  0  0
  7  8  1  0  0  0  0
  9  7  2  0  0  0  0
 10  9  1  0  0  0  0
 11 12  1  0  0  0  0
 12 23  1  0  0  0  0
 12 13  2  0  0  0  0
 13 14  1  0  0  0  0
 15 13  1  0  0  0  0
 15 27  1  0  0  0  0
 16 15  2  0  0  0  0
 17 16  1  0  0  0  0
 18 11  2  0  0  0  0
 18 16  1  0  0  0  0
 19 18  1  0  0  0  0
 20 19  1  0  0  0  0
 21 19  1  0  0  0  0
 22 19  1  0  0  0  0
 23 25  1  0  0  0  0
 24 23  1  0  0  0  0
 26 23  1  0  0  0  0
 27 28  1  0  0  0  0
 27 29  1  0  0  0  0
 30 27  1  0  0  0  0
 31 33  1  0  0  0  0
 31 59  1  0  0  0  0
 32 31  1  0  0  0  0
 34 37  1  0  0  0  0
 34 31  1  0  0  0  0
 35 34  1  0  0  0  0
 36 34  1  0  0  0  0
 38 59  1  0  0  0  0
 38 40  1  0  0  0  0
 38 41  1  0  0  0  0
 39 38  1  0  0  0  0
 41 44  1  0  0  0  0
 42 41  1  0  0  0  0
 43 41  1  0  0  0  0
 45 60  1  0  0  0  0
 45 47  1  0  0  0  0
 46 45  1  0  0  0  0
 47 49  2  0  0  0  0
 48 47  1  0  0  0  0
 49 51  1  0  0  0  0
 49 50  1  0  0  0  0
 51 52  1  0  0  0  0
 53 54  1  0  0  0  0
 53 51  2  0  0  0  0
 55  1  2  0  0  0  0
 55  4  1  0  0  0  0
 56  2  1  0  0  0  0
 57  9  1  0  0  0  0
 57  6  1  0  0  0  0
 58 11  1  0  0  0  0
 59  1  1  0  0  0  0
 60 53  1  0  0  0  0
 62 61  1  6  0  0  0
 62  6  2  0  0  0  0
 62 60  1  0  0  0  0
M  END
$$$$
