CSD_code = YEKSAL | q = 0 | S = 0 | Stoichiometry = C18H21AgClN5 | MND = 2
 OpenBabel04212202123D

 46 48  0  0  1  0  0  0  0  0999 V2000
    5.4590    6.7092    6.2091 C   0  0  0  0  0  0  0  0  0  0  0  0
    6.1507    4.7772    5.2099 C   0  0  0  0  0  0  0  0  0  0  0  0
    5.0938    4.8287    4.3072 C   0  0  0  0  0  0  0  0  0  0  0  0
    4.9337    4.0758    3.5560 H   0  0  0  0  0  0  0  0  0  0  0  0
    4.2224    5.8971    4.4788 C   0  0  0  0  0  0  0  0  0  0  0  0
    3.3508    6.0166    3.8483 H   0  0  0  0  0  0  0  0  0  0  0  0
    7.7280    3.2788    6.2846 C   0  0  1  0  0  3  0  0  0  0  0  0
    8.3653    2.1066    4.4875 C   0  0  0  0  0  0  0  0  0  0  0  0
    8.9148    1.3653    3.9439 H   0  0  0  0  0  0  0  0  0  0  0  0
    7.4569    3.0162    4.0693 C   0  0  0  0  0  0  0  0  0  0  0  0
    7.0851    3.2252    3.0880 H   0  0  0  0  0  0  0  0  0  0  0  0
    9.3623    1.5017    6.6664 C   0  0  0  0  0  0  0  0  0  0  0  0
   10.5965    2.0165    7.0612 C   0  0  0  0  0  0  0  0  0  0  0  0
   11.4176    1.2227    7.8474 C   0  0  0  0  0  0  0  0  0  0  0  0
   12.3758    1.6095    8.1619 H   0  0  0  0  0  0  0  0  0  0  0  0
   11.0331   -0.0500    8.2445 C   0  0  0  0  0  0  0  0  0  0  0  0
    9.7925   -0.5293    7.8461 C   0  0  0  0  0  0  0  0  0  0  0  0
    9.4782   -1.5137    8.1611 H   0  0  0  0  0  0  0  0  0  0  0  0
    8.9419    0.2314    7.0603 C   0  0  0  0  0  0  0  0  0  0  0  0
    7.5912   -0.2775    6.6570 C   0  0  0  0  0  0  0  0  0  0  0  0
    7.5224   -0.3936    5.5753 H   0  0  0  0  0  0  0  0  0  0  0  0
    6.8183    0.4253    6.9690 H   0  0  0  0  0  0  0  0  0  0  0  0
    7.3923   -1.2398    7.1199 H   0  0  0  0  0  0  0  0  0  0  0  0
   11.0088    3.3990    6.6589 C   0  0  0  0  0  0  0  0  0  0  0  0
   12.0400    3.5894    6.9417 H   0  0  0  0  0  0  0  0  0  0  0  0
   10.3708    4.1337    7.1605 H   0  0  0  0  0  0  0  0  0  0  0  0
   10.9048    3.5442    5.5841 H   0  0  0  0  0  0  0  0  0  0  0  0
   11.9227   -0.8806    9.1163 C   0  0  0  0  0  0  0  0  0  0  0  0
   12.9650   -0.5975    8.9922 H   0  0  0  0  0  0  0  0  0  0  0  0
   11.8118   -1.9384    8.8897 H   0  0  0  0  0  0  0  0  0  0  0  0
   11.6541   -0.7309   10.1622 H   0  0  0  0  0  0  0  0  0  0  0  0
    4.6908    8.7286    7.2915 C   0  0  0  0  0  0  0  0  0  0  0  0
    5.1446    9.7073    7.1196 H   0  0  0  0  0  0  0  0  0  0  0  0
    4.3212    8.6896    8.3187 H   0  0  0  0  0  0  0  0  0  0  0  0
    3.8665    8.5829    6.5993 H   0  0  0  0  0  0  0  0  0  0  0  0
    6.8021    7.7168    7.9762 C   0  0  0  0  0  0  0  0  0  0  0  0
    6.5331    7.3524    8.9704 H   0  0  0  0  0  0  0  0  0  0  0  0
    7.1622    8.7431    8.0586 H   0  0  0  0  0  0  0  0  0  0  0  0
    7.5993    7.0840    7.5868 H   0  0  0  0  0  0  0  0  0  0  0  0
    4.3897    6.8197    5.3956 N   0  0  0  0  0  0  0  0  0  0  0  0
    6.3385    5.6848    6.1541 N   0  0  0  0  0  0  0  0  0  0  0  0
    7.0805    3.7324    5.1799 N   0  0  0  0  0  0  0  0  0  0  0  0
    8.5112    2.2833    5.8393 N   0  0  0  0  0  0  0  0  0  0  0  0
    5.6695    7.6905    7.0854 N   0  0  0  0  0  0  0  0  0  0  0  0
    7.2693    5.1112   10.2331 Cl  0  0  0  0  0  0  0  0  0  0  0  0
    7.4729    4.2325    8.1584 Ag  0  0  0  0  0  0  0  0  0  0  0  0
  1 44  1  0  0  0  0
  2 41  2  0  0  0  0
  3  5  2  0  0  0  0
  3  2  1  0  0  0  0
  4  3  1  0  0  0  0
  5 40  1  0  0  0  0
  6  5  1  0  0  0  0
  7 46  1  6  0  0  0
  8 43  1  0  0  0  0
  9  8  1  0  0  0  0
 10  8  2  0  0  0  0
 10 42  1  0  0  0  0
 11 10  1  0  0  0  0
 12 19  2  0  0  0  0
 12 13  1  0  0  0  0
 13 14  2  0  0  0  0
 14 15  1  0  0  0  0
 14 16  1  0  0  0  0
 16 28  1  0  0  0  0
 17 18  1  0  0  0  0
 17 16  2  0  0  0  0
 19 17  1  0  0  0  0
 20 22  1  0  0  0  0
 20 19  1  0  0  0  0
 20 23  1  0  0  0  0
 21 20  1  0  0  0  0
 24 25  1  0  0  0  0
 24 13  1  0  0  0  0
 24 26  1  0  0  0  0
 27 24  1  0  0  0  0
 28 31  1  0  0  0  0
 29 28  1  0  0  0  0
 30 28  1  0  0  0  0
 32 34  1  0  0  0  0
 33 32  1  0  0  0  0
 35 32  1  0  0  0  0
 36 38  1  0  0  0  0
 36 37  1  0  0  0  0
 39 36  1  0  0  0  0
 40  1  2  0  0  0  0
 41  1  1  0  0  0  0
 42  2  1  0  0  0  0
 42  7  1  0  0  0  0
 43  7  1  0  0  0  0
 43 12  1  0  0  0  0
 44 32  1  0  0  0  0
 44 36  1  0  0  0  0
 46 45  1  0  0  0  0
M  END
$$$$
