CSD_code = YEKSOZ | q = 0 | S = 0 | Stoichiometry = C26H29ClN6Pd | MND = 4
 OpenBabel04212202123D

 63 68  0  0  0  0  0  0  0  0999 V2000
    3.8550    0.2043   12.0244 C   0  0  0  0  0  0  0  0  0  0  0  0
    2.2928    1.5277   12.9446 C   0  0  0  0  0  0  0  0  0  0  0  0
    1.8833    0.5521   13.8653 C   0  0  0  0  0  0  0  0  0  0  0  0
    2.5967   -0.6375   13.7361 C   0  0  0  0  0  3  0  0  0  0  0  0
    2.4058   -1.4944   14.3729 H   0  0  0  0  0  0  0  0  0  0  0  0
    0.6184    2.7796   13.9822 C   0  0  0  0  0  0  0  0  0  0  0  0
    0.8946    4.8074   13.0986 C   0  0  0  0  0  0  0  0  0  0  0  0
    0.7145    5.8541   12.9640 H   0  0  0  0  0  0  0  0  0  0  0  0
    1.7863    3.9805   12.5001 C   0  0  0  0  0  0  0  0  0  0  0  0
    2.5228    4.1612   11.7456 H   0  0  0  0  0  0  0  0  0  0  0  0
   -0.7960    4.4968   14.9290 C   0  0  0  0  0  0  0  0  0  0  0  0
   -0.4996    4.4608   16.2955 C   0  0  0  0  0  0  0  0  0  0  0  0
   -1.4973    4.8125   17.1912 C   0  0  0  0  0  0  0  0  0  0  0  0
   -1.2870    4.7845   18.2505 H   0  0  0  0  0  0  0  0  0  0  0  0
   -2.7640    5.1843   16.7614 C   0  0  0  0  0  0  0  0  0  0  0  0
   -3.0237    5.2207   15.3997 C   0  0  0  0  0  0  0  0  0  0  0  0
   -4.0059    5.5080   15.0531 H   0  0  0  0  0  0  0  0  0  0  0  0
   -2.0544    4.8788   14.4681 C   0  0  0  0  0  0  0  0  0  0  0  0
   -2.3597    4.8961   13.0007 C   0  0  0  0  0  0  0  0  0  0  0  0
   -3.4339    4.8923   12.8355 H   0  0  0  0  0  0  0  0  0  0  0  0
   -1.9237    4.0317   12.5024 H   0  0  0  0  0  0  0  0  0  0  0  0
   -1.9500    5.7922   12.5344 H   0  0  0  0  0  0  0  0  0  0  0  0
    0.8538    4.0349   16.7807 C   0  0  0  0  0  0  0  0  0  0  0  0
    1.0161    2.9560   16.5870 H   0  0  0  0  0  0  0  0  0  0  0  0
    0.9475    4.2105   17.8489 H   0  0  0  0  0  0  0  0  0  0  0  0
    1.6419    4.5825   16.2643 H   0  0  0  0  0  0  0  0  0  0  0  0
   -3.8375    5.5012   17.7560 C   0  0  0  0  0  0  0  0  0  0  0  0
   -4.2938    4.5757   18.1094 H   0  0  0  0  0  0  0  0  0  0  0  0
   -4.6158    6.1146   17.3094 H   0  0  0  0  0  0  0  0  0  0  0  0
   -3.4266    6.0218   18.6178 H   0  0  0  0  0  0  0  0  0  0  0  0
    5.6237   -1.1852   11.0992 C   0  0  0  0  0  0  0  0  0  0  0  0
    5.7014   -1.5656   10.0738 H   0  0  0  0  0  0  0  0  0  0  0  0
    5.1313   -1.9274   11.7266 H   0  0  0  0  0  0  0  0  0  0  0  0
    7.0183   -0.8516   11.6332 C   0  0  0  0  0  0  0  0  0  0  0  0
    6.9308   -0.5376   12.6750 H   0  0  0  0  0  0  0  0  0  0  0  0
    7.6474   -1.7421   11.5962 H   0  0  0  0  0  0  0  0  0  0  0  0
    7.6372    0.2740   10.8069 C   0  0  0  0  0  0  0  0  0  0  0  0
    7.7869   -0.0702    9.7803 H   0  0  0  0  0  0  0  0  0  0  0  0
    8.6126    0.5475   11.2144 H   0  0  0  0  0  0  0  0  0  0  0  0
    6.7108    1.4880   10.8032 C   0  0  0  0  0  0  0  0  0  0  0  0
    6.6117    1.8755   11.8190 H   0  0  0  0  0  0  0  0  0  0  0  0
    7.1202    2.2790   10.1725 H   0  0  0  0  0  0  0  0  0  0  0  0
    5.3262    1.0831   10.2909 C   0  0  0  0  0  0  0  0  0  0  0  0
    4.6274    1.9170   10.3490 H   0  0  0  0  0  0  0  0  0  0  0  0
    5.4028    0.7463    9.2502 H   0  0  0  0  0  0  0  0  0  0  0  0
   -1.6057    1.5260   17.3403 C   0  0  0  0  0  3  0  0  0  0  0  0
   -0.6717    1.4531   17.8866 H   0  0  0  0  0  0  0  0  0  0  0  0
   -2.8215    1.4927   18.0017 C   0  0  0  0  0  0  0  0  0  0  0  0
   -2.8496    1.4083   19.0767 H   0  0  0  0  0  0  0  0  0  0  0  0
   -3.9893    1.5556   17.2590 C   0  0  0  0  0  0  0  0  0  0  0  0
   -4.9550    1.5245   17.7418 H   0  0  0  0  0  0  0  0  0  0  0  0
   -3.8902    1.6461   15.8797 C   0  0  0  0  0  0  0  0  0  0  0  0
   -4.7718    1.6836   15.2594 H   0  0  0  0  0  0  0  0  0  0  0  0
   -2.6321    1.6815   15.3035 C   0  0  0  0  0  0  0  0  0  0  0  0
   -2.5158    1.7545   14.2249 H   0  0  0  0  0  0  0  0  0  0  0  0
    3.5598   -0.8091   12.8423 N   0  0  0  0  0  0  0  0  0  0  0  0
    3.2474    1.4042   12.0433 N   0  0  0  0  0  2  0  0  0  0  0  0
    1.6038    2.7454   13.0588 N   0  0  0  0  0  0  0  0  0  0  0  0
    0.1907    4.0549   14.0121 N   0  0  0  0  0  0  0  0  0  0  0  0
    4.7976   -0.0019   11.0798 N   0  0  0  0  0  0  0  0  0  0  0  0
   -1.5112    1.6319   16.0178 N   0  0  0  0  0  0  0  0  0  0  0  0
    0.1901   -0.8192   16.1370 Cl  0  0  0  0  0  0  0  0  0  0  0  0
    0.3204    1.1057   15.0054 Pd  0  0  1  0  0  0  0  0  0  0  0  0
  1 57  1  0  0  0  0
  1 56  2  0  0  0  0
  2 58  1  0  0  0  0
  2  3  2  0  0  0  0
  3 63  1  0  0  0  0
  4  3  1  0  0  0  0
  4  5  1  0  0  0  0
  6 59  1  0  0  0  0
  6 63  2  0  0  0  0
  7 59  1  0  0  0  0
  8  7  1  0  0  0  0
  9 58  1  0  0  0  0
  9  7  2  0  0  0  0
 10  9  1  0  0  0  0
 11 12  1  0  0  0  0
 12 23  1  0  0  0  0
 12 13  2  0  0  0  0
 13 14  1  0  0  0  0
 15 13  1  0  0  0  0
 15 27  1  0  0  0  0
 16 15  2  0  0  0  0
 17 16  1  0  0  0  0
 18 11  2  0  0  0  0
 18 16  1  0  0  0  0
 19 18  1  0  0  0  0
 20 19  1  0  0  0  0
 21 19  1  0  0  0  0
 22 19  1  0  0  0  0
 23 25  1  0  0  0  0
 24 23  1  0  0  0  0
 26 23  1  0  0  0  0
 27 28  1  0  0  0  0
 27 30  1  0  0  0  0
 29 27  1  0  0  0  0
 31 34  1  0  0  0  0
 31 33  1  0  0  0  0
 32 31  1  0  0  0  0
 34 35  1  0  0  0  0
 36 34  1  0  0  0  0
 37 39  1  0  0  0  0
 37 34  1  0  0  0  0
 38 37  1  0  0  0  0
 40 37  1  0  0  0  0
 40 41  1  0  0  0  0
 42 40  1  0  0  0  0
 43 44  1  0  0  0  0
 43 40  1  0  0  0  0
 43 60  1  0  0  0  0
 45 43  1  0  0  0  0
 46 47  1  0  0  0  0
 46 48  1  0  0  0  0
 48 49  1  0  0  0  0
 50 51  1  0  0  0  0
 50 48  2  0  0  0  0
 52 50  1  0  0  0  0
 53 52  1  0  0  0  0
 54 52  2  0  0  0  0
 54 61  1  0  0  0  0
 55 54  1  0  0  0  0
 56  4  1  0  0  0  0
 57  2  1  0  0  0  0
 58  6  1  0  0  0  0
 59 11  1  0  0  0  0
 60 31  1  0  0  0  0
 60  1  1  0  0  0  0
 61 46  1  0  0  0  0
 63 61  1  0  0  0  0
 63 62  1  1  0  0  0
M  END
$$$$
