CSD_code = YELMOS | q = 0 | S = 0 | Stoichiometry = C24H21Cl3NPPd | MND = 4
 OpenBabel04212202123D

 51 54  0  0  0  0  0  0  0  0999 V2000
    7.6306    7.8350   10.8558 Pd  0  0  0  0  0  0  0  0  0  0  0  0
    6.3762    9.2969    9.6534 Cl  0  0  0  0  0  0  0  0  0  0  0  0
    8.8218    6.3428   12.1437 Cl  0  0  0  0  0  0  0  0  0  0  0  0
   12.2079   10.4265   10.9049 Cl  0  0  0  0  0  0  0  0  0  0  0  0
    7.8912    6.4702    9.1431 P   0  0  0  0  0  4  0  0  0  0  0  0
    7.5736    9.1134   12.6154 N   0  0  0  0  0  4  0  0  0  0  0  0
    6.6807    9.4707   12.9507 H   0  0  0  0  0  0  0  0  0  0  0  0
    8.0353    8.5037   13.2962 H   0  0  0  0  0  0  0  0  0  0  0  0
    8.4152   10.1251   12.0941 C   0  0  0  0  0  0  0  0  0  0  0  0
    9.7511    9.8215   11.8100 C   0  0  0  0  0  0  0  0  0  0  0  0
   10.1501    8.8351   12.0312 H   0  0  0  0  0  0  0  0  0  0  0  0
   10.5567   10.7987   11.2517 C   0  0  0  0  0  0  0  0  0  0  0  0
   10.0707   12.0671   10.9729 C   0  0  0  0  0  0  0  0  0  0  0  0
   10.7157   12.8105   10.5332 H   0  0  0  0  0  0  0  0  0  0  0  0
    8.7482   12.3543   11.2612 C   0  0  0  0  0  0  0  0  0  0  0  0
    8.3565   13.3357   11.0435 H   0  0  0  0  0  0  0  0  0  0  0  0
    7.9217   11.3990   11.8249 C   0  0  0  0  0  0  0  0  0  0  0  0
    6.8856   11.6273   12.0268 H   0  0  0  0  0  0  0  0  0  0  0  0
    6.9341    4.9529    9.4048 C   0  0  0  0  0  0  0  0  0  0  0  0
    6.0955    4.9024   10.5149 C   0  0  0  0  0  0  0  0  0  0  0  0
    6.0584    5.7599   11.1969 H   0  0  0  0  0  0  0  0  0  0  0  0
    5.3210    3.7791   10.7432 C   0  0  0  0  0  0  0  0  0  0  0  0
    4.6725    3.7345   11.6054 H   0  0  0  0  0  0  0  0  0  0  0  0
    5.3780    2.7107    9.8626 C   0  0  0  0  0  0  0  0  0  0  0  0
    4.7784    1.8310   10.0440 H   0  0  0  0  0  0  0  0  0  0  0  0
    6.1919    2.7705    8.7418 C   0  0  0  0  0  0  0  0  0  0  0  0
    6.2198    1.9415    8.0499 H   0  0  0  0  0  0  0  0  0  0  0  0
    6.9641    3.8927    8.5036 C   0  0  0  0  0  0  0  0  0  0  0  0
    7.5802    3.9584    7.6168 H   0  0  0  0  0  0  0  0  0  0  0  0
    9.6662    6.1153    9.0446 C   0  0  0  0  0  0  0  0  0  0  0  0
   10.2439    4.8606    8.9254 C   0  0  0  0  0  0  0  0  0  0  0  0
    9.6238    3.9785    8.8621 H   0  0  0  0  0  0  0  0  0  0  0  0
   11.6250    4.7458    8.9206 C   0  0  0  0  0  0  0  0  0  0  0  0
   12.0790    3.7692    8.8379 H   0  0  0  0  0  0  0  0  0  0  0  0
   12.4218    5.8720    9.0341 C   0  0  0  0  0  0  0  0  0  0  0  0
   13.4971    5.7723    9.0369 H   0  0  0  0  0  0  0  0  0  0  0  0
   11.8450    7.1274    9.1642 C   0  0  0  0  0  0  0  0  0  0  0  0
   12.4679    8.0027    9.2704 H   0  0  0  0  0  0  0  0  0  0  0  0
   10.4698    7.2491    9.1771 C   0  0  0  0  0  0  0  0  0  0  0  0
    9.9893    8.2236    9.3009 H   0  0  0  0  0  0  0  0  0  0  0  0
    7.4100    6.9289    7.4544 C   0  0  0  0  0  0  0  0  0  0  0  0
    8.3298    7.1318    6.4336 C   0  0  0  0  0  0  0  0  0  0  0  0
    9.3877    7.0163    6.6259 H   0  0  0  0  0  0  0  0  0  0  0  0
    7.8842    7.4817    5.1704 C   0  0  0  0  0  0  0  0  0  0  0  0
    8.5986    7.6381    4.3753 H   0  0  0  0  0  0  0  0  0  0  0  0
    6.5300    7.6359    4.9266 C   0  0  0  0  0  0  0  0  0  0  0  0
    6.1888    7.9133    3.9401 H   0  0  0  0  0  0  0  0  0  0  0  0
    5.6118    7.4412    5.9475 C   0  0  0  0  0  0  0  0  0  0  0  0
    4.5567    7.5708    5.7585 H   0  0  0  0  0  0  0  0  0  0  0  0
    6.0485    7.0886    7.2091 C   0  0  0  0  0  0  0  0  0  0  0  0
    5.3458    6.9490    8.0206 H   0  0  0  0  0  0  0  0  0  0  0  0
  1  3  1  0  0  0  0
  1  6  1  0  0  0  0
  2  1  1  0  0  0  0
  4 12  1  0  0  0  0
  5 19  1  0  0  0  0
  5  1  1  0  0  0  0
  6  7  1  0  0  0  0
  6  8  1  0  0  0  0
  9  6  1  0  0  0  0
 10 11  1  0  0  0  0
 10  9  2  0  0  0  0
 12 10  1  0  0  0  0
 13 12  2  0  0  0  0
 13 15  1  0  0  0  0
 14 13  1  0  0  0  0
 15 17  2  0  0  0  0
 16 15  1  0  0  0  0
 17 18  1  0  0  0  0
 17  9  1  0  0  0  0
 19 20  1  0  0  0  0
 20 22  2  0  0  0  0
 20 21  1  0  0  0  0
 22 23  1  0  0  0  0
 24 25  1  0  0  0  0
 24 22  1  0  0  0  0
 26 24  2  0  0  0  0
 27 26  1  0  0  0  0
 28 26  1  0  0  0  0
 28 19  2  0  0  0  0
 29 28  1  0  0  0  0
 30  5  1  0  0  0  0
 30 39  1  0  0  0  0
 31 30  2  0  0  0  0
 32 31  1  0  0  0  0
 33 31  1  0  0  0  0
 33 35  2  0  0  0  0
 34 33  1  0  0  0  0
 35 36  1  0  0  0  0
 35 37  1  0  0  0  0
 37 39  2  0  0  0  0
 37 38  1  0  0  0  0
 39 40  1  0  0  0  0
 41  5  1  0  0  0  0
 42 43  1  0  0  0  0
 42 41  2  0  0  0  0
 44 42  1  0  0  0  0
 45 44  1  0  0  0  0
 46 44  2  0  0  0  0
 46 48  1  0  0  0  0
 47 46  1  0  0  0  0
 48 50  2  0  0  0  0
 49 48  1  0  0  0  0
 50 41  1  0  0  0  0
 50 51  1  0  0  0  0
M  END
$$$$
