CSD_code = YELNEL | q = 0 | S = 0 | Stoichiometry = C27H23ClN6O3Zn | MND = 4
 OpenBabel04212202123D

 61 66  0  0  1  0  0  0  0  0999 V2000
    5.5200    5.0329    7.5532 C   0  0  2  0  0  3  0  0  0  0  0  0
    6.2943    5.6463    8.5458 C   0  0  0  0  0  0  0  0  0  0  0  0
    7.0065    5.1993    9.2083 H   0  0  0  0  0  0  0  0  0  0  0  0
    5.9327    6.9843    8.4909 C   0  0  0  0  0  0  0  0  0  0  0  0
    5.4709    3.6365    7.1493 C   0  0  0  0  0  0  0  0  0  0  0  0
    4.6563    3.2232    6.0928 C   0  0  0  0  0  0  0  0  0  0  0  0
    4.0514    3.9398    5.5616 H   0  0  0  0  0  0  0  0  0  0  0  0
    4.6218    1.8913    5.7244 C   0  0  0  0  0  0  0  0  0  0  0  0
    3.9880    1.5823    4.9065 H   0  0  0  0  0  0  0  0  0  0  0  0
    5.3905    0.9537    6.3947 C   0  0  0  0  0  0  0  0  0  0  0  0
    5.3587   -0.0857    6.1027 H   0  0  0  0  0  0  0  0  0  0  0  0
    6.2005    1.3558    7.4436 C   0  0  0  0  0  0  0  0  0  0  0  0
    6.8018    0.6303    7.9722 H   0  0  0  0  0  0  0  0  0  0  0  0
    6.2415    2.6848    7.8185 C   0  0  0  0  0  0  0  0  0  0  0  0
    6.8746    2.9849    8.6393 H   0  0  0  0  0  0  0  0  0  0  0  0
    5.8344   11.8712    8.3260 C   0  0  2  0  0  3  0  0  0  0  0  0
    4.9855   12.6075    7.5073 C   0  0  0  0  0  0  0  0  0  0  0  0
    4.8835   13.6715    7.4507 H   0  0  0  0  0  0  0  0  0  0  0  0
    4.2904   11.6538    6.7600 C   0  0  0  0  0  0  0  0  0  0  0  0
    6.7981   12.3090    9.3212 C   0  0  0  0  0  0  0  0  0  0  0  0
    7.8251   11.4629    9.7420 C   0  0  0  0  0  0  0  0  0  0  0  0
    7.9195   10.4759    9.3153 H   0  0  0  0  0  0  0  0  0  0  0  0
    8.7367   11.8897   10.6886 C   0  0  0  0  0  0  0  0  0  0  0  0
    9.5299   11.2286   11.0051 H   0  0  0  0  0  0  0  0  0  0  0  0
    8.6398   13.1613   11.2299 C   0  0  0  0  0  0  0  0  0  0  0  0
    9.3534   13.4908   11.9697 H   0  0  0  0  0  0  0  0  0  0  0  0
    7.6241   14.0081   10.8177 C   0  0  0  0  0  0  0  0  0  0  0  0
    7.5432   14.9991   11.2384 H   0  0  0  0  0  0  0  0  0  0  0  0
    6.7101   13.5880    9.8704 C   0  0  0  0  0  0  0  0  0  0  0  0
    5.9126   14.2462    9.5630 H   0  0  0  0  0  0  0  0  0  0  0  0
    1.7319    8.7673    3.5117 C   0  0  0  0  0  0  0  0  0  0  0  0
    1.9685    7.4114    3.4907 C   0  0  0  0  0  0  0  0  0  0  0  0
    1.7013    6.7046    2.7337 H   0  0  0  0  0  0  0  0  0  0  0  0
    2.6884    7.1036    4.6793 C   0  0  0  0  0  0  0  0  0  0  0  0
    1.0624    9.6217    2.5441 C   0  0  0  0  0  0  0  0  0  0  0  0
    1.3217   10.9917    2.4935 C   0  0  0  0  0  0  0  0  0  0  0  0
    2.0417   11.4284    3.1703 H   0  0  0  0  0  0  0  0  0  0  0  0
    0.6825   11.7922    1.5657 C   0  0  0  0  0  0  0  0  0  0  0  0
    0.8939   12.8515    1.5341 H   0  0  0  0  0  0  0  0  0  0  0  0
   -0.2235   11.2421    0.6742 C   0  0  0  0  0  0  0  0  0  0  0  0
   -0.7218   11.8703   -0.0492 H   0  0  0  0  0  0  0  0  0  0  0  0
   -0.4849    9.8822    0.7137 C   0  0  0  0  0  0  0  0  0  0  0  0
   -1.1904    9.4485    0.0203 H   0  0  0  0  0  0  0  0  0  0  0  0
    0.1515    9.0776    1.6391 C   0  0  0  0  0  0  0  0  0  0  0  0
   -0.0611    8.0207    1.6757 H   0  0  0  0  0  0  0  0  0  0  0  0
    2.4591    9.0717    8.8603 Cl  0  0  0  0  0  0  0  0  0  0  0  0
    5.0141    7.1822    7.5462 N   0  0  0  0  0  0  0  0  0  0  0  0
    4.7754    5.9881    6.9861 N   0  0  0  0  0  0  0  0  0  0  0  0
    4.0347    5.9570    6.1460 H   0  0  0  0  0  0  0  0  0  0  0  0
    4.6861   10.4279    7.0781 N   0  0  0  0  0  0  0  0  0  0  0  0
    5.6260   10.5790    8.0207 N   0  0  0  0  0  0  0  0  0  0  0  0
    5.9899    9.7561    8.4871 H   0  0  0  0  0  0  0  0  0  0  0  0
    2.8512    8.2521    5.3796 N   0  0  0  0  0  0  0  0  0  0  0  0
    2.2732    9.2494    4.6502 N   0  0  0  0  0  0  0  0  0  0  0  0
    2.2794   10.1939    4.9967 H   0  0  0  0  0  0  0  0  0  0  0  0
    6.4033    8.0373    9.2135 O   0  0  0  0  0  0  0  0  0  0  0  0
    6.8547    7.7041    9.9970 H   0  0  0  0  0  0  0  0  0  0  0  0
    3.3455   11.8393    5.8183 O   0  0  0  0  0  0  0  0  0  0  0  0
    3.1143   12.7751    5.7775 H   0  0  0  0  0  0  0  0  0  0  0  0
    3.1277    5.9802    5.0566 O   0  0  0  0  0  0  0  0  0  0  0  0
    3.6480    8.6090    7.1191 Zn  0  0  2  0  0  0  0  0  0  0  0  0
  1  5  1  6  0  0  0
  1  2  1  0  0  0  0
  2  3  1  0  0  0  0
  4  2  2  0  0  0  0
  4 56  1  0  0  0  0
  5 14  1  0  0  0  0
  6  5  2  0  0  0  0
  7  6  1  0  0  0  0
  8  6  1  0  0  0  0
  8 10  2  0  0  0  0
  9  8  1  0  0  0  0
 10 12  1  0  0  0  0
 11 10  1  0  0  0  0
 12 14  2  0  0  0  0
 12 13  1  0  0  0  0
 14 15  1  0  0  0  0
 16 20  1  6  0  0  0
 17 16  1  0  0  0  0
 18 17  1  0  0  0  0
 19 50  1  0  0  0  0
 19 17  2  0  0  0  0
 20 21  2  0  0  0  0
 20 29  1  0  0  0  0
 21 23  1  0  0  0  0
 22 21  1  0  0  0  0
 23 24  1  0  0  0  0
 23 25  2  0  0  0  0
 25 26  1  0  0  0  0
 27 25  1  0  0  0  0
 27 28  1  0  0  0  0
 29 27  2  0  0  0  0
 30 29  1  0  0  0  0
 31 54  1  0  0  0  0
 32 31  2  0  0  0  0
 32 34  1  0  0  0  0
 33 32  1  0  0  0  0
 34 60  2  0  0  0  0
 34 53  1  0  0  0  0
 35 31  1  0  0  0  0
 36 35  1  0  0  0  0
 36 37  1  0  0  0  0
 38 36  2  0  0  0  0
 39 38  1  0  0  0  0
 40 42  2  0  0  0  0
 40 38  1  0  0  0  0
 41 40  1  0  0  0  0
 42 44  1  0  0  0  0
 43 42  1  0  0  0  0
 44 45  1  0  0  0  0
 44 35  2  0  0  0  0
 47  4  1  0  0  0  0
 48 47  1  0  0  0  0
 48  1  1  0  0  0  0
 49 48  1  0  0  0  0
 50 61  1  0  0  0  0
 50 51  1  0  0  0  0
 51 16  1  0  0  0  0
 51 52  1  0  0  0  0
 53 61  1  0  0  0  0
 54 55  1  0  0  0  0
 54 53  1  0  0  0  0
 56 57  1  0  0  0  0
 58 19  1  0  0  0  0
 59 58  1  0  0  0  0
 61 47  1  0  0  0  0
 61 46  1  1  0  0  0
M  END
$$$$
