CSD_code = YEMFUU | q = 0 | S = 0 | Stoichiometry = C21H25ClN5PPtS | MND = 4
 OpenBabel04212202123D

 55 61  0  0  1  0  0  0  0  0999 V2000
   -1.4924   11.7387    9.5560 Pt  0  0  2  0  0  0  0  0  0  0  0  0
   -2.7275   11.9127    7.5787 Cl  0  0  0  0  0  0  0  0  0  0  0  0
   -2.9097   14.3718   12.9117 S   0  0  0  0  0  0  0  0  0  0  0  0
   -0.3638   10.1832    8.3734 P   0  0  1  0  0  4  0  0  0  0  0  0
   -2.5510   13.1516   10.6566 N   0  0  0  0  0  0  0  0  0  0  0  0
    2.3138   10.0649   13.1823 N   0  0  0  0  0  0  0  0  0  0  0  0
    0.0244    8.6963    6.0747 N   0  0  1  0  0  0  0  0  0  0  0  0
    2.0244    9.2994    7.3075 N   0  0  2  0  0  0  0  0  0  0  0  0
    0.5259    7.5772    8.1674 N   0  0  2  0  0  0  0  0  0  0  0  0
   -0.4514   11.6045   11.2800 C   0  0  0  0  0  0  0  0  0  0  0  0
    0.6414   10.8300   11.6144 C   0  0  0  0  0  0  0  0  0  0  0  0
    1.0581   10.1774   10.8654 H   0  0  0  0  0  0  0  0  0  0  0  0
    1.2336   10.8508   12.8921 C   0  0  0  0  0  0  0  0  0  0  0  0
    0.6799   11.7048   13.8644 C   0  0  0  0  0  0  0  0  0  0  0  0
    1.0994   11.7581   14.8547 H   0  0  0  0  0  0  0  0  0  0  0  0
   -0.4014   12.4926   13.5617 C   0  0  0  0  0  0  0  0  0  0  0  0
   -0.8201   13.1510   14.3104 H   0  0  0  0  0  0  0  0  0  0  0  0
   -0.9685   12.4523   12.2877 C   0  0  0  0  0  0  0  0  0  0  0  0
   -2.0810   13.2401   11.8841 C   0  0  0  0  0  0  0  0  0  0  0  0
   -3.9673   14.7515   11.5799 C   0  0  0  0  0  0  0  0  0  0  0  0
   -5.0149   15.6545   11.5695 C   0  0  0  0  0  0  0  0  0  0  0  0
   -5.2563   16.2186   12.4567 H   0  0  0  0  0  0  0  0  0  0  0  0
   -5.7317   15.8066   10.3989 C   0  0  0  0  0  0  0  0  0  0  0  0
   -6.5547   16.5042   10.3644 H   0  0  0  0  0  0  0  0  0  0  0  0
   -5.3986   15.0677    9.2672 C   0  0  0  0  0  0  0  0  0  0  0  0
   -5.9694   15.2008    8.3608 H   0  0  0  0  0  0  0  0  0  0  0  0
   -4.3546   14.1673    9.2752 C   0  0  0  0  0  0  0  0  0  0  0  0
   -4.1030   13.5970    8.3958 H   0  0  0  0  0  0  0  0  0  0  0  0
   -3.6168   13.9922   10.4453 C   0  0  0  0  0  0  0  0  0  0  0  0
    2.9143    9.2309   12.1721 C   0  0  0  0  0  0  0  0  0  0  0  0
    3.8017    8.7507   12.5772 H   0  0  0  0  0  0  0  0  0  0  0  0
    2.2265    8.4456   11.8386 H   0  0  0  0  0  0  0  0  0  0  0  0
    3.2203    9.8234   11.3047 H   0  0  0  0  0  0  0  0  0  0  0  0
    2.8619   10.0375   14.5165 C   0  0  0  0  0  0  0  0  0  0  0  0
    3.6594    9.3005   14.5682 H   0  0  0  0  0  0  0  0  0  0  0  0
    3.2783   11.0107   14.7954 H   0  0  0  0  0  0  0  0  0  0  0  0
    2.0980    9.7613   15.2488 H   0  0  0  0  0  0  0  0  0  0  0  0
   -0.8350    9.7224    6.6295 C   0  0  0  0  0  0  0  0  0  0  0  0
   -1.8713    9.3692    6.6215 H   0  0  0  0  0  0  0  0  0  0  0  0
   -0.7847   10.6155    5.9982 H   0  0  0  0  0  0  0  0  0  0  0  0
    1.4533   10.4257    8.0189 C   0  0  0  0  0  0  0  0  0  0  0  0
    1.5657   11.3272    7.4057 H   0  0  0  0  0  0  0  0  0  0  0  0
    2.0094   10.5822    8.9474 H   0  0  0  0  0  0  0  0  0  0  0  0
   -0.2830    8.4312    9.0143 C   0  0  0  0  0  0  0  0  0  0  0  0
    0.1179    8.4112   10.0313 H   0  0  0  0  0  0  0  0  0  0  0  0
   -1.3033    8.0321    9.0498 H   0  0  0  0  0  0  0  0  0  0  0  0
    1.4071    9.1284    6.0005 C   0  0  0  0  0  0  0  0  0  0  0  0
    1.9750    8.3681    5.4544 H   0  0  0  0  0  0  0  0  0  0  0  0
    1.4602   10.0736    5.4545 H   0  0  0  0  0  0  0  0  0  0  0  0
    1.8929    8.0601    8.0565 C   0  0  0  0  0  0  0  0  0  0  0  0
    2.3035    8.2044    9.0597 H   0  0  0  0  0  0  0  0  0  0  0  0
    2.4793    7.2925    7.5409 H   0  0  0  0  0  0  0  0  0  0  0  0
   -0.0434    7.4616    6.8329 C   0  0  0  0  0  0  0  0  0  0  0  0
   -1.0867    7.1472    6.9165 H   0  0  0  0  0  0  0  0  0  0  0  0
    0.5185    6.6946    6.2899 H   0  0  0  0  0  0  0  0  0  0  0  0
  1  2  1  6  0  0  0
  1  5  1  0  0  0  0
  1 10  2  0  0  0  0
  4 38  1  6  0  0  0
  4 44  1  0  0  0  0
  4  1  1  0  0  0  0
  5 19  1  0  0  0  0
  6 34  1  0  0  0  0
  7 47  1  1  0  0  0
  7 38  1  0  0  0  0
  7 53  1  0  0  0  0
  8 47  1  6  0  0  0
  8 41  1  0  0  0  0
  8 50  1  0  0  0  0
  9 53  1  6  0  0  0
  9 44  1  0  0  0  0
 10 11  1  0  0  0  0
 10 18  1  0  0  0  0
 11 13  2  0  0  0  0
 12 11  1  0  0  0  0
 13  6  1  0  0  0  0
 13 14  1  0  0  0  0
 14 15  1  0  0  0  0
 16 14  2  0  0  0  0
 16 17  1  0  0  0  0
 18 16  1  0  0  0  0
 19 18  2  0  0  0  0
 19  3  1  0  0  0  0
 20  3  1  0  0  0  0
 21 20  1  0  0  0  0
 21 22  1  0  0  0  0
 23 21  2  0  0  0  0
 24 23  1  0  0  0  0
 25 27  2  0  0  0  0
 25 23  1  0  0  0  0
 26 25  1  0  0  0  0
 27 29  1  0  0  0  0
 28 27  1  0  0  0  0
 29  5  1  0  0  0  0
 29 20  2  0  0  0  0
 30 31  1  0  0  0  0
 30  6  1  0  0  0  0
 32 30  1  0  0  0  0
 33 30  1  0  0  0  0
 34 35  1  0  0  0  0
 34 36  1  0  0  0  0
 34 37  1  0  0  0  0
 39 38  1  0  0  0  0
 40 38  1  0  0  0  0
 41  4  1  0  0  0  0
 41 43  1  0  0  0  0
 42 41  1  0  0  0  0
 44 46  1  0  0  0  0
 44 45  1  0  0  0  0
 48 47  1  0  0  0  0
 49 47  1  0  0  0  0
 50  9  1  0  0  0  0
 50 51  1  0  0  0  0
 52 50  1  0  0  0  0
 53 54  1  0  0  0  0
 55 53  1  0  0  0  0
M  END
$$$$
