CSD_code = YEMFII | q = 0 | S = 0 | Stoichiometry = C19H19BrClN4PPtS | MND = 4
 OpenBabel04212202123D

 47 53  0  0  1  0  0  0  0  0999 V2000
    2.2760    1.3222    5.4148 Pt  0  0  2  0  0  0  0  0  0  0  0  0
    0.9656    3.1583   -0.0823 Br  0  0  0  0  0  0  0  0  0  0  0  0
    3.3864    0.1818    7.0941 Cl  0  0  0  0  0  0  0  0  0  0  0  0
   -1.0136    4.0427    6.8385 S   0  0  0  0  0  0  0  0  0  0  0  0
    3.7724    0.2751    4.0795 P   0  0  2  0  0  4  0  0  0  0  0  0
    0.9030    2.3204    6.6325 N   0  0  0  0  0  0  0  0  0  0  0  0
    5.9355   -1.4011    3.7351 N   0  0  2  0  0  0  0  0  0  0  0  0
    5.7834    0.4806    2.2137 N   0  0  1  0  0  0  0  0  0  0  0  0
    4.2751   -1.4150    1.9687 N   0  0  1  0  0  0  0  0  0  0  0  0
    1.2987    2.3516    3.9855 C   0  0  0  0  0  0  0  0  0  0  0  0
    1.4655    2.3695    2.6062 C   0  0  0  0  0  0  0  0  0  0  0  0
    2.2084    1.7464    2.1316 H   0  0  0  0  0  0  0  0  0  0  0  0
    0.6817    3.1834    1.8058 C   0  0  0  0  0  0  0  0  0  0  0  0
   -0.2979    4.0147    2.3273 C   0  0  0  0  0  0  0  0  0  0  0  0
   -0.8911    4.6399    1.6789 H   0  0  0  0  0  0  0  0  0  0  0  0
   -0.4922    4.0169    3.6924 C   0  0  0  0  0  0  0  0  0  0  0  0
   -1.2485    4.6496    4.1347 H   0  0  0  0  0  0  0  0  0  0  0  0
    0.2919    3.1979    4.5026 C   0  0  0  0  0  0  0  0  0  0  0  0
    0.1438    3.1272    5.9277 C   0  0  0  0  0  0  0  0  0  0  0  0
   -0.4290    3.2728    8.2852 C   0  0  0  0  0  0  0  0  0  0  0  0
   -0.8717    3.4667    9.5824 C   0  0  0  0  0  0  0  0  0  0  0  0
   -1.6669    4.1657    9.7880 H   0  0  0  0  0  0  0  0  0  0  0  0
   -0.2675    2.7422   10.5898 C   0  0  0  0  0  0  0  0  0  0  0  0
   -0.5936    2.8744   11.6100 H   0  0  0  0  0  0  0  0  0  0  0  0
    0.7563    1.8430   10.2996 C   0  0  0  0  0  0  0  0  0  0  0  0
    1.2140    1.2852   11.1019 H   0  0  0  0  0  0  0  0  0  0  0  0
    1.1997    1.6478    9.0096 C   0  0  0  0  0  0  0  0  0  0  0  0
    1.9941    0.9531    8.7890 H   0  0  0  0  0  0  0  0  0  0  0  0
    0.6084    2.3701    7.9732 C   0  0  0  0  0  0  0  0  0  0  0  0
    5.0820   -0.8571    4.7699 C   0  0  0  0  0  0  0  0  0  0  0  0
    5.6937   -0.3014    5.4885 H   0  0  0  0  0  0  0  0  0  0  0  0
    4.5979   -1.6783    5.3089 H   0  0  0  0  0  0  0  0  0  0  0  0
    4.9276    1.3074    3.0379 C   0  0  0  0  0  0  0  0  0  0  0  0
    4.3667    1.9922    2.3960 H   0  0  0  0  0  0  0  0  0  0  0  0
    5.5511    1.9101    3.7086 H   0  0  0  0  0  0  0  0  0  0  0  0
    3.1751   -0.8961    2.7533 C   0  0  0  0  0  0  0  0  0  0  0  0
    2.6567   -1.7312    3.2386 H   0  0  0  0  0  0  0  0  0  0  0  0
    2.4632   -0.4018    2.0866 H   0  0  0  0  0  0  0  0  0  0  0  0
    6.6531   -0.3620    3.0190 C   0  0  0  0  0  0  0  0  0  0  0  0
    7.3744   -0.8428    2.3508 H   0  0  0  0  0  0  0  0  0  0  0  0
    7.1926    0.2620    3.7361 H   0  0  0  0  0  0  0  0  0  0  0  0
    5.0189   -0.3570    1.3031 C   0  0  0  0  0  0  0  0  0  0  0  0
    5.7210   -0.8257    0.6066 H   0  0  0  0  0  0  0  0  0  0  0  0
    4.3245    0.2690    0.7368 H   0  0  0  0  0  0  0  0  0  0  0  0
    5.1903   -2.2014    2.7804 C   0  0  0  0  0  0  0  0  0  0  0  0
    4.6252   -2.9679    3.3168 H   0  0  0  0  0  0  0  0  0  0  0  0
    5.9056   -2.6887    2.1106 H   0  0  0  0  0  0  0  0  0  0  0  0
  1  6  1  0  0  0  0
  1  3  1  6  0  0  0
  2 13  1  0  0  0  0
  4 20  1  0  0  0  0
  5 36  1  6  0  0  0
  5 30  1  0  0  0  0
  5  1  1  0  0  0  0
  6 29  1  0  0  0  0
  7 45  1  6  0  0  0
  7 30  1  0  0  0  0
  8 42  1  6  0  0  0
  8 39  1  0  0  0  0
  8 33  1  0  0  0  0
  9 42  1  1  0  0  0
  9 36  1  0  0  0  0
  9 45  1  0  0  0  0
 10 18  1  0  0  0  0
 10  1  2  0  0  0  0
 11 10  1  0  0  0  0
 12 11  1  0  0  0  0
 13 14  1  0  0  0  0
 13 11  2  0  0  0  0
 14 16  2  0  0  0  0
 15 14  1  0  0  0  0
 16 17  1  0  0  0  0
 16 18  1  0  0  0  0
 18 19  2  0  0  0  0
 19  6  1  0  0  0  0
 19  4  1  0  0  0  0
 20 21  1  0  0  0  0
 21 22  1  0  0  0  0
 21 23  2  0  0  0  0
 23 24  1  0  0  0  0
 25 23  1  0  0  0  0
 25 26  1  0  0  0  0
 27 25  2  0  0  0  0
 28 27  1  0  0  0  0
 29 20  2  0  0  0  0
 29 27  1  0  0  0  0
 30 32  1  0  0  0  0
 30 31  1  0  0  0  0
 33 35  1  0  0  0  0
 33  5  1  0  0  0  0
 34 33  1  0  0  0  0
 36 37  1  0  0  0  0
 38 36  1  0  0  0  0
 39  7  1  0  0  0  0
 39 41  1  0  0  0  0
 40 39  1  0  0  0  0
 43 42  1  0  0  0  0
 44 42  1  0  0  0  0
 45 46  1  0  0  0  0
 47 45  1  0  0  0  0
M  END
$$$$
