CSD_code = YENBEZ | q = 0 | S = 0 | Stoichiometry = C15H35ClN2OSi2Ti | MND = 4
 OpenBabel04212202123D

 57 58  0  0  1  0  0  0  0  0999 V2000
    6.7390   10.2785    8.8125 Ti  0  0  2  0  0  0  0  0  0  0  0  0
    7.0344    8.7074    7.8421 N   0  0  0  0  0  0  0  0  0  0  0  0
    4.9752   10.3574    8.2516 N   0  0  0  0  0  0  0  0  0  0  0  0
    7.7223   11.5858    8.3035 O   0  0  0  0  0  0  0  0  0  0  0  0
    8.3774    7.7661    8.3838 Si  0  0  0  0  0  0  0  0  0  0  0  0
    3.9158   11.5980    8.7759 Si  0  0  0  0  0  0  0  0  0  0  0  0
    6.6121    9.6939   10.9106 Cl  0  0  0  0  0  0  0  0  0  0  0  0
    5.7085    8.1307    7.7080 C   0  0  2  0  0  0  0  0  0  0  0  0
    5.3834    7.7094    8.6844 H   0  0  0  0  0  0  0  0  0  0  0  0
    5.6088    7.0241    6.6551 C   0  0  0  0  0  0  0  0  0  0  0  0
    6.3162    6.2294    6.8938 H   0  0  0  0  0  0  0  0  0  0  0  0
    5.8822    7.4385    5.6817 H   0  0  0  0  0  0  0  0  0  0  0  0
    4.1862    6.4707    6.6223 C   0  0  0  0  0  0  0  0  0  0  0  0
    4.1060    5.6987    5.8541 H   0  0  0  0  0  0  0  0  0  0  0  0
    3.9633    6.0079    7.5862 H   0  0  0  0  0  0  0  0  0  0  0  0
    3.1686    7.5761    6.3486 C   0  0  0  0  0  0  0  0  0  0  0  0
    3.3322    7.9755    5.3449 H   0  0  0  0  0  0  0  0  0  0  0  0
    2.1587    7.1623    6.3827 H   0  0  0  0  0  0  0  0  0  0  0  0
    3.2964    8.7102    7.3636 C   0  0  0  0  0  0  0  0  0  0  0  0
    3.0727    8.3503    8.3699 H   0  0  0  0  0  0  0  0  0  0  0  0
    2.5936    9.5094    7.1243 H   0  0  0  0  0  0  0  0  0  0  0  0
    4.7220    9.2646    7.3444 C   0  0  1  0  0  0  0  0  0  0  0  0
    4.9435    9.5905    6.3060 H   0  0  0  0  0  0  0  0  0  0  0  0
    7.8932    6.3394    9.5752 C   0  0  0  0  0  0  0  0  0  0  0  0
    7.3240    6.7285   10.4168 H   0  0  0  0  0  0  0  0  0  0  0  0
    8.7711    5.8398    9.9725 H   0  0  0  0  0  0  0  0  0  0  0  0
    7.2858    5.5860    9.0828 H   0  0  0  0  0  0  0  0  0  0  0  0
    9.3539    7.0302    6.9008 C   0  0  0  0  0  0  0  0  0  0  0  0
    8.7919    6.2564    6.3892 H   0  0  0  0  0  0  0  0  0  0  0  0
   10.2809    6.5851    7.2450 H   0  0  0  0  0  0  0  0  0  0  0  0
    9.6055    7.7892    6.1661 H   0  0  0  0  0  0  0  0  0  0  0  0
    9.5329    8.9605    9.3518 C   0  0  0  0  0  0  0  0  0  0  0  0
    9.2084   10.0003    9.2392 H   0  0  0  0  0  0  0  0  0  0  0  0
   10.5631    8.8885    9.0161 H   0  0  0  0  0  0  0  0  0  0  0  0
    9.5177    8.7266   10.4136 H   0  0  0  0  0  0  0  0  0  0  0  0
    3.1779   12.6458    7.3399 C   0  0  0  0  0  0  0  0  0  0  0  0
    3.9419   13.2205    6.8237 H   0  0  0  0  0  0  0  0  0  0  0  0
    2.4399   13.3468    7.7149 H   0  0  0  0  0  0  0  0  0  0  0  0
    2.6855   12.0198    6.6020 H   0  0  0  0  0  0  0  0  0  0  0  0
    2.4663   11.0054    9.8880 C   0  0  0  0  0  0  0  0  0  0  0  0
    1.6698   10.5434    9.3135 H   0  0  0  0  0  0  0  0  0  0  0  0
    2.0328   11.8389   10.4318 H   0  0  0  0  0  0  0  0  0  0  0  0
    2.8129   10.2800   10.6196 H   0  0  0  0  0  0  0  0  0  0  0  0
    5.0665   12.7064    9.8358 C   0  0  0  0  0  0  0  0  0  0  0  0
    5.2962   12.2180   10.7829 H   0  0  0  0  0  0  0  0  0  0  0  0
    4.6084   13.6631   10.0669 H   0  0  0  0  0  0  0  0  0  0  0  0
    6.0084   12.9023    9.3163 H   0  0  0  0  0  0  0  0  0  0  0  0
    8.1375   12.0786    7.0759 C   0  0  0  0  0  0  0  0  0  0  0  0
    8.1601   13.1857    7.1306 H   0  0  0  0  0  0  0  0  0  0  0  0
    7.1494   11.6401    5.9859 C   0  0  0  0  0  0  0  0  0  0  0  0
    7.1559   10.5455    5.9456 H   0  0  0  0  0  0  0  0  0  0  0  0
    7.4340   12.0502    5.0187 H   0  0  0  0  0  0  0  0  0  0  0  0
    6.1458   11.9817    6.2470 H   0  0  0  0  0  0  0  0  0  0  0  0
    9.5461   11.5663    6.7444 C   0  0  0  0  0  0  0  0  0  0  0  0
   10.2438   11.8603    7.5266 H   0  0  0  0  0  0  0  0  0  0  0  0
    9.8857   11.9787    5.7974 H   0  0  0  0  0  0  0  0  0  0  0  0
    9.5206   10.4778    6.6821 H   0  0  0  0  0  0  0  0  0  0  0  0
  1  7  1  1  0  0  0
  2  5  1  0  0  0  0
  2  1  1  0  0  0  0
  3  6  1  0  0  0  0
  3  1  1  0  0  0  0
  4  1  1  0  0  0  0
  5 32  1  0  0  0  0
  5 24  1  0  0  0  0
  6 44  1  0  0  0  0
  6 40  1  0  0  0  0
  8  2  1  0  0  0  0
  8  9  1  1  0  0  0
 10 11  1  0  0  0  0
 10  8  1  0  0  0  0
 12 10  1  0  0  0  0
 13 10  1  0  0  0  0
 13 15  1  0  0  0  0
 14 13  1  0  0  0  0
 16 18  1  0  0  0  0
 16 13  1  0  0  0  0
 16 19  1  0  0  0  0
 17 16  1  0  0  0  0
 19 20  1  0  0  0  0
 21 19  1  0  0  0  0
 22 23  1  6  0  0  0
 22 19  1  0  0  0  0
 22  8  1  0  0  0  0
 22  3  1  0  0  0  0
 24 26  1  0  0  0  0
 24 25  1  0  0  0  0
 27 24  1  0  0  0  0
 28 30  1  0  0  0  0
 28  5  1  0  0  0  0
 29 28  1  0  0  0  0
 31 28  1  0  0  0  0
 32 35  1  0  0  0  0
 33 32  1  0  0  0  0
 34 32  1  0  0  0  0
 36 38  1  0  0  0  0
 36  6  1  0  0  0  0
 37 36  1  0  0  0  0
 39 36  1  0  0  0  0
 40 42  1  0  0  0  0
 40 43  1  0  0  0  0
 41 40  1  0  0  0  0
 44 46  1  0  0  0  0
 44 45  1  0  0  0  0
 47 44  1  0  0  0  0
 48 49  1  0  0  0  0
 48  4  1  0  0  0  0
 50 53  1  0  0  0  0
 50 48  1  0  0  0  0
 51 50  1  0  0  0  0
 52 50  1  0  0  0  0
 54 48  1  0  0  0  0
 54 55  1  0  0  0  0
 56 54  1  0  0  0  0
 57 54  1  0  0  0  0
M  END
$$$$
