CSD_code = YENMIO | q = 0 | S = 0 | Stoichiometry = C24H20ClN7Ru | MND = 6
 OpenBabel04212202123D

 53 56  0  0  0  0  0  0  0  0999 V2000
    8.9347    2.7917   12.6141 Ru  0  0  0  0  0  0  0  0  0  0  0  0
    9.7247    4.3310   14.2376 Cl  0  0  0  0  0  0  0  0  0  0  0  0
    8.2615    1.4833   11.2475 N   0  0  0  0  0  2  0  0  0  0  0  0
    6.4289   -2.4743   11.6402 N   0  0  0  0  0  0  0  0  0  0  0  0
   10.3934   -1.9141    9.6211 N   0  0  0  0  0  0  0  0  0  0  0  0
   10.0427    3.6984   11.2100 N   0  0  0  0  0  0  0  0  0  0  0  0
   10.4741    1.5491   13.0310 N   0  0  0  0  0  0  0  0  0  0  0  0
    7.8181    1.8957   14.0487 N   0  0  0  0  0  0  0  0  0  0  0  0
    7.4021    4.0099   12.1904 N   0  0  0  0  0  0  0  0  0  0  0  0
    8.2833    0.3298   11.0428 C   0  0  0  0  0  2  0  0  0  0  0  0
    7.2796   -1.8213   11.2215 C   0  0  0  0  0  0  0  0  0  0  0  0
    9.4330   -1.5212   10.1210 C   0  0  0  0  0  0  0  0  0  0  0  0
    8.3098   -0.9990   10.7637 C   0  0  0  0  0  3  0  0  0  0  0  0
    9.5658    3.9295    9.9802 C   0  0  0  0  0  3  0  0  0  0  0  0
    8.5628    3.5729    9.7751 H   0  0  0  0  0  0  0  0  0  0  0  0
   10.2953    4.5657    8.9947 C   0  0  0  0  0  0  0  0  0  0  0  0
    9.8576    4.7195    8.0210 H   0  0  0  0  0  0  0  0  0  0  0  0
   11.5840    4.9955    9.2761 C   0  0  0  0  0  0  0  0  0  0  0  0
   12.1789    5.4971    8.5291 H   0  0  0  0  0  0  0  0  0  0  0  0
   12.0820    4.7575   10.5479 C   0  0  0  0  0  0  0  0  0  0  0  0
   13.0765    5.0703   10.8239 H   0  0  0  0  0  0  0  0  0  0  0  0
   11.2884    4.1092   11.4757 C   0  0  0  0  0  0  0  0  0  0  0  0
   11.6539    3.9328   12.4802 H   0  0  0  0  0  0  0  0  0  0  0  0
   10.8151    1.2857   14.2977 C   0  0  0  0  0  3  0  0  0  0  0  0
   10.3006    1.8521   15.0648 H   0  0  0  0  0  0  0  0  0  0  0  0
   11.7890    0.3669   14.6411 C   0  0  0  0  0  0  0  0  0  0  0  0
   12.0197    0.1997   15.6814 H   0  0  0  0  0  0  0  0  0  0  0  0
   12.4478   -0.3304   13.6398 C   0  0  0  0  0  0  0  0  0  0  0  0
   13.1988   -1.0679   13.8756 H   0  0  0  0  0  0  0  0  0  0  0  0
   12.1157   -0.0447   12.3241 C   0  0  0  0  0  0  0  0  0  0  0  0
   12.5909   -0.5524   11.5005 H   0  0  0  0  0  0  0  0  0  0  0  0
   11.1412    0.9007   12.0672 C   0  0  0  0  0  0  0  0  0  0  0  0
   10.8782    1.1344   11.0418 H   0  0  0  0  0  0  0  0  0  0  0  0
    7.0951    2.6382   14.8963 C   0  0  0  0  0  3  0  0  0  0  0  0
    7.1873    3.7135   14.8011 H   0  0  0  0  0  0  0  0  0  0  0  0
    6.2889    2.0944   15.8786 C   0  0  0  0  0  0  0  0  0  0  0  0
    5.7360    2.7480   16.5346 H   0  0  0  0  0  0  0  0  0  0  0  0
    6.2033    0.7160   16.0019 C   0  0  0  0  0  0  0  0  0  0  0  0
    5.5742    0.2606   16.7504 H   0  0  0  0  0  0  0  0  0  0  0  0
    6.9585   -0.0586   15.1347 C   0  0  0  0  0  0  0  0  0  0  0  0
    6.9361   -1.1356   15.1795 H   0  0  0  0  0  0  0  0  0  0  0  0
    7.7505    0.5659   14.1903 C   0  0  0  0  0  0  0  0  0  0  0  0
    8.3473   -0.0344   13.5145 H   0  0  0  0  0  0  0  0  0  0  0  0
    7.5801    5.3339   12.0997 C   0  0  0  0  0  3  0  0  0  0  0  0
    8.5835    5.7023   12.2779 H   0  0  0  0  0  0  0  0  0  0  0  0
    6.5509    6.2168   11.8323 C   0  0  0  0  0  0  0  0  0  0  0  0
    6.7567    7.2742   11.7792 H   0  0  0  0  0  0  0  0  0  0  0  0
    5.2679    5.7272   11.6400 C   0  0  0  0  0  0  0  0  0  0  0  0
    4.4435    6.3901   11.4291 H   0  0  0  0  0  0  0  0  0  0  0  0
    5.0793    4.3555   11.7285 C   0  0  0  0  0  0  0  0  0  0  0  0
    4.1043    3.9170   11.5858 H   0  0  0  0  0  0  0  0  0  0  0  0
    6.1607    3.5416   12.0041 C   0  0  0  0  0  0  0  0  0  0  0  0
    6.0323    2.4666   12.0639 H   0  0  0  0  0  0  0  0  0  0  0  0
  1  7  1  0  0  0  0
  1  8  1  0  0  0  0
  1  2  1  0  0  0  0
  3  1  1  0  0  0  0
  5 12  3  0  0  0  0
  6 22  1  0  0  0  0
  6  1  1  0  0  0  0
  7 24  1  0  0  0  0
  8 42  1  0  0  0  0
  8 34  1  0  0  0  0
  9  1  1  0  0  0  0
 10  3  1  0  0  0  0
 11  4  3  0  0  0  0
 12 13  1  0  0  0  0
 13 10  1  0  0  0  0
 13 11  1  0  0  0  0
 14  6  1  0  0  0  0
 15 14  1  0  0  0  0
 16 18  2  0  0  0  0
 16 14  1  0  0  0  0
 17 16  1  0  0  0  0
 18 20  1  0  0  0  0
 19 18  1  0  0  0  0
 20 21  1  0  0  0  0
 20 22  2  0  0  0  0
 22 23  1  0  0  0  0
 24 26  1  0  0  0  0
 24 25  1  0  0  0  0
 26 27  1  0  0  0  0
 28 29  1  0  0  0  0
 28 26  2  0  0  0  0
 30 28  1  0  0  0  0
 31 30  1  0  0  0  0
 32 30  2  0  0  0  0
 32  7  1  0  0  0  0
 33 32  1  0  0  0  0
 34 36  1  0  0  0  0
 35 34  1  0  0  0  0
 36 38  2  0  0  0  0
 36 37  1  0  0  0  0
 38 39  1  0  0  0  0
 40 41  1  0  0  0  0
 40 38  1  0  0  0  0
 42 40  2  0  0  0  0
 43 42  1  0  0  0  0
 44  9  1  0  0  0  0
 44 45  1  0  0  0  0
 46 44  1  0  0  0  0
 47 46  1  0  0  0  0
 48 50  1  0  0  0  0
 48 46  2  0  0  0  0
 49 48  1  0  0  0  0
 50 52  2  0  0  0  0
 51 50  1  0  0  0  0
 52 53  1  0  0  0  0
 52  9  1  0  0  0  0
M  END
$$$$
