CSD_code = YEPDIJ | q = 0 | S = 0 | Stoichiometry = C25H34Br2N4O2Pd | MND = 4
 OpenBabel04212202123D

 68 71  0  0  0  0  0  0  0  0999 V2000
    3.6886    7.6618   22.3897 Pd  0  0  0  0  0  0  0  0  0  0  0  0
    2.4123    6.5056   24.1103 Br  0  0  0  0  0  0  0  0  0  0  0  0
    5.0664    8.8578   20.7788 Br  0  0  0  0  0  0  0  0  0  0  0  0
    6.1322    6.9922   23.8739 N   0  0  0  0  0  0  0  0  0  0  0  0
    6.2738    5.7790   23.0839 C   0  0  0  0  0  0  0  0  0  0  0  0
    5.4445    5.8203   22.3418 H   0  0  0  0  0  0  0  0  0  0  0  0
    7.5906    5.7799   22.3133 C   0  0  0  0  0  0  0  0  0  0  0  0
    7.6681    6.6865   21.7163 H   0  0  0  0  0  0  0  0  0  0  0  0
    7.6230    4.9239   21.6444 H   0  0  0  0  0  0  0  0  0  0  0  0
    8.4441    5.7285   22.9829 H   0  0  0  0  0  0  0  0  0  0  0  0
    6.0822    4.5460   23.9635 C   0  0  0  0  0  0  0  0  0  0  0  0
    6.8541    4.4872   24.7260 H   0  0  0  0  0  0  0  0  0  0  0  0
    6.1248    3.6456   23.3562 H   0  0  0  0  0  0  0  0  0  0  0  0
    5.1119    4.5904   24.4554 H   0  0  0  0  0  0  0  0  0  0  0  0
    5.1168    7.8478   23.6777 C   0  0  0  0  0  0  0  0  0  0  0  0
    5.2391    8.8770   24.5300 N   0  0  0  0  0  0  0  0  0  0  0  0
    4.2829    9.9757   24.5505 C   0  0  0  0  0  0  0  0  0  0  0  0
    3.5317    9.7316   23.7607 H   0  0  0  0  0  0  0  0  0  0  0  0
    4.9649   11.2860   24.1675 C   0  0  0  0  0  0  0  0  0  0  0  0
    5.7161   11.5696   24.8994 H   0  0  0  0  0  0  0  0  0  0  0  0
    4.2244   12.0789   24.1043 H   0  0  0  0  0  0  0  0  0  0  0  0
    5.4450   11.1823   23.1961 H   0  0  0  0  0  0  0  0  0  0  0  0
    3.5604   10.0332   25.8933 C   0  0  0  0  0  0  0  0  0  0  0  0
    3.0912    9.0734   26.1019 H   0  0  0  0  0  0  0  0  0  0  0  0
    2.7867   10.7955   25.8604 H   0  0  0  0  0  0  0  0  0  0  0  0
    4.2464   10.2689   26.7021 H   0  0  0  0  0  0  0  0  0  0  0  0
    6.3606    8.6873   25.3106 C   0  0  0  0  0  0  0  0  0  0  0  0
    6.9379    9.4300   26.3297 C   0  0  0  0  0  0  0  0  0  0  0  0
    6.5166   10.3637   26.6640 H   0  0  0  0  0  0  0  0  0  0  0  0
    8.0856    8.9333   26.9168 C   0  0  0  0  0  0  0  0  0  0  0  0
    8.5551    9.4913   27.7123 H   0  0  0  0  0  0  0  0  0  0  0  0
    8.6476    7.7286   26.5069 C   0  0  0  0  0  0  0  0  0  0  0  0
    9.5427    7.3710   26.9923 H   0  0  0  0  0  0  0  0  0  0  0  0
    8.0844    6.9792   25.4919 C   0  0  0  0  0  0  0  0  0  0  0  0
    8.5329    6.0466   25.1913 H   0  0  0  0  0  0  0  0  0  0  0  0
    6.9351    7.4687   24.8901 C   0  0  0  0  0  0  0  0  0  0  0  0
    2.2107    7.4635   20.9697 N   0  0  0  0  0  0  0  0  0  0  0  0
    1.5128    8.3024   20.2493 C   0  0  0  0  0  3  0  0  0  0  0  0
    1.4220    9.3505   20.4687 H   0  0  0  0  0  0  0  0  0  0  0  0
    0.9073    7.7079   19.1943 N   0  0  0  0  0  0  0  0  0  0  0  0
    0.1462    8.3444   18.1394 C   0  0  0  0  0  0  0  0  0  0  0  0
   -0.5474    7.5850   17.7581 H   0  0  0  0  0  0  0  0  0  0  0  0
    1.0941    8.7744   17.0183 C   0  0  0  0  0  0  0  0  0  0  0  0
    1.8127    9.5005   17.3921 H   0  0  0  0  0  0  0  0  0  0  0  0
    0.5328    9.2235   16.2037 H   0  0  0  0  0  0  0  0  0  0  0  0
    1.6429    7.9168   16.6356 H   0  0  0  0  0  0  0  0  0  0  0  0
   -0.6600    9.5240   18.6734 C   0  0  0  0  0  0  0  0  0  0  0  0
   -1.2265    9.2337   19.5557 H   0  0  0  0  0  0  0  0  0  0  0  0
   -1.3574    9.8607   17.9111 H   0  0  0  0  0  0  0  0  0  0  0  0
   -0.0100   10.3574   18.9275 H   0  0  0  0  0  0  0  0  0  0  0  0
    1.2729    6.3824   19.2320 C   0  0  0  0  0  0  0  0  0  0  0  0
    0.9876    5.2923   18.4137 C   0  0  0  0  0  0  0  0  0  0  0  0
    0.3590    5.4017   17.5457 H   0  0  0  0  0  0  0  0  0  0  0  0
    1.5410    4.0746   18.7563 C   0  0  0  0  0  0  0  0  0  0  0  0
    1.3572    2.9215   18.0611 O   0  0  0  0  0  0  0  0  0  0  0  0
    0.5366    2.9485   16.9217 C   0  0  0  0  0  0  0  0  0  0  0  0
   -0.4878    3.2478   17.1688 H   0  0  0  0  0  0  0  0  0  0  0  0
    0.5300    1.9288   16.5407 H   0  0  0  0  0  0  0  0  0  0  0  0
    0.9357    3.6182   16.1519 H   0  0  0  0  0  0  0  0  0  0  0  0
    2.3793    3.9342   19.9070 C   0  0  0  0  0  0  0  0  0  0  0  0
    2.8459    2.6759   20.1155 O   0  0  0  0  0  0  0  0  0  0  0  0
    3.6637    2.4598   21.2402 C   0  0  0  0  0  0  0  0  0  0  0  0
    4.5932    3.0359   21.1725 H   0  0  0  0  0  0  0  0  0  0  0  0
    3.8976    1.3966   21.2337 H   0  0  0  0  0  0  0  0  0  0  0  0
    3.1453    2.7121   22.1709 H   0  0  0  0  0  0  0  0  0  0  0  0
    2.6624    5.0174   20.7080 C   0  0  0  0  0  0  0  0  0  0  0  0
    3.2816    4.9454   21.5965 H   0  0  0  0  0  0  0  0  0  0  0  0
    2.0935    6.2433   20.3588 C   0  0  0  0  0  0  0  0  0  0  0  0
  1 15  2  0  0  0  0
  1  2  1  0  0  0  0
  3  1  1  0  0  0  0
  4 36  1  0  0  0  0
  5  4  1  0  0  0  0
  5 11  1  0  0  0  0
  6  5  1  0  0  0  0
  7 10  1  0  0  0  0
  7  5  1  0  0  0  0
  8  7  1  0  0  0  0
  9  7  1  0  0  0  0
 11 14  1  0  0  0  0
 11 12  1  0  0  0  0
 13 11  1  0  0  0  0
 15  4  1  0  0  0  0
 15 16  1  0  0  0  0
 16 17  1  0  0  0  0
 16 27  1  0  0  0  0
 17 23  1  0  0  0  0
 18 17  1  0  0  0  0
 19 17  1  0  0  0  0
 19 20  1  0  0  0  0
 21 19  1  0  0  0  0
 22 19  1  0  0  0  0
 23 24  1  0  0  0  0
 23 26  1  0  0  0  0
 25 23  1  0  0  0  0
 27 28  1  0  0  0  0
 28 29  1  0  0  0  0
 28 30  2  0  0  0  0
 30 31  1  0  0  0  0
 32 30  1  0  0  0  0
 32 33  1  0  0  0  0
 34 32  2  0  0  0  0
 35 34  1  0  0  0  0
 36 27  2  0  0  0  0
 36 34  1  0  0  0  0
 37  1  1  0  0  0  0
 38 39  1  0  0  0  0
 38 37  1  0  0  0  0
 40 51  1  0  0  0  0
 40 38  1  0  0  0  0
 41 47  1  0  0  0  0
 41 40  1  0  0  0  0
 42 41  1  0  0  0  0
 43 44  1  0  0  0  0
 43 41  1  0  0  0  0
 45 43  1  0  0  0  0
 46 43  1  0  0  0  0
 47 50  1  0  0  0  0
 47 48  1  0  0  0  0
 49 47  1  0  0  0  0
 51 68  1  0  0  0  0
 52 54  1  0  0  0  0
 52 51  2  0  0  0  0
 53 52  1  0  0  0  0
 54 60  2  0  0  0  0
 55 54  1  0  0  0  0
 56 57  1  0  0  0  0
 56 55  1  0  0  0  0
 58 56  1  0  0  0  0
 59 56  1  0  0  0  0
 60 61  1  0  0  0  0
 60 66  1  0  0  0  0
 61 62  1  0  0  0  0
 62 65  1  0  0  0  0
 63 62  1  0  0  0  0
 64 62  1  0  0  0  0
 66 67  1  0  0  0  0
 68 66  2  0  0  0  0
 68 37  1  0  0  0  0
M  END
$$$$
