CSD_code = YEQGEJ | q = 0 | S = 0 | Stoichiometry = C4H10Cl4MoS2 | MND = 6
 OpenBabel04212202123D

 21 21  0  0  0  0  0  0  0  0999 V2000
    4.0456    0.7899    1.7521 Mo  0  0  0  0  0  0  0  0  0  0  0  0
    3.0586    1.9216    0.1772 Cl  0  0  0  0  0  0  0  0  0  0  0  0
    5.5056   -0.2397    2.9858 Cl  0  0  0  0  0  0  0  0  0  0  0  0
    2.9880    1.9467    3.5408 Cl  0  0  0  0  0  0  0  0  0  0  0  0
    2.3492   -0.8628    1.9541 Cl  0  0  0  0  0  0  0  0  0  0  0  0
    5.9035    2.6682    1.3509 S   0  0  1  0  0  3  0  0  0  0  0  0
    5.3498   -0.4948   -0.1737 S   0  0  2  0  0  3  0  0  0  0  0  0
    7.3161    2.3855    2.4512 C   0  0  0  0  0  0  0  0  0  0  0  0
    7.5421    1.3261    2.5237 H   0  0  0  0  0  0  0  0  0  0  0  0
    7.0073    2.7598    3.4229 H   0  0  0  0  0  0  0  0  0  0  0  0
    8.1642    2.9566    2.0835 H   0  0  0  0  0  0  0  0  0  0  0  0
    6.5679    2.0758   -0.2555 C   0  0  0  0  0  0  0  0  0  0  0  0
    5.8224    2.4046   -0.9815 H   0  0  0  0  0  0  0  0  0  0  0  0
    7.4958    2.6232   -0.4250 H   0  0  0  0  0  0  0  0  0  0  0  0
    6.8219    0.5879   -0.3609 C   0  0  0  0  0  0  0  0  0  0  0  0
    7.5010    0.2456    0.4211 H   0  0  0  0  0  0  0  0  0  0  0  0
    7.2545    0.3526   -1.3335 H   0  0  0  0  0  0  0  0  0  0  0  0
    4.5022   -0.2220   -1.7516 C   0  0  0  0  0  0  0  0  0  0  0  0
    4.2406    0.8250   -1.8704 H   0  0  0  0  0  0  0  0  0  0  0  0
    3.5978   -0.8221   -1.7038 H   0  0  0  0  0  0  0  0  0  0  0  0
    5.1421   -0.5727   -2.5566 H   0  0  0  0  0  0  0  0  0  0  0  0
  1  5  1  0  0  0  0
  1  3  1  0  0  0  0
  1  4  1  0  0  0  0
  2  1  1  0  0  0  0
  6  1  1  0  0  0  0
  6  8  1  1  0  0  0
  7 18  1  6  0  0  0
  7  1  1  0  0  0  0
  8  9  1  0  0  0  0
  8 10  1  0  0  0  0
 11  8  1  0  0  0  0
 12  6  1  0  0  0  0
 13 12  1  0  0  0  0
 14 12  1  0  0  0  0
 15 12  1  0  0  0  0
 15  7  1  0  0  0  0
 15 16  1  0  0  0  0
 17 15  1  0  0  0  0
 18 20  1  0  0  0  0
 19 18  1  0  0  0  0
 21 18  1  0  0  0  0
M  END
$$$$
