CSD_code = YEQGUZ | q = -1 | S = 0 | Stoichiometry = C2H6Cl5MoS(1-) | MND = 6
 OpenBabel04212202123D

 15 14  0  0  0  0  0  0  0  0999 V2000
    0.9757    8.9825    7.9222 Mo  0  0  0  0  0  0  0  0  0  0  0  0
    0.3574   10.2308    9.5825 Cl  0  0  0  0  0  0  0  0  0  0  0  0
   -1.0175    9.6833    6.6064 Cl  0  0  0  0  0  0  0  0  0  0  0  0
    1.7979    8.0249    6.1067 Cl  0  0  0  0  0  0  0  0  0  0  0  0
    2.9883    8.2365    9.1818 Cl  0  0  0  0  0  0  0  0  0  0  0  0
   -0.1860    6.9817    8.6034 Cl  0  0  0  0  0  0  0  0  0  0  0  0
    2.2680   11.0941    7.0972 S   0  0  0  0  0  3  0  0  0  0  0  0
    3.9539   10.4813    6.8133 C   0  0  0  0  0  0  0  0  0  0  0  0
    3.9140    9.6414    6.1241 H   0  0  0  0  0  0  0  0  0  0  0  0
    4.3151   10.1411    7.7800 H   0  0  0  0  0  0  0  0  0  0  0  0
    4.5687   11.2899    6.4281 H   0  0  0  0  0  0  0  0  0  0  0  0
    1.7212   11.2838    5.3758 C   0  0  0  0  0  0  0  0  0  0  0  0
    2.2292   12.1348    4.9301 H   0  0  0  0  0  0  0  0  0  0  0  0
    0.6475   11.4478    5.4199 H   0  0  0  0  0  0  0  0  0  0  0  0
    1.9267   10.3628    4.8356 H   0  0  0  0  0  0  0  0  0  0  0  0
  1  6  1  0  0  0  0
  1  5  1  0  0  0  0
  1  2  1  0  0  0  0
  3  1  1  0  0  0  0
  4  1  1  0  0  0  0
  7  1  1  0  0  0  0
  8  7  1  0  0  0  0
  8 10  1  0  0  0  0
  9  8  1  0  0  0  0
 11  8  1  0  0  0  0
 12 14  1  0  0  0  0
 12  7  1  0  0  0  0
 13 12  1  0  0  0  0
 15 12  1  0  0  0  0
M  END
$$$$
