CSD_code = YEQSIX | q = 0 | S = 0 | Stoichiometry = C10H10Cl2N4Pt | MND = 4
 OpenBabel04212202123D

 27 29  0  0  0  0  0  0  0  0999 V2000
    4.9199   10.9669   11.9496 Pt  0  0  0  0  0  0  0  0  0  0  0  0
    4.8507   10.6800    9.7418 Cl  0  0  0  0  0  0  0  0  0  0  0  0
    5.6905   13.0303   11.6297 Cl  0  0  0  0  0  0  0  0  0  0  0  0
    4.9354   11.0882   13.8864 N   0  0  0  0  0  0  0  0  0  0  0  0
    5.3130   12.1302   14.5808 N   0  0  0  0  0  0  0  0  0  0  0  0
    4.4731    9.8871   15.8644 N   0  0  0  0  0  0  0  0  0  0  0  0
    4.2213    9.1127   12.3725 N   0  0  0  0  0  0  0  0  0  0  0  0
    5.2917   12.1034   15.8952 C   0  0  0  0  0  0  0  0  0  0  0  0
    4.8583   10.9347   16.5731 C   0  0  0  0  0  0  0  0  0  0  0  0
    4.5155    9.9791   14.5428 C   0  0  0  0  0  0  0  0  0  0  0  0
    4.1098    8.8746   13.6971 C   0  0  0  0  0  0  0  0  0  0  0  0
    3.6408    7.6623   14.1952 C   0  0  0  0  0  0  0  0  0  0  0  0
    3.5738    7.5352   15.2634 H   0  0  0  0  0  0  0  0  0  0  0  0
    3.2789    6.6725   13.3022 C   0  0  0  0  0  0  0  0  0  0  0  0
    2.9106    5.7222   13.6559 H   0  0  0  0  0  0  0  0  0  0  0  0
    3.3995    6.9266   11.9389 C   0  0  0  0  0  0  0  0  0  0  0  0
    3.1279    6.1799   11.2105 H   0  0  0  0  0  0  0  0  0  0  0  0
    3.8731    8.1544   11.5159 C   0  0  0  0  0  0  0  0  0  0  0  0
    3.9858    8.4005   10.4676 H   0  0  0  0  0  0  0  0  0  0  0  0
    5.7384   13.3323   16.6011 C   0  0  0  0  0  0  0  0  0  0  0  0
    5.9831   14.0925   15.8654 H   0  0  0  0  0  0  0  0  0  0  0  0
    6.6166   13.1198   17.2092 H   0  0  0  0  0  0  0  0  0  0  0  0
    4.9539   13.6980   17.2614 H   0  0  0  0  0  0  0  0  0  0  0  0
    4.8138   10.8324   18.0549 C   0  0  0  0  0  0  0  0  0  0  0  0
    4.1172   11.5647   18.4612 H   0  0  0  0  0  0  0  0  0  0  0  0
    5.7960   11.0381   18.4775 H   0  0  0  0  0  0  0  0  0  0  0  0
    4.4947    9.8345   18.3407 H   0  0  0  0  0  0  0  0  0  0  0  0
  1  7  1  0  0  0  0
  1  4  1  0  0  0  0
  2  1  1  0  0  0  0
  3  1  1  0  0  0  0
  4 10  1  0  0  0  0
  4  5  1  0  0  0  0
  5  8  2  0  0  0  0
  6  9  2  0  0  0  0
  7 11  1  0  0  0  0
  8  9  1  0  0  0  0
  8 20  1  0  0  0  0
  9 24  1  0  0  0  0
 10  6  1  0  0  0  0
 11 12  1  0  0  0  0
 11 10  2  0  0  0  0
 12 13  1  0  0  0  0
 14 15  1  0  0  0  0
 14 12  2  0  0  0  0
 16 14  1  0  0  0  0
 17 16  1  0  0  0  0
 18 16  2  0  0  0  0
 18  7  1  0  0  0  0
 19 18  1  0  0  0  0
 20 22  1  0  0  0  0
 20 23  1  0  0  0  0
 21 20  1  0  0  0  0
 24 27  1  0  0  0  0
 24 25  1  0  0  0  0
 24 26  1  0  0  0  0
M  END
$$$$
