CSD_code = YERMAK | q = 0 | S = 0 | Stoichiometry = C12H20AgClN2O | MND = 2
 OpenBabel04212202123D

 37 37  0  0  1  0  0  0  0  0999 V2000
    0.9910    1.4672    4.8126 Ag  0  0  0  0  0  0  0  0  0  0  0  0
   -0.2991   -0.1177    3.8927 Cl  0  0  0  0  0  0  0  0  0  0  0  0
    2.5626    5.4322    2.8349 O   0  0  0  0  0  0  0  0  0  0  0  0
    3.2400    3.6102    4.7174 N   0  0  0  0  0  0  0  0  0  0  0  0
    2.3596    3.6792    6.6668 N   0  0  0  0  0  0  0  0  0  0  0  0
    2.3052    3.0216    5.4940 C   0  0  1  0  0  3  0  0  0  0  0  0
    3.8545    4.6299    5.3852 C   0  0  0  0  0  0  0  0  0  0  0  0
    4.6139    5.2377    4.9394 H   0  0  0  0  0  0  0  0  0  0  0  0
    3.3021    4.6693    6.6210 C   0  0  0  0  0  0  0  0  0  0  0  0
    3.5093    5.3170    7.4467 H   0  0  0  0  0  0  0  0  0  0  0  0
    1.5276    3.3775    7.8129 C   0  0  0  0  0  0  0  0  0  0  0  0
    0.8906    2.5345    7.5068 H   0  0  0  0  0  0  0  0  0  0  0  0
    2.3895    2.9493    8.9980 C   0  0  0  0  0  0  0  0  0  0  0  0
    3.0212    2.1083    8.7209 H   0  0  0  0  0  0  0  0  0  0  0  0
    1.7529    2.6453    9.8239 H   0  0  0  0  0  0  0  0  0  0  0  0
    3.0229    3.7670    9.3347 H   0  0  0  0  0  0  0  0  0  0  0  0
    0.6429    4.5739    8.1539 C   0  0  0  0  0  0  0  0  0  0  0  0
    1.2414    5.4187    8.4872 H   0  0  0  0  0  0  0  0  0  0  0  0
   -0.0478    4.3064    8.9483 H   0  0  0  0  0  0  0  0  0  0  0  0
    0.0674    4.8760    7.2819 H   0  0  0  0  0  0  0  0  0  0  0  0
    3.4465    3.2834    3.3372 C   0  0  0  0  0  0  0  0  0  0  0  0
    3.0540    2.2766    3.1644 H   0  0  0  0  0  0  0  0  0  0  0  0
    4.5147    3.2998    3.0980 H   0  0  0  0  0  0  0  0  0  0  0  0
    2.7416    4.3103    2.4384 C   0  0  0  0  0  0  0  0  0  0  0  0
    2.2454    3.8104    1.0926 C   0  0  0  0  0  0  0  0  0  0  0  0
    0.8304    3.2721    1.3678 C   0  0  0  0  0  0  0  0  0  0  0  0
    0.8381    2.4747    2.1180 H   0  0  0  0  0  0  0  0  0  0  0  0
    0.4111    2.8669    0.4506 H   0  0  0  0  0  0  0  0  0  0  0  0
    0.1837    4.0710    1.7228 H   0  0  0  0  0  0  0  0  0  0  0  0
    3.1197    2.7084    0.4924 C   0  0  0  0  0  0  0  0  0  0  0  0
    4.1635    3.0129    0.4547 H   0  0  0  0  0  0  0  0  0  0  0  0
    2.7901    2.5113   -0.5250 H   0  0  0  0  0  0  0  0  0  0  0  0
    3.0418    1.7775    1.0472 H   0  0  0  0  0  0  0  0  0  0  0  0
    2.1615    4.9932    0.1228 C   0  0  0  0  0  0  0  0  0  0  0  0
    1.6217    5.8173    0.5814 H   0  0  0  0  0  0  0  0  0  0  0  0
    1.6455    4.6983   -0.7867 H   0  0  0  0  0  0  0  0  0  0  0  0
    3.1587    5.3408   -0.1386 H   0  0  0  0  0  0  0  0  0  0  0  0
  2  1  1  0  0  0  0
  4  7  1  0  0  0  0
  4  6  1  0  0  0  0
  5 11  1  0  0  0  0
  6  1  1  6  0  0  0
  6  5  1  0  0  0  0
  7  9  2  0  0  0  0
  8  7  1  0  0  0  0
  9  5  1  0  0  0  0
  9 10  1  0  0  0  0
 11 17  1  0  0  0  0
 11 13  1  0  0  0  0
 12 11  1  0  0  0  0
 13 16  1  0  0  0  0
 13 15  1  0  0  0  0
 14 13  1  0  0  0  0
 17 18  1  0  0  0  0
 17 19  1  0  0  0  0
 20 17  1  0  0  0  0
 21  4  1  0  0  0  0
 22 21  1  0  0  0  0
 23 21  1  0  0  0  0
 24  3  2  0  0  0  0
 24 21  1  0  0  0  0
 25 26  1  0  0  0  0
 25 24  1  0  0  0  0
 26 29  1  0  0  0  0
 26 27  1  0  0  0  0
 28 26  1  0  0  0  0
 30 33  1  0  0  0  0
 30 25  1  0  0  0  0
 31 30  1  0  0  0  0
 32 30  1  0  0  0  0
 34 35  1  0  0  0  0
 34 25  1  0  0  0  0
 36 34  1  0  0  0  0
 37 34  1  0  0  0  0
M  END
$$$$
