CSD_code = YERPIV | q = 0 | S = 0 | Stoichiometry = C24H34Cl2N4Zr | MND = 6
 OpenBabel04212202123D

 65 70  0  0  1  0  0  0  0  0999 V2000
    7.9298    2.2697   10.0956 Zr  0  0  0  0  0  0  0  0  0  0  0  0
    8.6099    4.0426   11.6029 Cl  0  0  0  0  0  0  0  0  0  0  0  0
    8.0630    0.9791   11.6591 N   0  0  2  0  0  0  0  0  0  0  0  0
   10.1217    2.1903    9.4949 N   0  0  2  0  0  4  0  0  0  0  0  0
   13.4544    3.6237    6.6442 C   0  0  0  0  0  0  0  0  0  0  0  0
   13.6494    3.4956    5.5896 H   0  0  0  0  0  0  0  0  0  0  0  0
   10.4731    3.5469    8.9939 C   0  0  0  0  0  0  0  0  0  0  0  0
   10.3178    4.2586    9.8150 H   0  0  0  0  0  0  0  0  0  0  0  0
    9.7741    3.7997    8.1873 H   0  0  0  0  0  0  0  0  0  0  0  0
   10.1953    1.1979    8.4087 C   0  0  0  0  0  0  0  0  0  0  0  0
   10.3070    0.2027    8.8469 H   0  0  0  0  0  0  0  0  0  0  0  0
   11.0608    1.3870    7.7582 H   0  0  0  0  0  0  0  0  0  0  0  0
   10.9832    1.8132   10.6275 C   0  0  0  0  0  0  0  0  0  0  0  0
   11.0321    2.6711   11.3083 H   0  0  0  0  0  0  0  0  0  0  0  0
   12.0008    1.6005   10.2599 H   0  0  0  0  0  0  0  0  0  0  0  0
   12.1593    3.5205    7.1220 C   0  0  0  0  0  0  0  0  0  0  0  0
   11.3494    3.3333    6.4304 H   0  0  0  0  0  0  0  0  0  0  0  0
   11.8852    3.6815    8.4768 C   0  0  0  0  0  0  0  0  0  0  0  0
   14.4953    3.8977    7.5142 C   0  0  0  0  0  0  0  0  0  0  0  0
   15.5059    3.9784    7.1427 H   0  0  0  0  0  0  0  0  0  0  0  0
   12.9365    3.9824    9.3367 C   0  0  0  0  0  0  0  0  0  0  0  0
   12.7382    4.1553   10.3842 H   0  0  0  0  0  0  0  0  0  0  0  0
   14.2314    4.0865    8.8603 C   0  0  0  0  0  0  0  0  0  0  0  0
   15.0362    4.3218    9.5409 H   0  0  0  0  0  0  0  0  0  0  0  0
   10.4861    0.6050   11.4316 C   0  0  0  0  0  0  0  0  0  0  0  0
   11.3268    0.2540   12.0360 H   0  0  0  0  0  0  0  0  0  0  0  0
   10.1767   -0.2137   10.7758 H   0  0  0  0  0  0  0  0  0  0  0  0
    6.9726    1.1918   12.5767 C   0  0  0  0  0  0  0  0  0  0  0  0
    7.0886    2.1423   13.1494 H   0  0  0  0  0  0  0  0  0  0  0  0
    6.9234    0.3798   13.3327 H   0  0  0  0  0  0  0  0  0  0  0  0
    9.3140    0.9082   12.3701 C   0  0  0  0  0  0  0  0  0  0  0  0
    9.2631    0.0926   13.1219 H   0  0  0  0  0  0  0  0  0  0  0  0
    9.5243    1.8427   12.9349 H   0  0  0  0  0  0  0  0  0  0  0  0
    7.2495    4.0422    8.5877 Cl  0  0  0  0  0  0  0  0  0  0  0  0
    7.7965    0.9793    8.5319 N   0  0  2  0  0  0  0  0  0  0  0  0
    5.7379    2.1904   10.6959 N   0  0  2  0  0  4  0  0  0  0  0  0
    2.4053    3.6240   13.5467 C   0  0  0  0  0  0  0  0  0  0  0  0
    2.2103    3.4960   14.6012 H   0  0  0  0  0  0  0  0  0  0  0  0
    5.3865    3.5470   11.1969 C   0  0  0  0  0  0  0  0  0  0  0  0
    5.5418    4.2587   10.3757 H   0  0  0  0  0  0  0  0  0  0  0  0
    6.0856    3.7998   12.0034 H   0  0  0  0  0  0  0  0  0  0  0  0
    5.6642    1.1980   11.7822 C   0  0  0  0  0  0  0  0  0  0  0  0
    5.5524    0.2028   11.3441 H   0  0  0  0  0  0  0  0  0  0  0  0
    4.7988    1.3873   12.4328 H   0  0  0  0  0  0  0  0  0  0  0  0
    4.8764    1.8132    9.5634 C   0  0  0  0  0  0  0  0  0  0  0  0
    4.8274    2.6711    8.8826 H   0  0  0  0  0  0  0  0  0  0  0  0
    3.8587    1.6005    9.9310 H   0  0  0  0  0  0  0  0  0  0  0  0
    3.7004    3.5208   13.0688 C   0  0  0  0  0  0  0  0  0  0  0  0
    4.5103    3.3337   13.7604 H   0  0  0  0  0  0  0  0  0  0  0  0
    3.9744    3.6817   11.7140 C   0  0  0  0  0  0  0  0  0  0  0  0
    1.3644    3.8979   12.6766 C   0  0  0  0  0  0  0  0  0  0  0  0
    0.3537    3.9785   13.0481 H   0  0  0  0  0  0  0  0  0  0  0  0
    2.9231    3.9824   10.8541 C   0  0  0  0  0  0  0  0  0  0  0  0
    3.1214    4.1552    9.8065 H   0  0  0  0  0  0  0  0  0  0  0  0
    1.6282    4.0865   11.3305 C   0  0  0  0  0  0  0  0  0  0  0  0
    0.8234    4.3217   10.6498 H   0  0  0  0  0  0  0  0  0  0  0  0
    5.3735    0.6049    8.7594 C   0  0  0  0  0  0  0  0  0  0  0  0
    4.5328    0.2539    8.1550 H   0  0  0  0  0  0  0  0  0  0  0  0
    5.6829   -0.2137    9.4152 H   0  0  0  0  0  0  0  0  0  0  0  0
    8.8869    1.1917    7.6142 C   0  0  0  0  0  0  0  0  0  0  0  0
    8.7711    2.1421    7.0414 H   0  0  0  0  0  0  0  0  0  0  0  0
    8.9361    0.3796    6.8583 H   0  0  0  0  0  0  0  0  0  0  0  0
    6.5455    0.9083    7.8208 C   0  0  0  0  0  0  0  0  0  0  0  0
    6.5964    0.0926    7.0692 H   0  0  0  0  0  0  0  0  0  0  0  0
    6.3351    1.8427    7.2560 H   0  0  0  0  0  0  0  0  0  0  0  0
  1 36  1  0  0  0  0
  1  2  1  0  0  0  0
  1  3  1  0  0  0  0
  3 31  1  1  0  0  0
  3 28  1  0  0  0  0
  4  7  1  6  0  0  0
  4  1  1  0  0  0  0
  4 13  1  0  0  0  0
  5 16  2  0  0  0  0
  5 19  1  0  0  0  0
  6  5  1  0  0  0  0
  7  8  1  0  0  0  0
  9  7  1  0  0  0  0
 10 11  1  0  0  0  0
 10  4  1  0  0  0  0
 12 10  1  0  0  0  0
 13 14  1  0  0  0  0
 13 25  1  0  0  0  0
 15 13  1  0  0  0  0
 16 18  1  0  0  0  0
 17 16  1  0  0  0  0
 18  7  1  0  0  0  0
 18 21  2  0  0  0  0
 19 23  2  0  0  0  0
 20 19  1  0  0  0  0
 21 22  1  0  0  0  0
 23 21  1  0  0  0  0
 23 24  1  0  0  0  0
 25 26  1  0  0  0  0
 25 31  1  0  0  0  0
 27 25  1  0  0  0  0
 28 29  1  0  0  0  0
 28 30  1  0  0  0  0
 31 33  1  0  0  0  0
 31 32  1  0  0  0  0
 34  1  1  0  0  0  0
 35 60  1  6  0  0  0
 35  1  1  0  0  0  0
 36 39  1  1  0  0  0
 36 42  1  0  0  0  0
 37 38  1  0  0  0  0
 39 50  1  0  0  0  0
 39 41  1  0  0  0  0
 40 39  1  0  0  0  0
 42 44  1  0  0  0  0
 42 28  1  0  0  0  0
 43 42  1  0  0  0  0
 45 47  1  0  0  0  0
 45 36  1  0  0  0  0
 46 45  1  0  0  0  0
 48 37  1  0  0  0  0
 48 49  1  0  0  0  0
 50 48  2  0  0  0  0
 51 52  1  0  0  0  0
 51 37  2  0  0  0  0
 53 55  2  0  0  0  0
 53 50  1  0  0  0  0
 54 53  1  0  0  0  0
 55 51  1  0  0  0  0
 56 55  1  0  0  0  0
 57 59  1  0  0  0  0
 57 45  1  0  0  0  0
 58 57  1  0  0  0  0
 60 10  1  0  0  0  0
 61 60  1  0  0  0  0
 62 60  1  0  0  0  0
 63 35  1  0  0  0  0
 63 57  1  0  0  0  0
 64 63  1  0  0  0  0
 65 63  1  0  0  0  0
M  END
$$$$
