CSD_code = YERPOB | q = 0 | S = 0 | Stoichiometry = C24H34Cl2HfN4 | MND = 6
 OpenBabel04212202123D

 65 70  0  0  1  0  0  0  0  0999 V2000
    9.1927    0.2581    3.3602 Hf  0  0  0  0  0  0  0  0  0  0  0  0
    7.8251   -1.5568    2.5780 Cl  0  0  0  0  0  0  0  0  0  0  0  0
    6.7201    1.9455    1.3278 C   0  0  0  0  0  0  0  0  0  0  0  0
    5.9379    1.9546    0.5655 H   0  0  0  0  0  0  0  0  0  0  0  0
    6.9916    2.9858    1.5190 H   0  0  0  0  0  0  0  0  0  0  0  0
    7.0251    1.1830    3.7282 N   0  0  1  0  0  4  0  0  0  0  0  0
    6.1242    1.2853    2.5711 C   0  0  0  0  0  0  0  0  0  0  0  0
    5.2148    1.8371    2.8567 H   0  0  0  0  0  0  0  0  0  0  0  0
    5.8445    0.2639    2.3006 H   0  0  0  0  0  0  0  0  0  0  0  0
    9.2782    1.2212    5.1149 N   0  0  2  0  0  0  0  0  0  0  0  0
    6.4056    0.3317    4.7738 C   0  0  0  0  0  0  0  0  0  0  0  0
    7.1138    0.2635    5.6069 H   0  0  0  0  0  0  0  0  0  0  0  0
    6.2886   -0.6667    4.3386 H   0  0  0  0  0  0  0  0  0  0  0  0
    7.3982    2.5042    4.2353 C   0  0  0  0  0  0  0  0  0  0  0  0
    6.5197    3.0513    4.6097 H   0  0  0  0  0  0  0  0  0  0  0  0
    7.8202    3.0620    3.3972 H   0  0  0  0  0  0  0  0  0  0  0  0
    8.4729    2.3987    5.3280 C   0  0  0  0  0  0  0  0  0  0  0  0
    9.0682    3.3329    5.3164 H   0  0  0  0  0  0  0  0  0  0  0  0
    7.9999    2.3634    6.3299 H   0  0  0  0  0  0  0  0  0  0  0  0
    3.7283    2.1548    6.7667 C   0  0  0  0  0  0  0  0  0  0  0  0
    3.6698    2.8489    7.5923 H   0  0  0  0  0  0  0  0  0  0  0  0
    4.9635    1.7073    6.3301 C   0  0  0  0  0  0  0  0  0  0  0  0
    5.8578    2.0452    6.8337 H   0  0  0  0  0  0  0  0  0  0  0  0
    7.9333    1.1789    0.7648 C   0  0  0  0  0  0  0  0  0  0  0  0
    7.6421    0.1322    0.6289 H   0  0  0  0  0  0  0  0  0  0  0  0
    8.1700    1.5915   -0.2298 H   0  0  0  0  0  0  0  0  0  0  0  0
    2.6560    0.8032    5.1087 C   0  0  0  0  0  0  0  0  0  0  0  0
    1.7566    0.4382    4.6353 H   0  0  0  0  0  0  0  0  0  0  0  0
    5.0634    0.8131    5.2704 C   0  0  0  0  0  0  0  0  0  0  0  0
    3.8915    0.3587    4.6733 C   0  0  0  0  0  0  0  0  0  0  0  0
    3.9492   -0.3598    3.8690 H   0  0  0  0  0  0  0  0  0  0  0  0
    2.5710    1.7086    6.1529 C   0  0  0  0  0  0  0  0  0  0  0  0
    1.6073    2.0559    6.4943 H   0  0  0  0  0  0  0  0  0  0  0  0
   10.5613   -1.5580    4.1400 Cl  0  0  0  0  0  0  0  0  0  0  0  0
   11.6654    1.9456    5.3920 C   0  0  0  0  0  0  0  0  0  0  0  0
   12.4477    1.9547    6.1544 H   0  0  0  0  0  0  0  0  0  0  0  0
   11.3939    2.9858    5.2009 H   0  0  0  0  0  0  0  0  0  0  0  0
   11.3605    1.1831    2.9917 N   0  0  1  0  0  4  0  0  0  0  0  0
   12.2614    1.2855    4.1488 C   0  0  0  0  0  0  0  0  0  0  0  0
   13.1708    1.8373    3.8631 H   0  0  0  0  0  0  0  0  0  0  0  0
   12.5411    0.2640    4.4193 H   0  0  0  0  0  0  0  0  0  0  0  0
    9.1073    1.2211    1.6053 N   0  0  1  0  0  0  0  0  0  0  0  0
   11.9799    0.3317    1.9461 C   0  0  0  0  0  0  0  0  0  0  0  0
   11.2717    0.2636    1.1130 H   0  0  0  0  0  0  0  0  0  0  0  0
   12.0967   -0.6667    2.3815 H   0  0  0  0  0  0  0  0  0  0  0  0
   10.9873    2.5042    2.4846 C   0  0  0  0  0  0  0  0  0  0  0  0
   11.8658    3.0514    2.1102 H   0  0  0  0  0  0  0  0  0  0  0  0
   10.5654    3.0621    3.3227 H   0  0  0  0  0  0  0  0  0  0  0  0
    9.9126    2.3986    1.3919 C   0  0  0  0  0  0  0  0  0  0  0  0
    9.3173    3.3329    1.4036 H   0  0  0  0  0  0  0  0  0  0  0  0
   10.3856    2.3634    0.3900 H   0  0  0  0  0  0  0  0  0  0  0  0
   14.6573    2.1547   -0.0468 C   0  0  0  0  0  0  0  0  0  0  0  0
   14.7158    2.8489   -0.8724 H   0  0  0  0  0  0  0  0  0  0  0  0
   13.4221    1.7073    0.3898 C   0  0  0  0  0  0  0  0  0  0  0  0
   12.5278    2.0453   -0.1138 H   0  0  0  0  0  0  0  0  0  0  0  0
   10.4522    1.1791    5.9553 C   0  0  0  0  0  0  0  0  0  0  0  0
   10.7435    0.1325    6.0914 H   0  0  0  0  0  0  0  0  0  0  0  0
   10.2156    1.5917    6.9499 H   0  0  0  0  0  0  0  0  0  0  0  0
   15.7296    0.8030    1.6111 C   0  0  0  0  0  0  0  0  0  0  0  0
   16.6290    0.4380    2.0845 H   0  0  0  0  0  0  0  0  0  0  0  0
   13.3221    0.8130    1.4495 C   0  0  0  0  0  0  0  0  0  0  0  0
   14.4940    0.3586    2.0466 C   0  0  0  0  0  0  0  0  0  0  0  0
   14.4363   -0.3598    2.8509 H   0  0  0  0  0  0  0  0  0  0  0  0
   15.8145    1.7085    0.5670 C   0  0  0  0  0  0  0  0  0  0  0  0
   16.7783    2.0557    0.2256 H   0  0  0  0  0  0  0  0  0  0  0  0
  1  6  1  0  0  0  0
  1 34  1  0  0  0  0
  1 10  1  0  0  0  0
  2  1  1  0  0  0  0
  3  5  1  0  0  0  0
  3  7  1  0  0  0  0
  4  3  1  0  0  0  0
  6 14  1  0  0  0  0
  6 11  1  1  0  0  0
  7  8  1  0  0  0  0
  7  6  1  0  0  0  0
  9  7  1  0  0  0  0
 10 17  1  6  0  0  0
 10 56  1  0  0  0  0
 11 29  1  0  0  0  0
 11 12  1  0  0  0  0
 13 11  1  0  0  0  0
 14 15  1  0  0  0  0
 14 17  1  0  0  0  0
 16 14  1  0  0  0  0
 17 19  1  0  0  0  0
 18 17  1  0  0  0  0
 20 21  1  0  0  0  0
 22 20  1  0  0  0  0
 22 23  1  0  0  0  0
 24  3  1  0  0  0  0
 25 24  1  0  0  0  0
 26 24  1  0  0  0  0
 27 32  1  0  0  0  0
 28 27  1  0  0  0  0
 29 22  2  0  0  0  0
 30 27  2  0  0  0  0
 30 29  1  0  0  0  0
 31 30  1  0  0  0  0
 32 33  1  0  0  0  0
 32 20  2  0  0  0  0
 35 56  1  0  0  0  0
 35 36  1  0  0  0  0
 37 35  1  0  0  0  0
 38 43  1  6  0  0  0
 38  1  1  0  0  0  0
 38 39  1  0  0  0  0
 39 41  1  0  0  0  0
 39 35  1  0  0  0  0
 40 39  1  0  0  0  0
 42 24  1  1  0  0  0
 42  1  1  0  0  0  0
 43 45  1  0  0  0  0
 44 43  1  0  0  0  0
 46 38  1  0  0  0  0
 46 48  1  0  0  0  0
 47 46  1  0  0  0  0
 49 50  1  0  0  0  0
 49 42  1  0  0  0  0
 49 46  1  0  0  0  0
 51 49  1  0  0  0  0
 52 54  2  0  0  0  0
 52 64  1  0  0  0  0
 53 52  1  0  0  0  0
 54 61  1  0  0  0  0
 55 54  1  0  0  0  0
 56 57  1  0  0  0  0
 56 58  1  0  0  0  0
 59 62  1  0  0  0  0
 59 60  1  0  0  0  0
 61 43  1  0  0  0  0
 61 62  2  0  0  0  0
 62 63  1  0  0  0  0
 64 59  2  0  0  0  0
 65 64  1  0  0  0  0
M  END
$$$$
