CSD_code = YESQUL | q = 0 | S = 0 | Stoichiometry = C12H24Cl2N4NiO4 | MND = 6
 OpenBabel04212202123D

 47 50  0  0  1  0  0  0  0  0999 V2000
    2.8626   10.2926    5.6365 Ni  0  0  0  0  0  0  0  0  0  0  0  0
    1.1490    9.8589    4.2662 Cl  0  0  0  0  0  0  0  0  0  0  0  0
    5.8411    6.5269    2.7409 O   0  0  0  0  0  0  0  0  0  0  0  0
    6.0424    5.6843    2.3033 H   0  0  0  0  0  0  0  0  0  0  0  0
    4.1775    5.3538    3.6372 O   0  0  0  0  0  0  0  0  0  0  0  0
    2.9896    8.4533    6.1577 N   0  0  1  0  0  4  0  0  0  0  0  0
    3.8483    8.4725    6.7198 H   0  0  0  0  0  0  0  0  0  0  0  0
    4.4091   10.1133    3.9397 N   0  0  1  0  0  4  0  0  0  0  0  0
    5.3474   10.2113    4.3263 H   0  0  0  0  0  0  0  0  0  0  0  0
    1.8812    8.1245    7.0640 C   0  0  0  0  0  0  0  0  0  0  0  0
    2.0867    7.1876    7.5990 H   0  0  0  0  0  0  0  0  0  0  0  0
    0.9784    7.9925    6.4604 H   0  0  0  0  0  0  0  0  0  0  0  0
    3.1587    7.4610    5.0943 C   0  0  0  0  0  0  0  0  0  0  0  0
    2.2753    7.4855    4.4506 H   0  0  0  0  0  0  0  0  0  0  0  0
    3.2274    6.4556    5.5346 H   0  0  0  0  0  0  0  0  0  0  0  0
    4.4165    7.6869    4.2401 C   0  0  2  0  0  0  0  0  0  0  0  0
    5.2664    7.9082    4.8995 H   0  0  0  0  0  0  0  0  0  0  0  0
    4.3038    8.8504    3.2295 C   0  0  0  0  0  0  0  0  0  0  0  0
    5.0837    8.7373    2.4613 H   0  0  0  0  0  0  0  0  0  0  0  0
    3.3239    8.8125    2.7460 H   0  0  0  0  0  0  0  0  0  0  0  0
    4.0698   11.3233    3.2009 C   0  0  0  0  0  0  0  0  0  0  0  0
    3.1430   11.1365    2.6505 H   0  0  0  0  0  0  0  0  0  0  0  0
    4.8500   11.6206    2.4832 H   0  0  0  0  0  0  0  0  0  0  0  0
    4.7624    6.3961    3.5219 C   0  0  0  0  0  0  0  0  0  0  0  0
   -0.1160   14.0584    8.5322 O   0  0  0  0  0  0  0  0  0  0  0  0
   -0.3172   14.9011    8.9698 H   0  0  0  0  0  0  0  0  0  0  0  0
    1.5477   15.2316    7.6359 O   0  0  0  0  0  0  0  0  0  0  0  0
    2.7355   12.1320    5.1154 N   0  0  2  0  0  4  0  0  0  0  0  0
    1.8768   12.1128    4.5533 H   0  0  0  0  0  0  0  0  0  0  0  0
    1.3160   10.4721    7.3334 N   0  0  2  0  0  4  0  0  0  0  0  0
    0.3777   10.3740    6.9468 H   0  0  0  0  0  0  0  0  0  0  0  0
    3.8440   12.4608    4.2092 C   0  0  0  0  0  0  0  0  0  0  0  0
    3.6386   13.3978    3.6741 H   0  0  0  0  0  0  0  0  0  0  0  0
    4.7468   12.5928    4.8128 H   0  0  0  0  0  0  0  0  0  0  0  0
    2.5665   13.1244    6.1788 C   0  0  0  0  0  0  0  0  0  0  0  0
    3.4499   13.0998    6.8225 H   0  0  0  0  0  0  0  0  0  0  0  0
    2.4978   14.1297    5.7385 H   0  0  0  0  0  0  0  0  0  0  0  0
    1.3087   12.8984    7.0330 C   0  0  1  0  0  0  0  0  0  0  0  0
    0.4587   12.6772    6.3737 H   0  0  0  0  0  0  0  0  0  0  0  0
    1.4214   11.7349    8.0436 C   0  0  0  0  0  0  0  0  0  0  0  0
    0.6415   11.8481    8.8118 H   0  0  0  0  0  0  0  0  0  0  0  0
    2.4013   11.7728    8.5271 H   0  0  0  0  0  0  0  0  0  0  0  0
    1.6554    9.2621    8.0722 C   0  0  0  0  0  0  0  0  0  0  0  0
    2.5822    9.4489    8.6226 H   0  0  0  0  0  0  0  0  0  0  0  0
    0.8752    8.9647    8.7900 H   0  0  0  0  0  0  0  0  0  0  0  0
    0.9627   14.1892    7.7512 C   0  0  0  0  0  0  0  0  0  0  0  0
    4.5763   10.7258    7.0070 Cl  0  0  0  0  0  0  0  0  0  0  0  0
  1  6  1  0  0  0  0
  1 47  1  0  0  0  0
  1 30  1  0  0  0  0
  2  1  1  0  0  0  0
  3 24  1  0  0  0  0
  4  3  1  0  0  0  0
  6  7  1  1  0  0  0
  6 10  1  0  0  0  0
  8  9  1  1  0  0  0
  8  1  1  0  0  0  0
 10 11  1  0  0  0  0
 10 43  1  0  0  0  0
 12 10  1  0  0  0  0
 13 15  1  0  0  0  0
 13  6  1  0  0  0  0
 14 13  1  0  0  0  0
 16 17  1  1  0  0  0
 16 13  1  0  0  0  0
 18  8  1  0  0  0  0
 18 16  1  0  0  0  0
 19 18  1  0  0  0  0
 20 18  1  0  0  0  0
 21  8  1  0  0  0  0
 21 32  1  0  0  0  0
 22 21  1  0  0  0  0
 23 21  1  0  0  0  0
 24  5  2  0  0  0  0
 24 16  1  0  0  0  0
 25 26  1  0  0  0  0
 27 46  2  0  0  0  0
 28 29  1  6  0  0  0
 28  1  1  0  0  0  0
 28 35  1  0  0  0  0
 30 31  1  6  0  0  0
 30 40  1  0  0  0  0
 30 43  1  0  0  0  0
 32 34  1  0  0  0  0
 32 28  1  0  0  0  0
 33 32  1  0  0  0  0
 35 36  1  0  0  0  0
 35 38  1  0  0  0  0
 37 35  1  0  0  0  0
 38 39  1  6  0  0  0
 38 46  1  0  0  0  0
 38 40  1  0  0  0  0
 40 42  1  0  0  0  0
 40 41  1  0  0  0  0
 43 44  1  0  0  0  0
 43 45  1  0  0  0  0
 46 25  1  0  0  0  0
M  END
$$$$
