CSD_code = YESXEA | q = 0 | S = 0 | Stoichiometry = C23H24ClN2O3ReSi2 | MND = 6
 OpenBabel04212202123D

 56 58  0  0  0  0  0  0  0  0999 V2000
  -13.5931   16.9094    4.3159 Re  0  0  0  0  0  0  0  0  0  0  0  0
  -14.0645   17.0183    6.6471 Cl  0  0  0  0  0  0  0  0  0  0  0  0
  -14.9071   14.1116    4.2932 O   0  0  0  0  0  1  0  0  0  0  0  0
  -16.3080   18.3003    3.8168 O   0  0  0  0  0  1  0  0  0  0  0  0
  -12.6470   16.8880    1.3737 O   0  0  0  0  0  1  0  0  0  0  0  0
   -9.2576   10.1618    6.1884 Si  0  0  0  0  0  0  0  0  0  0  0  0
  -14.2208   25.1260    4.4433 Si  0  0  0  0  0  0  0  0  0  0  0  0
  -11.7163   16.2276    5.0837 N   0  0  0  0  0  0  0  0  0  0  0  0
  -12.5455   18.7111    4.7983 N   0  0  0  0  0  0  0  0  0  0  0  0
  -14.4362   15.1530    4.2335 C   0  0  0  0  0  2  0  0  0  0  0  0
  -15.3079   17.7571    3.9374 C   0  0  0  0  0  2  0  0  0  0  0  0
  -13.0187   16.8898    2.4618 C   0  0  0  0  0  2  0  0  0  0  0  0
   -9.6551   11.9788    6.0688 C   0  0  0  0  0  0  0  0  0  0  0  0
   -9.9382   13.1525    5.9978 C   0  0  0  0  0  0  0  0  0  0  0  0
  -10.2622   14.5238    5.9306 C   0  0  0  0  0  0  0  0  0  0  0  0
   -9.5255   15.4872    6.6267 C   0  0  0  0  0  0  0  0  0  0  0  0
   -8.6845   15.1917    7.2354 H   0  0  0  0  0  0  0  0  0  0  0  0
   -9.8975   16.8084    6.5200 C   0  0  0  0  0  0  0  0  0  0  0  0
   -9.3396   17.5618    7.0512 H   0  0  0  0  0  0  0  0  0  0  0  0
  -11.0029   17.1624    5.7425 C   0  0  0  0  0  0  0  0  0  0  0  0
  -11.3487   14.9586    5.1706 C   0  0  0  0  0  0  0  0  0  0  0  0
  -11.9382   14.2369    4.6193 H   0  0  0  0  0  0  0  0  0  0  0  0
   -9.5177    9.3960    4.4646 C   0  0  0  0  0  0  0  0  0  0  0  0
  -10.5408    9.5289    4.1259 H   0  0  0  0  0  0  0  0  0  0  0  0
   -9.3096    8.3298    4.4719 H   0  0  0  0  0  0  0  0  0  0  0  0
   -8.8659    9.8530    3.7258 H   0  0  0  0  0  0  0  0  0  0  0  0
  -10.4414    9.4059    7.4742 C   0  0  0  0  0  0  0  0  0  0  0  0
  -11.4778    9.5396    7.1791 H   0  0  0  0  0  0  0  0  0  0  0  0
  -10.3159    9.8705    8.4478 H   0  0  0  0  0  0  0  0  0  0  0  0
  -10.2674    8.3403    7.5928 H   0  0  0  0  0  0  0  0  0  0  0  0
   -7.4420   10.0059    6.7468 C   0  0  0  0  0  0  0  0  0  0  0  0
   -7.1487    8.9646    6.8446 H   0  0  0  0  0  0  0  0  0  0  0  0
   -7.2822   10.4832    7.7092 H   0  0  0  0  0  0  0  0  0  0  0  0
   -6.7677   10.4709    6.0336 H   0  0  0  0  0  0  0  0  0  0  0  0
  -13.4628   23.4480    4.7326 C   0  0  0  0  0  0  0  0  0  0  0  0
  -12.9934   22.3498    4.9234 C   0  0  0  0  0  0  0  0  0  0  0  0
  -12.4385   21.0754    5.1641 C   0  0  0  0  0  0  0  0  0  0  0  0
  -11.3179   20.9062    5.9833 C   0  0  0  0  0  0  0  0  0  0  0  0
  -10.8531   21.7613    6.4500 H   0  0  0  0  0  0  0  0  0  0  0  0
  -10.8288   19.6343    6.1800 C   0  0  0  0  0  0  0  0  0  0  0  0
   -9.9656   19.4885    6.8083 H   0  0  0  0  0  0  0  0  0  0  0  0
  -11.4607   18.5422    5.5803 C   0  0  0  0  0  0  0  0  0  0  0  0
  -13.0072   19.9354    4.5948 C   0  0  0  0  0  0  0  0  0  0  0  0
  -13.8741   20.0338    3.9537 H   0  0  0  0  0  0  0  0  0  0  0  0
  -16.0802   24.9903    4.8280 C   0  0  0  0  0  0  0  0  0  0  0  0
  -16.5627   24.2624    4.1827 H   0  0  0  0  0  0  0  0  0  0  0  0
  -16.5839   25.9423    4.6854 H   0  0  0  0  0  0  0  0  0  0  0  0
  -16.2485   24.6794    5.8548 H   0  0  0  0  0  0  0  0  0  0  0  0
  -13.3569   26.3569    5.6139 C   0  0  0  0  0  0  0  0  0  0  0  0
  -12.2915   26.4152    5.4109 H   0  0  0  0  0  0  0  0  0  0  0  0
  -13.4777   26.0639    6.6527 H   0  0  0  0  0  0  0  0  0  0  0  0
  -13.7666   27.3572    5.5055 H   0  0  0  0  0  0  0  0  0  0  0  0
  -13.9182   25.5855    2.6196 C   0  0  0  0  0  0  0  0  0  0  0  0
  -12.8571   25.6235    2.3912 H   0  0  0  0  0  0  0  0  0  0  0  0
  -14.3401   26.5586    2.3846 H   0  0  0  0  0  0  0  0  0  0  0  0
  -14.3718   24.8603    1.9508 H   0  0  0  0  0  0  0  0  0  0  0  0
  1  9  1  0  0  0  0
  1  8  1  0  0  0  0
  1  2  1  0  0  0  0
  4 11  1  0  0  0  0
  5 12  1  0  0  0  0
  6 31  1  0  0  0  0
  6 27  1  0  0  0  0
  7 35  1  0  0  0  0
  7 45  1  0  0  0  0
  7 49  1  0  0  0  0
  8 21  1  0  0  0  0
  8 20  1  0  0  0  0
  9 42  1  0  0  0  0
 10  3  1  0  0  0  0
 10  1  1  0  0  0  0
 11  1  1  0  0  0  0
 12  1  1  0  0  0  0
 13  6  1  0  0  0  0
 14 13  3  0  0  0  0
 15 14  1  0  0  0  0
 15 16  1  0  0  0  0
 16 17  1  0  0  0  0
 18 16  2  0  0  0  0
 18 19  1  0  0  0  0
 20 18  1  0  0  0  0
 21 15  2  0  0  0  0
 22 21  1  0  0  0  0
 23 25  1  0  0  0  0
 23  6  1  0  0  0  0
 24 23  1  0  0  0  0
 26 23  1  0  0  0  0
 27 30  1  0  0  0  0
 27 29  1  0  0  0  0
 28 27  1  0  0  0  0
 31 32  1  0  0  0  0
 31 33  1  0  0  0  0
 34 31  1  0  0  0  0
 35 36  3  0  0  0  0
 36 37  1  0  0  0  0
 37 38  1  0  0  0  0
 38 40  2  0  0  0  0
 38 39  1  0  0  0  0
 40 41  1  0  0  0  0
 42 20  2  0  0  0  0
 42 40  1  0  0  0  0
 43  9  1  0  0  0  0
 43 37  2  0  0  0  0
 44 43  1  0  0  0  0
 45 48  1  0  0  0  0
 46 45  1  0  0  0  0
 47 45  1  0  0  0  0
 49 51  1  0  0  0  0
 50 49  1  0  0  0  0
 52 49  1  0  0  0  0
 53  7  1  0  0  0  0
 54 53  1  0  0  0  0
 55 53  1  0  0  0  0
 56 53  1  0  0  0  0
M  END
$$$$
