CSD_code = YETBUV | q = 1 | S = 0 | Stoichiometry = C14H36Cl2CoP4(1+) | MND = 6
 OpenBabel04212202123D

 57 58  0  0  0  0  0  0  0  0999 V2000
    8.5672    2.8559    9.1310 Co  0  0  0  0  0  0  0  0  0  0  0  0
   10.7476    2.8552    9.1313 Cl  0  0  0  0  0  0  0  0  0  0  0  0
    8.7503    1.2388    7.5647 P   0  0  0  0  0  4  0  0  0  0  0  0
    9.9194    1.5261    6.1927 C   0  0  0  0  0  0  0  0  0  0  0  0
   10.8974    1.7833    6.5947 H   0  0  0  0  0  0  0  0  0  0  0  0
    9.5701    2.3311    5.5508 H   0  0  0  0  0  0  0  0  0  0  0  0
    9.9924    0.6111    5.6047 H   0  0  0  0  0  0  0  0  0  0  0  0
    7.2836    0.6066    6.6688 C   0  0  0  0  0  0  0  0  0  0  0  0
    7.0650    1.2481    5.8186 H   0  0  0  0  0  0  0  0  0  0  0  0
    6.4077    0.5895    7.3126 H   0  0  0  0  0  0  0  0  0  0  0  0
    7.4991   -0.3994    6.3106 H   0  0  0  0  0  0  0  0  0  0  0  0
    9.4963   -0.2910    8.2545 C   0  0  0  0  0  0  0  0  0  0  0  0
    9.8507   -0.8904    7.4102 H   0  0  0  0  0  0  0  0  0  0  0  0
   10.3749    0.0341    8.8190 H   0  0  0  0  0  0  0  0  0  0  0  0
    8.5673   -1.1282    9.1311 C   0  0  0  0  0  0  0  0  0  0  0  0
    7.9532   -1.7784    8.5042 H   0  0  0  0  0  0  0  0  0  0  0  0
    9.1817   -1.7780    9.7581 H   0  0  0  0  0  0  0  0  0  0  0  0
    6.3867    2.8555    9.1309 Cl  0  0  0  0  0  0  0  0  0  0  0  0
    8.3839    1.2389   10.6973 P   0  0  0  0  0  4  0  0  0  0  0  0
    8.7503    4.4726   10.6975 P   0  0  0  0  0  4  0  0  0  0  0  0
    8.3838    4.4727    7.5645 P   0  0  0  0  0  4  0  0  0  0  0  0
    9.9195    4.1855   12.0695 C   0  0  0  0  0  0  0  0  0  0  0  0
    7.2146    4.1853    6.1926 C   0  0  0  0  0  0  0  0  0  0  0  0
    7.2147    1.5259   12.0694 C   0  0  0  0  0  0  0  0  0  0  0  0
   10.8975    3.9281   11.6675 H   0  0  0  0  0  0  0  0  0  0  0  0
    6.2366    3.9280    6.5947 H   0  0  0  0  0  0  0  0  0  0  0  0
    6.2367    1.7834   11.6674 H   0  0  0  0  0  0  0  0  0  0  0  0
    9.5701    3.3807   12.7116 H   0  0  0  0  0  0  0  0  0  0  0  0
    7.5640    3.3804    5.5506 H   0  0  0  0  0  0  0  0  0  0  0  0
    7.5642    2.3305   12.7116 H   0  0  0  0  0  0  0  0  0  0  0  0
    9.9927    5.1007   12.6573 H   0  0  0  0  0  0  0  0  0  0  0  0
    7.1415    5.1004    5.6047 H   0  0  0  0  0  0  0  0  0  0  0  0
    7.1414    0.6106   12.6571 H   0  0  0  0  0  0  0  0  0  0  0  0
    7.2837    5.1050   11.5933 C   0  0  0  0  0  0  0  0  0  0  0  0
    9.8506    5.1048    6.6687 C   0  0  0  0  0  0  0  0  0  0  0  0
    9.8504    0.6064   11.5933 C   0  0  0  0  0  0  0  0  0  0  0  0
    7.0645    4.4629   12.4429 H   0  0  0  0  0  0  0  0  0  0  0  0
   10.0692    4.4632    5.8185 H   0  0  0  0  0  0  0  0  0  0  0  0
   10.0696    1.2485   12.4430 H   0  0  0  0  0  0  0  0  0  0  0  0
    6.4081    5.1231   10.9492 H   0  0  0  0  0  0  0  0  0  0  0  0
   10.7265    5.1219    7.3125 H   0  0  0  0  0  0  0  0  0  0  0  0
   10.7261    0.5883   10.9492 H   0  0  0  0  0  0  0  0  0  0  0  0
    7.4997    6.1107   11.9523 H   0  0  0  0  0  0  0  0  0  0  0  0
    9.6351    6.1108    6.3105 H   0  0  0  0  0  0  0  0  0  0  0  0
    9.6345   -0.3992   11.9523 H   0  0  0  0  0  0  0  0  0  0  0  0
    7.6381   -0.2910   10.0074 C   0  0  0  0  0  0  0  0  0  0  0  0
    9.4962    6.0024   10.0074 C   0  0  0  0  0  0  0  0  0  0  0  0
    7.6379    6.0025    8.2544 C   0  0  0  0  0  0  0  0  0  0  0  0
    9.8508    6.6018   10.8514 H   0  0  0  0  0  0  0  0  0  0  0  0
    7.2836    6.6019    7.4102 H   0  0  0  0  0  0  0  0  0  0  0  0
    7.2835   -0.8904   10.8515 H   0  0  0  0  0  0  0  0  0  0  0  0
   10.3746    5.6772    9.4426 H   0  0  0  0  0  0  0  0  0  0  0  0
    6.7594    5.6774    8.8190 H   0  0  0  0  0  0  0  0  0  0  0  0
    6.7597    0.0340    9.4425 H   0  0  0  0  0  0  0  0  0  0  0  0
    8.5670    6.8396    9.1310 C   0  0  0  0  0  0  0  0  0  0  0  0
    7.9527    7.4894    9.7581 H   0  0  0  0  0  0  0  0  0  0  0  0
    9.1812    7.4897    8.5042 H   0  0  0  0  0  0  0  0  0  0  0  0
  1  2  1  0  0  0  0
  1 19  1  0  0  0  0
  1 20  1  0  0  0  0
  3 12  1  0  0  0  0
  3  1  1  0  0  0  0
  4  5  1  0  0  0  0
  4  3  1  0  0  0  0
  6  4  1  0  0  0  0
  7  4  1  0  0  0  0
  8 10  1  0  0  0  0
  8  3  1  0  0  0  0
  9  8  1  0  0  0  0
 11  8  1  0  0  0  0
 12 14  1  0  0  0  0
 12 15  1  0  0  0  0
 13 12  1  0  0  0  0
 15 17  1  0  0  0  0
 15 46  1  0  0  0  0
 16 15  1  0  0  0  0
 18  1  1  0  0  0  0
 19 36  1  0  0  0  0
 19 24  1  0  0  0  0
 20 34  1  0  0  0  0
 20 22  1  0  0  0  0
 21 48  1  0  0  0  0
 21  1  1  0  0  0  0
 22 31  1  0  0  0  0
 22 28  1  0  0  0  0
 23 26  1  0  0  0  0
 23 21  1  0  0  0  0
 24 33  1  0  0  0  0
 24 30  1  0  0  0  0
 25 22  1  0  0  0  0
 27 24  1  0  0  0  0
 29 23  1  0  0  0  0
 32 23  1  0  0  0  0
 34 43  1  0  0  0  0
 34 37  1  0  0  0  0
 35 41  1  0  0  0  0
 35 21  1  0  0  0  0
 36 45  1  0  0  0  0
 36 39  1  0  0  0  0
 38 35  1  0  0  0  0
 40 34  1  0  0  0  0
 42 36  1  0  0  0  0
 44 35  1  0  0  0  0
 46 19  1  0  0  0  0
 46 51  1  0  0  0  0
 47 20  1  0  0  0  0
 47 49  1  0  0  0  0
 48 53  1  0  0  0  0
 48 55  1  0  0  0  0
 50 48  1  0  0  0  0
 52 47  1  0  0  0  0
 54 46  1  0  0  0  0
 55 56  1  0  0  0  0
 55 47  1  0  0  0  0
 57 55  1  0  0  0  0
M  END
$$$$
