CSD_code = YEVDUZ | q = 0 | S = 0 | Stoichiometry = C18H26I2N2Pt | MND = 4
 OpenBabel04212202123D

 49 50  0  0  0  0  0  0  0  0999 V2000
    6.8213    2.1211    4.3320 Pt  0  0  0  0  0  0  0  0  0  0  0  0
    7.6879    4.5917    4.2712 I   0  0  0  0  0  0  0  0  0  0  0  0
    8.1263    1.6443    2.7707 N   0  0  0  0  0  4  0  0  0  0  0  0
    7.6179    1.1400    2.0367 H   0  0  0  0  0  0  0  0  0  0  0  0
    8.4788    2.5309    2.3938 H   0  0  0  0  0  0  0  0  0  0  0  0
    9.2040    0.8375    3.2658 C   0  0  0  0  0  0  0  0  0  0  0  0
    9.3002   -0.5042    2.9194 C   0  0  0  0  0  0  0  0  0  0  0  0
    8.5700   -0.9464    2.2567 H   0  0  0  0  0  0  0  0  0  0  0  0
   10.3175   -1.2814    3.4373 C   0  0  0  0  0  0  0  0  0  0  0  0
   10.3670   -2.3230    3.1610 H   0  0  0  0  0  0  0  0  0  0  0  0
   11.2638   -0.7420    4.3009 C   0  0  0  0  0  0  0  0  0  0  0  0
   11.1635    0.6042    4.6290 C   0  0  0  0  0  0  0  0  0  0  0  0
   11.8885    1.0475    5.2959 H   0  0  0  0  0  0  0  0  0  0  0  0
   10.1490    1.3932    4.1201 C   0  0  0  0  0  0  0  0  0  0  0  0
   10.0933    2.4387    4.3871 H   0  0  0  0  0  0  0  0  0  0  0  0
   12.3764   -1.5882    4.8662 C   0  0  0  0  0  0  0  0  0  0  0  0
   12.9837   -0.9571    5.5245 H   0  0  0  0  0  0  0  0  0  0  0  0
   11.8136   -2.7426    5.6977 C   0  0  0  0  0  0  0  0  0  0  0  0
   11.2360   -3.4229    5.0771 H   0  0  0  0  0  0  0  0  0  0  0  0
   11.1650   -2.3625    6.4837 H   0  0  0  0  0  0  0  0  0  0  0  0
   12.6243   -3.3030    6.1580 H   0  0  0  0  0  0  0  0  0  0  0  0
   13.2774   -2.1134    3.7461 C   0  0  0  0  0  0  0  0  0  0  0  0
   14.1104   -2.6724    4.1664 H   0  0  0  0  0  0  0  0  0  0  0  0
   13.6755   -1.2878    3.1599 H   0  0  0  0  0  0  0  0  0  0  0  0
   12.7243   -2.7717    3.0809 H   0  0  0  0  0  0  0  0  0  0  0  0
    5.9546   -0.3494    4.3928 I   0  0  0  0  0  0  0  0  0  0  0  0
    5.5162    2.5978    5.8933 N   0  0  0  0  0  4  0  0  0  0  0  0
    6.0245    3.1022    6.6272 H   0  0  0  0  0  0  0  0  0  0  0  0
    5.1636    1.7112    6.2702 H   0  0  0  0  0  0  0  0  0  0  0  0
    4.4384    3.4045    5.3981 C   0  0  0  0  0  0  0  0  0  0  0  0
    4.3422    4.7463    5.7443 C   0  0  0  0  0  0  0  0  0  0  0  0
    5.0725    5.1886    6.4069 H   0  0  0  0  0  0  0  0  0  0  0  0
    3.3250    5.5235    5.2263 C   0  0  0  0  0  0  0  0  0  0  0  0
    3.2755    6.5652    5.5024 H   0  0  0  0  0  0  0  0  0  0  0  0
    2.3786    4.9840    4.3627 C   0  0  0  0  0  0  0  0  0  0  0  0
    2.4787    3.6376    4.0351 C   0  0  0  0  0  0  0  0  0  0  0  0
    1.7536    3.1942    3.3684 H   0  0  0  0  0  0  0  0  0  0  0  0
    3.4932    2.8487    4.5440 C   0  0  0  0  0  0  0  0  0  0  0  0
    3.5488    1.8031    4.2773 H   0  0  0  0  0  0  0  0  0  0  0  0
    1.2661    5.8301    3.7972 C   0  0  0  0  0  0  0  0  0  0  0  0
    0.6587    5.1989    3.1391 H   0  0  0  0  0  0  0  0  0  0  0  0
    1.8290    6.9843    2.9653 C   0  0  0  0  0  0  0  0  0  0  0  0
    2.4066    7.6647    3.5857 H   0  0  0  0  0  0  0  0  0  0  0  0
    2.4776    6.6038    2.1794 H   0  0  0  0  0  0  0  0  0  0  0  0
    1.0184    7.5445    2.5048 H   0  0  0  0  0  0  0  0  0  0  0  0
    0.3652    6.3557    4.9172 C   0  0  0  0  0  0  0  0  0  0  0  0
   -0.4677    6.9146    4.4969 H   0  0  0  0  0  0  0  0  0  0  0  0
   -0.0330    5.5301    5.5035 H   0  0  0  0  0  0  0  0  0  0  0  0
    0.9184    7.0140    5.5823 H   0  0  0  0  0  0  0  0  0  0  0  0
  1 26  1  0  0  0  0
  1 27  1  0  0  0  0
  2  1  1  0  0  0  0
  3  6  1  0  0  0  0
  3  1  1  0  0  0  0
  4  3  1  0  0  0  0
  5  3  1  0  0  0  0
  6 14  1  0  0  0  0
  7  6  2  0  0  0  0
  7  9  1  0  0  0  0
  8  7  1  0  0  0  0
  9 11  2  0  0  0  0
 10  9  1  0  0  0  0
 11 12  1  0  0  0  0
 11 16  1  0  0  0  0
 12 13  1  0  0  0  0
 14 15  1  0  0  0  0
 14 12  2  0  0  0  0
 16 17  1  0  0  0  0
 16 18  1  0  0  0  0
 18 21  1  0  0  0  0
 18 20  1  0  0  0  0
 19 18  1  0  0  0  0
 22 23  1  0  0  0  0
 22 16  1  0  0  0  0
 24 22  1  0  0  0  0
 25 22  1  0  0  0  0
 27 29  1  0  0  0  0
 27 28  1  0  0  0  0
 30 31  1  0  0  0  0
 30 27  1  0  0  0  0
 31 32  1  0  0  0  0
 33 34  1  0  0  0  0
 33 31  2  0  0  0  0
 35 33  1  0  0  0  0
 36 35  2  0  0  0  0
 36 38  1  0  0  0  0
 37 36  1  0  0  0  0
 38 30  2  0  0  0  0
 39 38  1  0  0  0  0
 40 35  1  0  0  0  0
 40 46  1  0  0  0  0
 41 40  1  0  0  0  0
 42 43  1  0  0  0  0
 42 40  1  0  0  0  0
 44 42  1  0  0  0  0
 45 42  1  0  0  0  0
 46 48  1  0  0  0  0
 46 49  1  0  0  0  0
 47 46  1  0  0  0  0
M  END
$$$$
