CSD_code = YEWBUY | q = 0 | S = 0 | Stoichiometry = C11H16Cl2N4Pd | MND = 4
 OpenBabel04212202123D

 34 36  0  0  1  0  0  0  0  0999 V2000
    6.1464    0.5267    2.4858 Cl  0  0  0  0  0  0  0  0  0  0  0  0
    9.0572    1.2084    2.0535 N   0  0  2  0  0  0  0  0  0  0  0  0
    7.5889    2.0996    3.2040 Pd  0  0  0  0  0  0  0  0  0  0  0  0
    9.1162    0.6866    0.8454 C   0  0  0  0  0  3  0  0  0  0  0  0
    8.2588    0.7042    0.2009 H   0  0  0  0  0  0  0  0  0  0  0  0
    6.1506    2.8533    4.7397 Cl  0  0  0  0  0  0  0  0  0  0  0  0
   10.3902    0.1462    0.6240 C   0  0  0  0  0  0  0  0  0  0  0  0
   10.7414   -0.3476   -0.2575 H   0  0  0  0  0  0  0  0  0  0  0  0
   11.0885    0.3812    1.7835 C   0  0  0  0  0  0  0  0  0  0  0  0
   12.0926    0.1344    2.0638 H   0  0  0  0  0  0  0  0  0  0  0  0
   10.2493    1.0204    2.6271 N   0  0  0  0  0  0  0  0  0  0  0  0
   10.4703    1.4915    3.9751 C   0  0  0  0  0  0  0  0  0  0  0  0
    9.7526    0.9799    4.6493 H   0  0  0  0  0  0  0  0  0  0  0  0
   11.4981    1.2713    4.2748 H   0  0  0  0  0  0  0  0  0  0  0  0
   10.2218    2.9083    4.0273 N   0  0  0  0  0  0  0  0  0  0  0  0
    8.9907    3.4094    3.7516 C   0  0  0  0  0  0  0  0  0  0  0  0
    9.1371    4.7424    3.7393 N   0  0  0  0  0  0  0  0  0  0  0  0
   10.4398    5.0753    4.0117 C   0  0  0  0  0  0  0  0  0  0  0  0
   10.7729    6.0917    4.0626 H   0  0  0  0  0  0  0  0  0  0  0  0
   11.1310    3.9257    4.1831 C   0  0  0  0  0  0  0  0  0  0  0  0
   12.1625    3.7522    4.4104 H   0  0  0  0  0  0  0  0  0  0  0  0
    8.1026    5.7185    3.4623 C   0  0  0  0  0  0  0  0  0  0  0  0
    8.6039    6.6441    3.1636 H   0  0  0  0  0  0  0  0  0  0  0  0
    7.5364    5.9002    4.3817 H   0  0  0  0  0  0  0  0  0  0  0  0
    7.1277    5.2557    2.3781 C   0  0  0  0  0  0  0  0  0  0  0  0
    6.5665    4.3942    2.7677 H   0  0  0  0  0  0  0  0  0  0  0  0
    6.4140    6.0614    2.2049 H   0  0  0  0  0  0  0  0  0  0  0  0
    7.7964    4.8537    1.0593 C   0  0  0  0  0  0  0  0  0  0  0  0
    8.7628    4.3773    1.2571 H   0  0  0  0  0  0  0  0  0  0  0  0
    7.9816    5.7366    0.4422 H   0  0  0  0  0  0  0  0  0  0  0  0
    6.9159    3.8599    0.3062 C   0  0  0  0  0  0  0  0  0  0  0  0
    6.7438    2.9686    0.9335 H   0  0  0  0  0  0  0  0  0  0  0  0
    7.3874    3.5503   -0.6239 H   0  0  0  0  0  0  0  0  0  0  0  0
    5.9516    4.3049    0.0732 H   0  0  0  0  0  0  0  0  0  0  0  0
  1  3  1  0  0  0  0
  2  4  1  1  0  0  0
  2 11  1  0  0  0  0
  2  3  1  0  0  0  0
  3 16  2  0  0  0  0
  3  6  1  0  0  0  0
  5  4  1  0  0  0  0
  7  4  1  0  0  0  0
  7  9  2  0  0  0  0
  8  7  1  0  0  0  0
  9 10  1  0  0  0  0
  9 11  1  0  0  0  0
 11 12  1  0  0  0  0
 12 15  1  0  0  0  0
 12 14  1  0  0  0  0
 12 13  1  0  0  0  0
 15 20  1  0  0  0  0
 16 15  1  0  0  0  0
 17 16  1  0  0  0  0
 17 18  1  0  0  0  0
 18 19  1  0  0  0  0
 18 20  2  0  0  0  0
 20 21  1  0  0  0  0
 22 17  1  0  0  0  0
 22 24  1  0  0  0  0
 23 22  1  0  0  0  0
 25 26  1  0  0  0  0
 25 22  1  0  0  0  0
 27 25  1  0  0  0  0
 28 29  1  0  0  0  0
 28 25  1  0  0  0  0
 30 28  1  0  0  0  0
 31 32  1  0  0  0  0
 31 28  1  0  0  0  0
 33 31  1  0  0  0  0
 34 31  1  0  0  0  0
M  END
$$$$
