CSD_code = YEWVIH | q = 0 | S = 0 | Stoichiometry = C12H14AuClN2 | MND = 2
 OpenBabel04212202123D

 30 31  0  0  1  0  0  0  0  0999 V2000
   -0.2927    3.6405    6.5458 Au  0  0  0  0  0  0  0  0  0  0  0  0
   -0.7704    1.7133    6.8209 C   0  0  2  0  0  3  0  0  0  0  0  0
   -1.8220   -0.1334    7.5053 C   0  0  0  0  0  0  0  0  0  0  0  0
   -2.6098   -0.7153    7.9367 H   0  0  0  0  0  0  0  0  0  0  0  0
   -0.6576   -0.5087    6.9284 C   0  0  0  0  0  0  0  0  0  0  0  0
   -0.2440   -1.4845    6.7847 H   0  0  0  0  0  0  0  0  0  0  0  0
    1.2608    0.6789    5.8558 C   0  0  0  0  0  0  0  0  0  0  0  0
    1.4732    1.7420    5.6909 H   0  0  0  0  0  0  0  0  0  0  0  0
    2.3406    0.0833    6.7555 C   0  0  0  0  0  0  0  0  0  0  0  0
    2.3561    0.5952    7.7149 H   0  0  0  0  0  0  0  0  0  0  0  0
    3.3126    0.2028    6.2863 H   0  0  0  0  0  0  0  0  0  0  0  0
    2.1686   -0.9772    6.9259 H   0  0  0  0  0  0  0  0  0  0  0  0
    1.1818   -0.0351    4.5086 C   0  0  0  0  0  0  0  0  0  0  0  0
    0.9762   -1.0953    4.6386 H   0  0  0  0  0  0  0  0  0  0  0  0
    2.1266    0.0707    3.9837 H   0  0  0  0  0  0  0  0  0  0  0  0
    0.3965    0.4018    3.8959 H   0  0  0  0  0  0  0  0  0  0  0  0
   -2.9426    2.0150    7.9252 C   0  0  0  0  0  0  0  0  0  0  0  0
   -3.4266    1.7649    9.2032 C   0  0  0  0  0  0  0  0  0  0  0  0
   -2.9770    0.9894    9.8061 H   0  0  0  0  0  0  0  0  0  0  0  0
   -4.4661    2.5278    9.7036 C   0  0  0  0  0  0  0  0  0  0  0  0
   -4.8369    2.3369   10.6992 H   0  0  0  0  0  0  0  0  0  0  0  0
   -5.0209    3.5373    8.9350 C   0  0  0  0  0  0  0  0  0  0  0  0
   -5.8271    4.1355    9.3313 H   0  0  0  0  0  0  0  0  0  0  0  0
   -4.5411    3.7788    7.6586 C   0  0  0  0  0  0  0  0  0  0  0  0
   -4.9725    4.5625    7.0555 H   0  0  0  0  0  0  0  0  0  0  0  0
   -3.5062    3.0173    7.1462 C   0  0  0  0  0  0  0  0  0  0  0  0
   -3.1366    3.1929    6.1484 H   0  0  0  0  0  0  0  0  0  0  0  0
    0.2415    5.7996    6.2506 Cl  0  0  0  0  0  0  0  0  0  0  0  0
   -1.8793    1.2342    7.4231 N   0  0  0  0  0  0  0  0  0  0  0  0
   -0.0266    0.6356    6.5200 N   0  0  0  0  0  0  0  0  0  0  0  0
  2  1  1  1  0  0  0
  2 29  1  0  0  0  0
  3  4  1  0  0  0  0
  5  3  2  0  0  0  0
  6  5  1  0  0  0  0
  7 30  1  0  0  0  0
  7  9  1  0  0  0  0
  8  7  1  0  0  0  0
  9 12  1  0  0  0  0
  9 10  1  0  0  0  0
 11  9  1  0  0  0  0
 13 14  1  0  0  0  0
 13  7  1  0  0  0  0
 15 13  1  0  0  0  0
 16 13  1  0  0  0  0
 17 18  1  0  0  0  0
 18 20  2  0  0  0  0
 18 19  1  0  0  0  0
 20 21  1  0  0  0  0
 22 23  1  0  0  0  0
 22 20  1  0  0  0  0
 24 22  2  0  0  0  0
 25 24  1  0  0  0  0
 26 24  1  0  0  0  0
 26 17  2  0  0  0  0
 27 26  1  0  0  0  0
 28  1  1  0  0  0  0
 29  3  1  0  0  0  0
 29 17  1  0  0  0  0
 30  2  1  0  0  0  0
 30  5  1  0  0  0  0
M  END
$$$$
