CSD_code = YEXCEJ | q = 0 | S = 0 | Stoichiometry = C12H29Cl2N3Ti | MND = 5
 OpenBabel04212202123D

 47 47  0  0  0  0  0  0  0  0999 V2000
    4.3521    1.9079    1.3698 Ti  0  0  0  0  0  0  0  0  0  0  0  0
    3.1772   -0.0140    1.4261 Cl  0  0  0  0  0  0  0  0  0  0  0  0
    3.0542    2.8808   -0.1720 Cl  0  0  0  0  0  0  0  0  0  0  0  0
    4.1576    2.6649    2.8653 N   0  0  0  0  0  2  0  0  0  0  0  0
    6.0296    0.5628    1.5742 N   0  0  0  0  0  4  0  0  0  0  0  0
    5.9603    3.0186    0.4104 N   0  0  0  0  0  4  0  0  0  0  0  0
    3.1897    2.9164    3.8661 C   0  0  0  0  0  0  0  0  0  0  0  0
    3.0730    1.6795    4.7850 C   0  0  0  0  0  0  0  0  0  0  0  0
    1.8287    3.1650    3.1757 C   0  0  0  0  0  0  0  0  0  0  0  0
    3.5628    4.1484    4.7153 C   0  0  0  0  0  0  0  0  0  0  0  0
    7.1716    0.9373    0.7424 C   0  0  0  0  0  0  0  0  0  0  0  0
    7.2837    2.4670    0.6783 C   0  0  0  0  0  0  0  0  0  0  0  0
    6.3021    0.1029    2.9482 C   0  0  0  0  0  0  0  0  0  0  0  0
    6.9290    1.2138    3.7808 C   0  0  0  0  0  0  0  0  0  0  0  0
    7.1363   -1.1810    2.9789 C   0  0  0  0  0  0  0  0  0  0  0  0
    5.8638    4.4912    0.4534 C   0  0  0  0  0  0  0  0  0  0  0  0
    6.0906    5.0050    1.8700 C   0  0  0  0  0  0  0  0  0  0  0  0
    6.8003    5.1664   -0.5522 C   0  0  0  0  0  0  0  0  0  0  0  0
    5.4939   -0.1908    1.1320 H   0  0  0  0  0  0  0  0  0  0  0  0
    5.6594    2.7364   -0.5294 H   0  0  0  0  0  0  0  0  0  0  0  0
    4.0060    1.5302    5.3257 H   0  0  0  0  0  0  0  0  0  0  0  0
    2.2635    1.8078    5.4993 H   0  0  0  0  0  0  0  0  0  0  0  0
    2.8763    0.8008    4.1698 H   0  0  0  0  0  0  0  0  0  0  0  0
    1.9196    4.0144    2.4958 H   0  0  0  0  0  0  0  0  0  0  0  0
    1.5608    2.2794    2.5926 H   0  0  0  0  0  0  0  0  0  0  0  0
    1.0490    3.3671    3.9072 H   0  0  0  0  0  0  0  0  0  0  0  0
    3.5920    5.0352    4.0858 H   0  0  0  0  0  0  0  0  0  0  0  0
    2.8296    4.2986    5.5037 H   0  0  0  0  0  0  0  0  0  0  0  0
    4.5425    4.0057    5.1675 H   0  0  0  0  0  0  0  0  0  0  0  0
    7.0223    0.5517   -0.2756 H   0  0  0  0  0  0  0  0  0  0  0  0
    8.1126    0.5178    1.1181 H   0  0  0  0  0  0  0  0  0  0  0  0
    7.6191    2.8532    1.6432 H   0  0  0  0  0  0  0  0  0  0  0  0
    8.0215    2.7411   -0.0917 H   0  0  0  0  0  0  0  0  0  0  0  0
    5.3088   -0.1150    3.3669 H   0  0  0  0  0  0  0  0  0  0  0  0
    6.2976    2.1013    3.6892 H   0  0  0  0  0  0  0  0  0  0  0  0
    6.9656    0.9118    4.8241 H   0  0  0  0  0  0  0  0  0  0  0  0
    7.9451    1.4329    3.4584 H   0  0  0  0  0  0  0  0  0  0  0  0
    6.6899   -1.9412    2.3404 H   0  0  0  0  0  0  0  0  0  0  0  0
    8.1616   -1.0089    2.6567 H   0  0  0  0  0  0  0  0  0  0  0  0
    7.1690   -1.5700    3.9925 H   0  0  0  0  0  0  0  0  0  0  0  0
    4.8250    4.7160    0.1747 H   0  0  0  0  0  0  0  0  0  0  0  0
    5.4860    4.3943    2.5472 H   0  0  0  0  0  0  0  0  0  0  0  0
    7.1391    4.9593    2.1576 H   0  0  0  0  0  0  0  0  0  0  0  0
    5.7678    6.0400    1.9388 H   0  0  0  0  0  0  0  0  0  0  0  0
    6.5693    6.2264   -0.6066 H   0  0  0  0  0  0  0  0  0  0  0  0
    7.8430    5.0668   -0.2565 H   0  0  0  0  0  0  0  0  0  0  0  0
    6.6709    4.7441   -1.5476 H   0  0  0  0  0  0  0  0  0  0  0  0
  1  2  1  0  0  0  0
  1  5  1  0  0  0  0
  1  4  1  0  0  0  0
  3  1  1  0  0  0  0
  4  7  1  0  0  0  0
  5 13  1  0  0  0  0
  6 16  1  0  0  0  0
  6 12  1  0  0  0  0
  6  1  1  0  0  0  0
  7 10  1  0  0  0  0
  7  8  1  0  0  0  0
  8 21  1  0  0  0  0
  8 22  1  0  0  0  0
  9  7  1  0  0  0  0
  9 26  1  0  0  0  0
 10 29  1  0  0  0  0
 10 28  1  0  0  0  0
 11 31  1  0  0  0  0
 11  5  1  0  0  0  0
 12 11  1  0  0  0  0
 12 32  1  0  0  0  0
 13 15  1  0  0  0  0
 13 34  1  0  0  0  0
 13 14  1  0  0  0  0
 14 36  1  0  0  0  0
 15 40  1  0  0  0  0
 16 17  1  0  0  0  0
 17 44  1  0  0  0  0
 17 43  1  0  0  0  0
 17 42  1  0  0  0  0
 18 46  1  0  0  0  0
 18 16  1  0  0  0  0
 19  5  1  0  0  0  0
 20  6  1  0  0  0  0
 23  8  1  0  0  0  0
 24  9  1  0  0  0  0
 25  9  1  0  0  0  0
 27 10  1  0  0  0  0
 30 11  1  0  0  0  0
 33 12  1  0  0  0  0
 35 14  1  0  0  0  0
 37 14  1  0  0  0  0
 38 15  1  0  0  0  0
 39 15  1  0  0  0  0
 41 16  1  0  0  0  0
 45 18  1  0  0  0  0
 47 18  1  0  0  0  0
M  END
$$$$
