CSD_code = YEXNIB | q = 0 | S = 0 | Stoichiometry = C17H13Cl2N5Zn | MND = 5
 OpenBabel04212202123D

 38 42  0  0  1  0  0  0  0  0999 V2000
   11.6584    2.9264    4.8628 Zn  0  0  0  0  0  0  0  0  0  0  0  0
   13.2436    1.8002    5.9611 Cl  0  0  0  0  0  0  0  0  0  0  0  0
    9.4383    2.7727    5.0466 Cl  0  0  0  0  0  0  0  0  0  0  0  0
   12.2929    5.5846    3.7952 C   0  0  2  0  0  3  0  0  0  0  0  0
   12.8070    3.8622    2.3307 C   0  0  0  0  0  0  0  0  0  0  0  0
   13.2404    6.1152    1.6685 C   0  0  0  0  0  0  0  0  0  0  0  0
   13.5976    6.8351    0.9473 H   0  0  0  0  0  0  0  0  0  0  0  0
   12.7440    6.5497    2.8882 C   0  0  0  0  0  0  0  0  0  0  0  0
   12.7079    7.5929    3.1543 H   0  0  0  0  0  0  0  0  0  0  0  0
   11.4996   -1.6724    3.6943 C   0  0  0  0  0  0  0  0  0  0  0  0
   10.8279   -2.2459    4.3144 H   0  0  0  0  0  0  0  0  0  0  0  0
   13.2504   -0.2166    2.0877 C   0  0  0  0  0  0  0  0  0  0  0  0
   13.9247    0.3731    1.4859 H   0  0  0  0  0  0  0  0  0  0  0  0
   12.3084    0.4460    2.8932 C   0  0  0  0  0  0  0  0  0  0  0  0
   10.2623    6.4500    7.2633 C   0  0  0  0  0  0  0  0  0  0  0  0
   10.2623    7.2195    6.5067 H   0  0  0  0  0  0  0  0  0  0  0  0
   11.4302   -0.2953    3.6964 C   0  0  0  0  0  0  0  0  0  0  0  0
   10.7078    0.2306    4.3033 H   0  0  0  0  0  0  0  0  0  0  0  0
   10.9343    4.2202    7.9588 C   0  0  0  0  0  0  0  0  0  0  0  0
   11.4598    3.3019    7.7414 H   0  0  0  0  0  0  0  0  0  0  0  0
   13.2809    4.7617    1.3695 C   0  0  0  0  0  0  0  0  0  0  0  0
   13.6517    4.3928    0.4278 H   0  0  0  0  0  0  0  0  0  0  0  0
   10.9309    5.2424    6.9990 C   0  0  0  0  0  0  0  0  0  0  0  0
   10.2763    4.4049    9.1563 C   0  0  0  0  0  0  0  0  0  0  0  0
   10.2737    3.6185    9.8955 H   0  0  0  0  0  0  0  0  0  0  0  0
    9.6069    6.6162    8.4622 C   0  0  0  0  0  0  0  0  0  0  0  0
    9.0821    7.5376    8.6671 H   0  0  0  0  0  0  0  0  0  0  0  0
   13.3092   -1.5917    2.1009 C   0  0  0  0  0  0  0  0  0  0  0  0
   14.0381   -2.1065    1.4926 H   0  0  0  0  0  0  0  0  0  0  0  0
   12.4375   -2.3210    2.9025 C   0  0  0  0  0  0  0  0  0  0  0  0
   12.4949   -3.3995    2.9113 H   0  0  0  0  0  0  0  0  0  0  0  0
    9.6111    5.5970    9.4085 C   0  0  0  0  0  0  0  0  0  0  0  0
    9.0889    5.7338   10.3439 H   0  0  0  0  0  0  0  0  0  0  0  0
   12.3378    4.2960    3.4912 N   0  0  0  0  0  0  0  0  0  0  0  0
   12.8728    2.5030    2.1327 N   0  0  0  0  0  2  0  0  0  0  0  0
   11.7304    5.9409    4.9986 N   0  0  0  0  0  2  0  0  0  0  0  0
   12.2059    1.8094    2.9600 N   0  0  0  0  0  0  0  0  0  0  0  0
   11.5804    4.9867    5.8215 N   0  0  0  0  0  0  0  0  0  0  0  0
  1  3  1  0  0  0  0
  1 38  1  0  0  0  0
  1  2  1  0  0  0  0
  4  8  1  6  0  0  0
  4 36  1  0  0  0  0
  5 34  1  0  0  0  0
  6  8  2  0  0  0  0
  7  6  1  0  0  0  0
  8  9  1  0  0  0  0
 10 17  1  0  0  0  0
 10 11  1  0  0  0  0
 12 28  2  0  0  0  0
 12 14  1  0  0  0  0
 13 12  1  0  0  0  0
 14 37  1  0  0  0  0
 14 17  2  0  0  0  0
 15 26  1  0  0  0  0
 16 15  1  0  0  0  0
 17 18  1  0  0  0  0
 19 24  2  0  0  0  0
 20 19  1  0  0  0  0
 21  6  1  0  0  0  0
 21  5  2  0  0  0  0
 22 21  1  0  0  0  0
 23 15  2  0  0  0  0
 23 19  1  0  0  0  0
 24 32  1  0  0  0  0
 24 25  1  0  0  0  0
 26 27  1  0  0  0  0
 26 32  2  0  0  0  0
 28 30  1  0  0  0  0
 29 28  1  0  0  0  0
 30 31  1  0  0  0  0
 30 10  2  0  0  0  0
 32 33  1  0  0  0  0
 34  4  1  0  0  0  0
 34  1  1  0  0  0  0
 35  5  1  0  0  0  0
 35 37  1  0  0  0  0
 36 38  1  0  0  0  0
 37  1  1  0  0  0  0
 38 23  1  0  0  0  0
M  END
$$$$
