CSD_code = YEXNUN | q = 0 | S = 0 | Stoichiometry = C17H17Cl2N5Zn | MND = 5
 OpenBabel04212202123D

 42 46  0  0  1  0  0  0  0  0999 V2000
   -0.5425    0.8204    3.0370 Zn  0  0  0  0  0  0  0  0  0  0  0  0
    0.9390   -0.0872    1.6665 Cl  0  0  0  0  0  0  0  0  0  0  0  0
    3.0740    1.7390    4.1707 C   0  0  0  0  0  0  0  0  0  0  0  0
    2.8338    2.7176    3.7801 H   0  0  0  0  0  0  0  0  0  0  0  0
    3.6748   -0.8058    5.0888 C   0  0  0  0  0  0  0  0  0  0  0  0
    3.9032   -1.8013    5.4383 H   0  0  0  0  0  0  0  0  0  0  0  0
   -0.5427    2.9003    3.0371 N   0  0  0  0  0  0  0  0  0  0  0  0
    4.3507    1.2278    4.0192 C   0  0  0  0  0  0  0  0  0  0  0  0
    5.1056    1.8249    3.5302 H   0  0  0  0  0  0  0  0  0  0  0  0
    0.7652    1.4504    4.9101 N   0  0  0  0  0  4  0  0  0  0  0  0
    4.6557   -0.0410    4.4783 C   0  0  0  0  0  0  0  0  0  0  0  0
    5.6512   -0.4379    4.3516 H   0  0  0  0  0  0  0  0  0  0  0  0
    2.0947    0.9735    4.7899 C   0  0  0  0  0  0  0  0  0  0  0  0
    0.0592    3.5657    4.0244 C   0  0  2  0  0  3  0  0  0  0  0  0
    0.5985    2.8290    5.0343 N   0  0  0  0  0  0  0  0  0  0  0  0
    2.3997   -0.3008    5.2542 C   0  0  0  0  0  0  0  0  0  0  0  0
    1.6262   -0.8980    5.7155 H   0  0  0  0  0  0  0  0  0  0  0  0
   -0.5427    5.6522    3.0371 C   0  0  0  0  0  0  0  0  0  0  0  0
   -0.5426    6.7313    3.0371 H   0  0  0  0  0  0  0  0  0  0  0  0
    0.0874    4.9623    4.0562 C   0  0  0  0  0  0  0  0  0  0  0  0
    0.5851    5.4767    4.8615 H   0  0  0  0  0  0  0  0  0  0  0  0
    0.2422    0.9426    5.6264 H   0  0  0  0  0  0  0  0  0  0  0  0
    1.2055    3.3135    5.6878 H   0  0  0  0  0  0  0  0  0  0  0  0
   -4.1592    1.7390    1.9038 C   0  0  0  0  0  0  0  0  0  0  0  0
   -3.9190    2.7176    2.2943 H   0  0  0  0  0  0  0  0  0  0  0  0
   -4.7602   -0.8058    0.9857 C   0  0  0  0  0  0  0  0  0  0  0  0
   -4.9886   -1.8013    0.6363 H   0  0  0  0  0  0  0  0  0  0  0  0
   -5.4359    1.2278    2.0554 C   0  0  0  0  0  0  0  0  0  0  0  0
   -6.1908    1.8250    2.5446 H   0  0  0  0  0  0  0  0  0  0  0  0
   -1.8506    1.4504    1.1640 N   0  0  0  0  0  4  0  0  0  0  0  0
   -5.7410   -0.0410    1.5964 C   0  0  0  0  0  0  0  0  0  0  0  0
   -6.7365   -0.4378    1.7232 H   0  0  0  0  0  0  0  0  0  0  0  0
   -3.1800    0.9735    1.2845 C   0  0  0  0  0  0  0  0  0  0  0  0
   -1.1445    3.5657    2.0499 C   0  0  0  0  0  0  0  0  0  0  0  0
   -1.6838    2.8291    1.0399 N   0  0  0  0  0  0  0  0  0  0  0  0
   -3.4851   -0.3008    0.8202 C   0  0  0  0  0  0  0  0  0  0  0  0
   -2.7116   -0.8980    0.3588 H   0  0  0  0  0  0  0  0  0  0  0  0
   -1.1727    4.9624    2.0180 C   0  0  0  0  0  0  0  0  0  0  0  0
   -1.6704    5.4767    1.2128 H   0  0  0  0  0  0  0  0  0  0  0  0
   -1.3276    0.9426    0.4476 H   0  0  0  0  0  0  0  0  0  0  0  0
   -2.2908    3.3135    0.3865 H   0  0  0  0  0  0  0  0  0  0  0  0
   -2.0237   -0.0881    4.4072 Cl  0  0  0  0  0  0  0  0  0  0  0  0
  1  7  1  0  0  0  0
  1 42  1  0  0  0  0
  1 10  1  0  0  0  0
  2  1  1  0  0  0  0
  3 13  1  0  0  0  0
  4  3  1  0  0  0  0
  5 16  1  0  0  0  0
  5  6  1  0  0  0  0
  7 14  1  0  0  0  0
  8  3  2  0  0  0  0
  8 11  1  0  0  0  0
  9  8  1  0  0  0  0
 10 15  1  0  0  0  0
 10 22  1  0  0  0  0
 11  5  2  0  0  0  0
 12 11  1  0  0  0  0
 13 10  1  0  0  0  0
 13 16  2  0  0  0  0
 14 20  1  1  0  0  0
 14 15  1  0  0  0  0
 15 23  1  0  0  0  0
 16 17  1  0  0  0  0
 18 20  2  0  0  0  0
 19 18  1  0  0  0  0
 20 21  1  0  0  0  0
 24 28  1  0  0  0  0
 24 25  1  0  0  0  0
 26 31  1  0  0  0  0
 27 26  1  0  0  0  0
 28 29  1  0  0  0  0
 30 33  1  0  0  0  0
 30  1  1  0  0  0  0
 31 32  1  0  0  0  0
 31 28  2  0  0  0  0
 33 24  2  0  0  0  0
 34  7  1  0  0  0  0
 35 30  1  0  0  0  0
 35 34  1  0  0  0  0
 36 26  2  0  0  0  0
 36 33  1  0  0  0  0
 37 36  1  0  0  0  0
 38 34  2  0  0  0  0
 38 18  1  0  0  0  0
 39 38  1  0  0  0  0
 40 30  1  0  0  0  0
 41 35  1  0  0  0  0
M  END
$$$$
