CSD_code = YEXNOH | q = 0 | S = 0 | Stoichiometry = C17H15Cl2N5Zn | MND = 5
 OpenBabel04212202123D

 40 43  0  0  1  0  0  0  0  0999 V2000
    0.9935    7.5985    2.8326 Zn  0  0  0  0  0  0  0  0  0  0  0  0
    1.6391    6.1751    1.2629 Cl  0  0  0  0  0  0  0  0  0  0  0  0
    1.3622    7.6008    5.0357 Cl  0  0  0  0  0  0  0  0  0  0  0  0
    1.3812   10.4718    1.8545 C   0  0  2  0  0  3  0  0  0  0  0  0
   -0.7160    9.5412    1.5616 C   0  0  0  0  0  0  0  0  0  0  0  0
   -1.2008   10.6893    0.9429 C   0  0  0  0  0  0  0  0  0  0  0  0
   -2.2211   10.7226    0.6025 H   0  0  0  0  0  0  0  0  0  0  0  0
    0.9657   11.6715    1.2398 C   0  0  0  0  0  0  0  0  0  0  0  0
    1.6629   12.4862    1.1257 H   0  0  0  0  0  0  0  0  0  0  0  0
    4.1145    8.4577    2.1098 C   0  0  0  0  0  0  0  0  0  0  0  0
    4.9337    7.5606    2.7869 C   0  0  0  0  0  0  0  0  0  0  0  0
    4.7578    7.3691    3.8355 H   0  0  0  0  0  0  0  0  0  0  0  0
    4.3152    8.6909    0.7550 C   0  0  0  0  0  0  0  0  0  0  0  0
    3.6634    9.3633    0.2152 H   0  0  0  0  0  0  0  0  0  0  0  0
   -0.3327   11.7667    0.7926 C   0  0  0  0  0  0  0  0  0  0  0  0
   -0.6753   12.6733    0.3173 H   0  0  0  0  0  0  0  0  0  0  0  0
    6.1416    7.1324    0.7579 C   0  0  0  0  0  0  0  0  0  0  0  0
    6.9259    6.6119    0.2299 H   0  0  0  0  0  0  0  0  0  0  0  0
    5.9357    6.8963    2.1076 C   0  0  0  0  0  0  0  0  0  0  0  0
    6.5599    6.1909    2.6352 H   0  0  0  0  0  0  0  0  0  0  0  0
    5.3281    8.0272    0.0865 C   0  0  0  0  0  0  0  0  0  0  0  0
    5.4731    8.2062   -0.9685 H   0  0  0  0  0  0  0  0  0  0  0  0
    3.0561    9.0756    2.8067 N   0  0  0  0  0  0  0  0  0  0  0  0
    3.1772    9.0430    3.8197 H   0  0  0  0  0  0  0  0  0  0  0  0
    0.5430    9.4573    2.0045 N   0  0  0  0  0  0  0  0  0  0  0  0
    2.6295   10.3197    2.3529 N   0  0  0  0  0  0  0  0  0  0  0  0
    3.3305   11.0235    2.1436 H   0  0  0  0  0  0  0  0  0  0  0  0
   -1.1141    7.4931    2.3852 N   0  0  0  0  0  0  0  0  0  0  0  0
   -1.5451    8.4534    1.6814 N   0  0  0  0  0  2  0  0  0  0  0  0
   -1.8858    6.3603    2.4670 C   0  0  0  0  0  0  0  0  0  0  0  0
   -3.0666    6.1836    1.7271 C   0  0  0  0  0  0  0  0  0  0  0  0
   -3.3854    6.9724    1.0636 H   0  0  0  0  0  0  0  0  0  0  0  0
   -1.4448    5.3472    3.3278 C   0  0  0  0  0  0  0  0  0  0  0  0
   -0.5358    5.4975    3.8930 H   0  0  0  0  0  0  0  0  0  0  0  0
   -3.3350    4.0098    2.7062 C   0  0  0  0  0  0  0  0  0  0  0  0
   -3.8979    3.0925    2.7946 H   0  0  0  0  0  0  0  0  0  0  0  0
   -3.7792    5.0121    1.8509 C   0  0  0  0  0  0  0  0  0  0  0  0
   -4.6838    4.8685    1.2790 H   0  0  0  0  0  0  0  0  0  0  0  0
   -2.1709    4.1802    3.4427 C   0  0  0  0  0  0  0  0  0  0  0  0
   -1.8306    3.3978    4.1035 H   0  0  0  0  0  0  0  0  0  0  0  0
  1  3  1  0  0  0  0
  2  1  1  0  0  0  0
  4 25  1  0  0  0  0
  4 26  1  1  0  0  0
  5 29  1  0  0  0  0
  5 25  1  0  0  0  0
  6  5  2  0  0  0  0
  7  6  1  0  0  0  0
  8  4  1  0  0  0  0
  9  8  1  0  0  0  0
 10 11  1  0  0  0  0
 10 23  1  0  0  0  0
 11 12  1  0  0  0  0
 13 10  2  0  0  0  0
 14 13  1  0  0  0  0
 15  6  1  0  0  0  0
 15  8  2  0  0  0  0
 16 15  1  0  0  0  0
 17 19  1  0  0  0  0
 18 17  1  0  0  0  0
 19 20  1  0  0  0  0
 19 11  2  0  0  0  0
 21 13  1  0  0  0  0
 21 17  2  0  0  0  0
 22 21  1  0  0  0  0
 23 24  1  0  0  0  0
 25  1  1  0  0  0  0
 26 23  1  0  0  0  0
 27 26  1  0  0  0  0
 28 30  1  0  0  0  0
 28  1  1  0  0  0  0
 29 28  1  0  0  0  0
 30 33  1  0  0  0  0
 31 37  1  0  0  0  0
 31 30  2  0  0  0  0
 32 31  1  0  0  0  0
 33 39  2  0  0  0  0
 33 34  1  0  0  0  0
 35 36  1  0  0  0  0
 35 39  1  0  0  0  0
 37 35  2  0  0  0  0
 38 37  1  0  0  0  0
 39 40  1  0  0  0  0
M  END
$$$$
