CSD_code = YEXWUU | q = 0 | S = 0 | Stoichiometry = C16H31B11Br6PRh | MND = 6
 OpenBabel04212202123D

 66 71  0  0  1  0  0  0  0  0999 V2000
    8.4926   -2.0057   14.1176 Rh  0  0  0  0  0  0  0  0  0  0  0  0
    7.8374   -3.9702   13.2443 P   0  0  0  0  0  0  0  0  0  0  0  0
    6.1197   -3.9474   13.9504 C   0  0  1  0  0  0  0  0  0  0  0  0
    5.4787   -4.7796   13.6562 H   0  0  0  0  0  0  0  0  0  0  0  0
    6.3536   -3.7922   15.4542 C   0  0  0  0  0  0  0  0  0  0  0  0
    5.4037   -3.8134   16.0010 H   0  0  0  0  0  0  0  0  0  0  0  0
    7.0051   -4.5527   15.8765 H   0  0  0  0  0  0  0  0  0  0  0  0
    6.9111   -2.3902   15.5174 C   0  0  0  0  0  3  0  0  0  0  0  0
    6.4234   -1.6633   14.4267 C   0  0  2  0  0  0  0  0  0  0  0  0
    5.5620   -2.5678   13.5821 C   0  0  0  0  0  0  0  0  0  0  0  0
    5.6061   -2.3364   12.5214 H   0  0  0  0  0  0  0  0  0  0  0  0
    4.5211   -2.4777   13.9116 H   0  0  0  0  0  0  0  0  0  0  0  0
    8.7488   -5.4698   13.8682 C   0  0  0  0  0  0  0  0  0  0  0  0
    9.4151   -5.7377   13.0436 H   0  0  0  0  0  0  0  0  0  0  0  0
    9.6196   -5.1799   15.1046 C   0  0  0  0  0  0  0  0  0  0  0  0
   10.6193   -4.8578   14.8189 H   0  0  0  0  0  0  0  0  0  0  0  0
    9.1815   -4.3915   15.7232 H   0  0  0  0  0  0  0  0  0  0  0  0
    9.6490   -6.5042   15.8620 C   0  0  0  0  0  0  0  0  0  0  0  0
    9.9081   -6.3792   16.9117 H   0  0  0  0  0  0  0  0  0  0  0  0
   10.3791   -7.1730   15.4040 H   0  0  0  0  0  0  0  0  0  0  0  0
    8.2433   -7.0661   15.6686 C   0  0  0  0  0  0  0  0  0  0  0  0
    7.5542   -6.5951   16.3714 H   0  0  0  0  0  0  0  0  0  0  0  0
    8.2016   -8.1415   15.8345 H   0  0  0  0  0  0  0  0  0  0  0  0
    7.8805   -6.6973   14.2253 C   0  0  0  0  0  0  0  0  0  0  0  0
    6.8139   -6.5016   14.1240 H   0  0  0  0  0  0  0  0  0  0  0  0
    8.1263   -7.5239   13.5585 H   0  0  0  0  0  0  0  0  0  0  0  0
    7.6730   -4.4447   11.4617 C   0  0  0  0  0  0  0  0  0  0  0  0
    7.1944   -5.4327   11.4771 H   0  0  0  0  0  0  0  0  0  0  0  0
    6.8504   -3.4901   10.5888 C   0  0  0  0  0  0  0  0  0  0  0  0
    5.7830   -3.7015   10.6333 H   0  0  0  0  0  0  0  0  0  0  0  0
    7.0305   -2.4581   10.8916 H   0  0  0  0  0  0  0  0  0  0  0  0
    7.4335   -3.6884    9.1936 C   0  0  0  0  0  0  0  0  0  0  0  0
    7.0988   -4.6394    8.7752 H   0  0  0  0  0  0  0  0  0  0  0  0
    7.1556   -2.8884    8.5113 H   0  0  0  0  0  0  0  0  0  0  0  0
    8.9312   -3.7258    9.4725 C   0  0  0  0  0  0  0  0  0  0  0  0
    9.2953   -2.7120    9.6281 H   0  0  0  0  0  0  0  0  0  0  0  0
    9.5027   -4.1668    8.6593 H   0  0  0  0  0  0  0  0  0  0  0  0
    9.0530   -4.5389   10.7669 C   0  0  0  0  0  0  0  0  0  0  0  0
    9.8506   -4.1395   11.3939 H   0  0  0  0  0  0  0  0  0  0  0  0
    9.2930   -5.5781   10.5423 H   0  0  0  0  0  0  0  0  0  0  0  0
   11.7958    2.8940   12.7168 C   0  0  1  0  0  0  0  0  0  0  0  0
   11.9577    3.9558   12.6008 H   0  0  0  0  0  0  0  0  0  0  0  0
   13.0546    1.9882   13.4258 B   0  0  1  0  0  0  0  0  0  0  0  0
   14.0396    2.5274   13.7613 H   0  0  0  0  0  0  0  0  0  0  0  0
   12.6822    1.8525   11.6927 B   0  0  2  0  0  0  0  0  0  0  0  0
   13.4265    2.3063   10.9092 H   0  0  0  0  0  0  0  0  0  0  0  0
   10.9360    2.0957   11.4821 B   0  0  1  0  0  0  0  0  0  0  0  0
   10.5372    2.6947   10.5575 H   0  0  0  0  0  0  0  0  0  0  0  0
   10.2227    2.3712   13.0914 B   0  0  1  0  0  0  0  0  0  0  0  0
    9.3500    3.1427   13.2199 H   0  0  0  0  0  0  0  0  0  0  0  0
   11.5334    2.3068   14.2942 B   0  0  2  0  0  0  0  0  0  0  0  0
   11.5217    3.0434   15.2050 H   0  0  0  0  0  0  0  0  0  0  0  0
   12.2489    0.6745   14.2911 B   0  0  0  0  0  0  0  0  0  0  0  0
   12.9687    0.3776   12.6536 B   0  0  2  0  0  0  0  0  0  0  0  0
   11.6287    0.4482   11.4312 B   0  0  2  0  0  0  0  0  0  0  0  0
   10.1020    0.7871   12.3092 B   0  0  1  0  0  0  0  0  0  0  0  0
   10.4851    0.9110   14.0559 B   0  0  2  0  0  0  0  0  0  0  0  0
   11.3572   -0.2787   13.0503 B   0  0  2  0  0  0  0  0  0  0  0  0
   12.9402   -0.1605   15.9378 Br  0  0  0  0  0 15  0  0  0  0  0  0
   14.5650   -0.7493   12.3948 Br  0  0  0  0  0  0  0  0  0  0  0  0
   11.6232   -0.6309    9.7848 Br  0  0  0  0  0 15  0  0  0  0  0  0
    8.3901   -0.0137   11.7763 Br  0  0  0  0  0 15  0  0  0  0  0  0
    9.1655    0.1483   15.3320 Br  0  0  0  0  0 15  0  0  0  0  0  0
   10.8651   -2.1900   13.3528 Br  0  0  0  0  0 15  0  0  0  0  0  0
    7.1536   -1.9530   16.4802 H   0  0  0  0  0  0  0  0  0  0  0  0
    6.2193   -0.5987   14.4435 H   0  0  0  0  0  0  0  0  0  0  0  0
  1  9  1  0  0  0  0
  2 13  1  0  0  0  0
  2  3  1  0  0  0  0
  3  4  1  6  0  0  0
  3  5  1  0  0  0  0
  5  8  1  0  0  0  0
  5  7  1  0  0  0  0
  5  6  1  0  0  0  0
  8 65  1  0  0  0  0
  9 66  1  1  0  0  0
  9  8  1  0  0  0  0
 10 12  1  0  0  0  0
 10  3  1  0  0  0  0
 10  9  1  0  0  0  0
 11 10  1  0  0  0  0
 13 24  1  0  0  0  0
 13 15  1  0  0  0  0
 14 13  1  0  0  0  0
 15 17  1  0  0  0  0
 15 18  1  0  0  0  0
 16 15  1  0  0  0  0
 18 19  1  0  0  0  0
 20 18  1  0  0  0  0
 21 23  1  0  0  0  0
 21 18  1  0  0  0  0
 21 22  1  0  0  0  0
 24 21  1  0  0  0  0
 25 24  1  0  0  0  0
 26 24  1  0  0  0  0
 27 28  1  0  0  0  0
 27  2  1  0  0  0  0
 29 30  1  0  0  0  0
 29 31  1  0  0  0  0
 29 27  1  0  0  0  0
 32 35  1  0  0  0  0
 32 29  1  0  0  0  0
 33 32  1  0  0  0  0
 34 32  1  0  0  0  0
 35 36  1  0  0  0  0
 35 38  1  0  0  0  0
 37 35  1  0  0  0  0
 38 39  1  0  0  0  0
 38 27  1  0  0  0  0
 40 38  1  0  0  0  0
 41 42  1  6  0  0  0
 41 49  1  0  0  0  0
 41 51  1  0  0  0  0
 43 44  1  1  0  0  0
 43 53  1  0  0  0  0
 43 51  1  0  0  0  0
 45 46  1  6  0  0  0
 45 43  1  0  0  0  0
 47 48  1  6  0  0  0
 47 45  1  0  0  0  0
 47 56  1  0  0  0  0
 47 41  1  0  0  0  0
 49 50  1  1  0  0  0
 49 57  1  0  0  0  0
 51 52  1  1  0  0  0
 54 60  1  6  0  0  0
 54 58  1  0  0  0  0
 54 53  1  0  0  0  0
 55 45  1  0  0  0  0
 55 56  1  0  0  0  0
 55 54  1  0  0  0  0
 55 58  1  0  0  0  0
 56 49  1  0  0  0  0
 56 57  1  0  0  0  0
 57 51  1  0  0  0  0
 58 57  1  0  0  0  0
 58 53  1  0  0  0  0
M  END
$$$$
