CSD_code = YEZBEK | q = 1 | S = 0 | Stoichiometry = C33H23ClN5Ru(1+) | MND = 6
 OpenBabel04212202123D

 63 72  0  0  1  0  0  0  0  0999 V2000
    4.2119    1.5215    1.6997 Ru  0  0  0  0  0  0  0  0  0  0  0  0
    4.8520    2.7724   -0.1830 Cl  0  0  0  0  0  0  0  0  0  0  0  0
    5.4526    2.4352    2.9855 N   0  0  0  0  0  0  0  0  0  0  0  0
    6.4244    3.2931    2.6115 C   0  0  0  0  0  3  0  0  0  0  0  0
    7.3958    3.7244    3.4683 C   0  0  0  0  0  0  0  0  0  0  0  0
    7.4902    3.1581    4.7587 C   0  0  0  0  0  0  0  0  0  0  0  0
    8.5594    3.4433    5.6294 C   0  0  0  0  0  0  0  0  0  0  0  0
    8.6788    2.7798    6.8196 C   0  0  0  0  0  0  0  0  0  0  0  0
    7.7522    1.7845    7.1640 C   0  0  0  0  0  0  0  0  0  0  0  0
    6.6815    1.5117    6.3559 C   0  0  0  0  0  0  0  0  0  0  0  0
    6.4903    2.2262    5.1540 C   0  0  0  0  0  0  0  0  0  0  0  0
    5.4048    2.0037    4.2557 C   0  0  0  0  0  0  0  0  0  0  0  0
    3.6831    0.6565    3.4380 N   0  0  0  0  0  0  0  0  0  0  0  0
    2.6579   -0.2117    3.5593 C   0  0  0  0  0  3  0  0  0  0  0  0
    2.0900   -0.5229    4.7591 C   0  0  0  0  0  0  0  0  0  0  0  0
    2.4865    0.1812    5.9185 C   0  0  0  0  0  0  0  0  0  0  0  0
    1.8328    0.0226    7.1544 C   0  0  0  0  0  0  0  0  0  0  0  0
    2.1674    0.8130    8.2205 C   0  0  0  0  0  0  0  0  0  0  0  0
    3.1427    1.8102    8.0757 C   0  0  0  0  0  0  0  0  0  0  0  0
    3.8214    1.9629    6.8964 C   0  0  0  0  0  0  0  0  0  0  0  0
    3.5488    1.1195    5.7985 C   0  0  0  0  0  0  0  0  0  0  0  0
    4.2071    1.2193    4.5373 C   0  0  0  0  0  0  0  0  0  0  0  0
    5.5004    0.0769    1.1170 N   0  0  0  0  0  0  0  0  0  0  0  0
    6.7498   -0.1462    1.5181 C   0  0  0  0  0  3  0  0  0  0  0  0
    7.5565   -1.1266    0.9713 C   0  0  0  0  0  0  0  0  0  0  0  0
    7.0470   -1.9231   -0.0459 C   0  0  0  0  0  0  0  0  0  0  0  0
    5.7494   -1.7056   -0.4678 C   0  0  0  0  0  0  0  0  0  0  0  0
    4.9911   -0.6973    0.1246 C   0  0  0  0  0  0  0  0  0  0  0  0
    3.1037    0.6307    0.4602 N   0  0  0  0  0  0  0  0  0  0  0  0
    3.6228   -0.3679   -0.2731 C   0  0  1  0  0  3  0  0  0  0  0  0
    2.8894   -0.9286   -1.3155 C   0  0  0  0  0  0  0  0  0  0  0  0
    1.6305   -0.4182   -1.5971 C   0  0  0  0  0  0  0  0  0  0  0  0
    1.1383    0.6559   -0.8695 C   0  0  0  0  0  0  0  0  0  0  0  0
    1.9114    1.1768    0.1642 C   0  0  0  0  0  0  0  0  0  0  0  0
    2.5981    2.7032    1.8492 N   0  0  0  0  0  0  0  0  0  0  0  0
    1.6108    2.3460    0.9900 C   0  0  1  0  0  3  0  0  0  0  0  0
    0.4237    3.0725    0.9159 C   0  0  0  0  0  0  0  0  0  0  0  0
    0.2465    4.1764    1.7284 C   0  0  0  0  0  0  0  0  0  0  0  0
    1.2651    4.5296    2.6045 C   0  0  0  0  0  0  0  0  0  0  0  0
    2.4178    3.7670    2.6273 C   0  0  0  0  0  0  0  0  0  0  0  0
    6.3750    3.6316    1.5841 H   0  0  0  0  0  0  0  0  0  0  0  0
    8.1241    4.4517    3.1475 H   0  0  0  0  0  0  0  0  0  0  0  0
    9.2911    4.1761    5.3256 H   0  0  0  0  0  0  0  0  0  0  0  0
    9.5000    2.9952    7.4851 H   0  0  0  0  0  0  0  0  0  0  0  0
    7.8924    1.2234    8.0750 H   0  0  0  0  0  0  0  0  0  0  0  0
    5.9936    0.7251    6.6223 H   0  0  0  0  0  0  0  0  0  0  0  0
    2.3169   -0.6745    2.6411 H   0  0  0  0  0  0  0  0  0  0  0  0
    1.3045   -1.2588    4.8210 H   0  0  0  0  0  0  0  0  0  0  0  0
    1.0499   -0.7159    7.2351 H   0  0  0  0  0  0  0  0  0  0  0  0
    1.6636    0.6944    9.1669 H   0  0  0  0  0  0  0  0  0  0  0  0
    3.3544    2.4683    8.9042 H   0  0  0  0  0  0  0  0  0  0  0  0
    4.5498    2.7512    6.7942 H   0  0  0  0  0  0  0  0  0  0  0  0
    7.1258    0.4925    2.3089 H   0  0  0  0  0  0  0  0  0  0  0  0
    8.5640   -1.2580    1.3303 H   0  0  0  0  0  0  0  0  0  0  0  0
    7.6509   -2.6923   -0.5004 H   0  0  0  0  0  0  0  0  0  0  0  0
    5.3251   -2.3047   -1.2564 H   0  0  0  0  0  0  0  0  0  0  0  0
    3.2960   -1.7288   -1.9106 H   0  0  0  0  0  0  0  0  0  0  0  0
    1.0478   -0.8358   -2.4024 H   0  0  0  0  0  0  0  0  0  0  0  0
    0.1853    1.0910   -1.1197 H   0  0  0  0  0  0  0  0  0  0  0  0
   -0.3464    2.7754    0.2233 H   0  0  0  0  0  0  0  0  0  0  0  0
   -0.6627    4.7540    1.6786 H   0  0  0  0  0  0  0  0  0  0  0  0
    1.1714    5.3857    3.2522 H   0  0  0  0  0  0  0  0  0  0  0  0
    3.2377    4.0218    3.2896 H   0  0  0  0  0  0  0  0  0  0  0  0
  1 35  1  0  0  0  0
  1  3  1  0  0  0  0
  1 13  1  0  0  0  0
  2  1  1  0  0  0  0
  3 12  1  0  0  0  0
  4  3  1  0  0  0  0
  4  5  1  0  0  0  0
  5  6  2  0  0  0  0
  6 11  1  0  0  0  0
  6  7  1  0  0  0  0
  7  8  2  0  0  0  0
  8  9  1  0  0  0  0
  8 44  1  0  0  0  0
  9 45  1  0  0  0  0
 10 46  1  0  0  0  0
 10  9  2  0  0  0  0
 11 10  1  0  0  0  0
 12 22  1  0  0  0  0
 12 11  2  0  0  0  0
 13 14  1  0  0  0  0
 13 22  1  0  0  0  0
 14 15  1  0  0  0  0
 15 48  1  0  0  0  0
 15 16  2  0  0  0  0
 16 17  1  0  0  0  0
 17 49  1  0  0  0  0
 17 18  2  0  0  0  0
 18 50  1  0  0  0  0
 19 18  1  0  0  0  0
 19 51  1  0  0  0  0
 20 19  2  0  0  0  0
 21 16  1  0  0  0  0
 21 20  1  0  0  0  0
 22 21  2  0  0  0  0
 23 24  1  0  0  0  0
 23  1  1  0  0  0  0
 24 53  1  0  0  0  0
 25 54  1  0  0  0  0
 25 24  1  0  0  0  0
 26 25  2  0  0  0  0
 27 26  1  0  0  0  0
 27 28  2  0  0  0  0
 28 23  1  0  0  0  0
 29  1  1  0  0  0  0
 30 31  1  6  0  0  0
 30 28  1  0  0  0  0
 30 29  1  0  0  0  0
 32 31  2  0  0  0  0
 32 33  1  0  0  0  0
 33 34  2  0  0  0  0
 34 29  1  0  0  0  0
 35 40  1  0  0  0  0
 36 34  1  6  0  0  0
 36 35  1  0  0  0  0
 37 36  1  0  0  0  0
 37 38  2  0  0  0  0
 38 39  1  0  0  0  0
 39 40  2  0  0  0  0
 39 62  1  0  0  0  0
 40 63  1  0  0  0  0
 41  4  1  0  0  0  0
 42  5  1  0  0  0  0
 43  7  1  0  0  0  0
 47 14  1  0  0  0  0
 52 20  1  0  0  0  0
 55 26  1  0  0  0  0
 56 27  1  0  0  0  0
 57 31  1  0  0  0  0
 58 32  1  0  0  0  0
 59 33  1  0  0  0  0
 60 37  1  0  0  0  0
 61 38  1  0  0  0  0
M  END
$$$$
