CSD_code = YEZCUC | q = 0 | S = 0 | Stoichiometry = C24H36Cl2OTi | MND = 8
 OpenBabel04212202123D

 64 65  0  0  1  0  0  0  0  0999 V2000
    1.4655    4.2722   -1.1034 Ti  0  0  0  0  0  0  0  0  0  0  0  0
   -0.0020    2.7118   -1.6526 Cl  0  0  0  0  0  0  0  0  0  0  0  0
    1.4066    4.2726    0.5757 O   0  0  0  0  0  0  0  0  0  0  0  0
    2.4354    4.2730   -3.1802 C   0  0  1  0  0  0  0  0  0  0  0  0
    2.9105    3.1202   -2.4986 C   0  0  0  0  0  0  0  0  0  0  0  0
    3.6801    3.5610   -1.3825 C   0  0  0  0  0  0  0  0  0  0  0  0
    1.6421    4.2738   -4.4569 C   0  0  0  0  0  0  0  0  0  0  0  0
    2.7813    1.7085   -2.9934 C   0  0  0  0  0  0  0  0  0  0  0  0
    4.5998    2.7471   -0.5181 C   0  0  0  0  0  0  0  0  0  0  0  0
    1.7639    4.2728    1.8600 C   0  0  0  0  0  0  0  0  0  0  0  0
    1.9505    3.0469    2.5498 C   0  0  0  0  0  0  0  0  0  0  0  0
    2.6510    3.0797    3.7464 C   0  0  0  0  0  0  0  0  0  0  0  0
    3.0720    4.2732    4.3012 C   0  0  0  0  0  0  0  0  0  0  0  0
    1.2783    1.7649    2.0639 C   0  0  0  0  0  0  0  0  0  0  0  0
    1.9367    1.2189    0.7935 C   0  0  0  0  0  0  0  0  0  0  0  0
    1.3198    0.6552    3.1229 C   0  0  0  0  0  0  0  0  0  0  0  0
   -0.2029    2.0841    1.7997 C   0  0  0  0  0  0  0  0  0  0  0  0
    0.5663    4.2752   -4.2585 H   0  0  0  0  0  0  0  0  0  0  0  0
    1.8764    3.3889   -5.0473 H   0  0  0  0  0  0  0  0  0  0  0  0
    3.0051    0.9918   -2.2053 H   0  0  0  0  0  0  0  0  0  0  0  0
    3.4801    1.5410   -3.8171 H   0  0  0  0  0  0  0  0  0  0  0  0
    1.7720    1.5115   -3.3530 H   0  0  0  0  0  0  0  0  0  0  0  0
    4.4743    1.6822   -0.6968 H   0  0  0  0  0  0  0  0  0  0  0  0
    5.6357    3.0061   -0.7526 H   0  0  0  0  0  0  0  0  0  0  0  0
    4.4391    2.9515    0.5420 H   0  0  0  0  0  0  0  0  0  0  0  0
    2.8737    2.1643    4.2676 H   0  0  0  0  0  0  0  0  0  0  0  0
    3.6565    4.2733    5.2086 H   0  0  0  0  0  0  0  0  0  0  0  0
    2.9536    0.8982    1.0125 H   0  0  0  0  0  0  0  0  0  0  0  0
    1.3736    0.3619    0.4283 H   0  0  0  0  0  0  0  0  0  0  0  0
    1.9516    1.9788    0.0090 H   0  0  0  0  0  0  0  0  0  0  0  0
    2.3351    0.3089    3.3017 H   0  0  0  0  0  0  0  0  0  0  0  0
    0.7393   -0.1930    2.7668 H   0  0  0  0  0  0  0  0  0  0  0  0
    0.8859    0.9910    4.0616 H   0  0  0  0  0  0  0  0  0  0  0  0
   -0.6702    2.4637    2.7071 H   0  0  0  0  0  0  0  0  0  0  0  0
   -0.7276    1.1831    1.4898 H   0  0  0  0  0  0  0  0  0  0  0  0
   -0.3212    2.8282    1.0110 H   0  0  0  0  0  0  0  0  0  0  0  0
   -0.0031    5.8315   -1.6528 Cl  0  0  0  0  0  0  0  0  0  0  0  0
    2.9103    5.4255   -2.4976 C   0  0  0  0  0  0  0  0  0  0  0  0
    3.6800    4.9837   -1.3819 C   0  0  0  0  0  0  0  0  0  0  0  0
    2.7808    6.8373   -2.9916 C   0  0  0  0  0  0  0  0  0  0  0  0
    4.5996    5.7969   -0.5166 C   0  0  0  0  0  0  0  0  0  0  0  0
    1.9504    5.4989    2.5494 C   0  0  0  0  0  0  0  0  0  0  0  0
    2.6510    5.4665    3.7461 C   0  0  0  0  0  0  0  0  0  0  0  0
    1.2780    6.7808    2.0633 C   0  0  0  0  0  0  0  0  0  0  0  0
    1.9358    7.3264    0.7924 C   0  0  0  0  0  0  0  0  0  0  0  0
    1.3199    7.8908    3.1219 C   0  0  0  0  0  0  0  0  0  0  0  0
   -0.2032    6.4612    1.7999 C   0  0  0  0  0  0  0  0  0  0  0  0
    1.8785    5.1580   -5.0475 H   0  0  0  0  0  0  0  0  0  0  0  0
    3.0092    7.5537   -2.2044 H   0  0  0  0  0  0  0  0  0  0  0  0
    3.4761    7.0040   -3.8184 H   0  0  0  0  0  0  0  0  0  0  0  0
    1.7702    7.0358   -3.3467 H   0  0  0  0  0  0  0  0  0  0  0  0
    4.4749    6.8619   -0.6952 H   0  0  0  0  0  0  0  0  0  0  0  0
    5.6355    5.5373   -0.7501 H   0  0  0  0  0  0  0  0  0  0  0  0
    4.4378    5.5924    0.5434 H   0  0  0  0  0  0  0  0  0  0  0  0
    2.8737    6.3821    4.2670 H   0  0  0  0  0  0  0  0  0  0  0  0
    2.9527    7.6473    1.0108 H   0  0  0  0  0  0  0  0  0  0  0  0
    1.3723    8.1832    0.4272 H   0  0  0  0  0  0  0  0  0  0  0  0
    1.9504    6.5663    0.0081 H   0  0  0  0  0  0  0  0  0  0  0  0
    2.3353    8.2371    3.3002 H   0  0  0  0  0  0  0  0  0  0  0  0
    0.7393    8.7390    2.7656 H   0  0  0  0  0  0  0  0  0  0  0  0
    0.8863    7.5554    4.0609 H   0  0  0  0  0  0  0  0  0  0  0  0
   -0.6701    6.0817    2.7075 H   0  0  0  0  0  0  0  0  0  0  0  0
   -0.7283    7.3621    1.4901 H   0  0  0  0  0  0  0  0  0  0  0  0
   -0.3217    5.7170    1.0113 H   0  0  0  0  0  0  0  0  0  0  0  0
  1  3  1  0  0  0  0
  2  1  1  0  0  0  0
  3 10  1  0  0  0  0
  4  7  1  6  0  0  0
  4  5  1  0  0  0  0
  4 38  1  0  0  0  0
  4  1  1  0  0  0  0
  5  6  2  0  0  0  0
  6 39  1  0  0  0  0
  6  9  1  0  0  0  0
  7 18  1  0  0  0  0
  8  5  1  0  0  0  0
  8 20  1  0  0  0  0
  9 25  1  0  0  0  0
 10 42  2  0  0  0  0
 10 11  1  0  0  0  0
 11 12  2  0  0  0  0
 12 26  1  0  0  0  0
 12 13  1  0  0  0  0
 13 27  1  0  0  0  0
 14 11  1  0  0  0  0
 14 16  1  0  0  0  0
 15 28  1  0  0  0  0
 15 14  1  0  0  0  0
 16 31  1  0  0  0  0
 16 33  1  0  0  0  0
 17 14  1  0  0  0  0
 17 34  1  0  0  0  0
 19  7  1  0  0  0  0
 21  8  1  0  0  0  0
 22  8  1  0  0  0  0
 23  9  1  0  0  0  0
 24  9  1  0  0  0  0
 29 15  1  0  0  0  0
 30 15  1  0  0  0  0
 32 16  1  0  0  0  0
 35 17  1  0  0  0  0
 36 17  1  0  0  0  0
 37  1  1  0  0  0  0
 38 39  2  0  0  0  0
 39 41  1  0  0  0  0
 40 38  1  0  0  0  0
 40 49  1  0  0  0  0
 41 54  1  0  0  0  0
 42 43  1  0  0  0  0
 43 55  1  0  0  0  0
 43 13  2  0  0  0  0
 44 42  1  0  0  0  0
 44 46  1  0  0  0  0
 45 56  1  0  0  0  0
 45 44  1  0  0  0  0
 46 59  1  0  0  0  0
 46 61  1  0  0  0  0
 47 44  1  0  0  0  0
 47 62  1  0  0  0  0
 48  7  1  0  0  0  0
 50 40  1  0  0  0  0
 51 40  1  0  0  0  0
 52 41  1  0  0  0  0
 53 41  1  0  0  0  0
 57 45  1  0  0  0  0
 58 45  1  0  0  0  0
 60 46  1  0  0  0  0
 63 47  1  0  0  0  0
 64 47  1  0  0  0  0
M  END
$$$$
