CSD_code = YEZLIY | q = 0 | S = 0 | Stoichiometry = C20H26I2N2O2PdSi2 | MND = 4
 OpenBabel04212202123D

 55 56  0  0  0  0  0  0  0  0999 V2000
   -2.4031    7.3889    4.5946 Pd  0  0  0  0  0  0  0  0  0  0  0  0
    0.1488    7.5763    3.9883 I   0  0  0  0  0  0  0  0  0  0  0  0
   -2.5291    8.9946    8.3835 Si  0  0  0  0  0  0  0  0  0  0  0  0
   -2.2443    7.3996    7.9912 O   0  0  0  0  0  0  0  0  0  0  0  0
   -1.9592    5.2020    6.6676 N   0  0  0  0  0  2  0  0  0  0  0  0
   -2.0855    5.9335    5.7592 C   0  0  0  0  0  2  0  0  0  0  0  0
   -1.9767    5.0689    8.0224 C   0  0  0  0  0  0  0  0  0  0  0  0
   -1.8493    3.8561    8.6752 C   0  0  0  0  0  0  0  0  0  0  0  0
   -1.9006    3.8315   10.0571 C   0  0  0  0  0  0  0  0  0  0  0  0
   -2.0797    5.0105   10.7620 C   0  0  0  0  0  0  0  0  0  0  0  0
   -2.2036    6.2249   10.1073 C   0  0  0  0  0  0  0  0  0  0  0  0
   -2.1511    6.2831    8.7239 C   0  0  0  0  0  0  0  0  0  0  0  0
   -1.2250    9.6232    9.6229 C   0  0  0  0  0  0  0  0  0  0  0  0
   -2.2738    9.8120    6.6910 C   0  0  0  0  0  0  0  0  0  0  0  0
   -4.3080    9.1818    9.0343 C   0  0  0  0  0  0  0  0  0  0  0  0
   -1.7177    2.9523    8.1008 H   0  0  0  0  0  0  0  0  0  0  0  0
   -1.8046    2.8940   10.5815 H   0  0  0  0  0  0  0  0  0  0  0  0
   -2.1246    4.9887   11.8402 H   0  0  0  0  0  0  0  0  0  0  0  0
   -2.3440    7.1375   10.6629 H   0  0  0  0  0  0  0  0  0  0  0  0
   -1.1382   10.7035    9.5706 H   0  0  0  0  0  0  0  0  0  0  0  0
   -0.2424    9.2057    9.4183 H   0  0  0  0  0  0  0  0  0  0  0  0
   -1.4804    9.3746   10.6488 H   0  0  0  0  0  0  0  0  0  0  0  0
   -2.0133   10.8610    6.7934 H   0  0  0  0  0  0  0  0  0  0  0  0
   -3.1851    9.7695    6.0884 H   0  0  0  0  0  0  0  0  0  0  0  0
   -1.4495    9.3261    6.1508 H   0  0  0  0  0  0  0  0  0  0  0  0
   -4.5605   10.2261    9.1870 H   0  0  0  0  0  0  0  0  0  0  0  0
   -4.4495    8.6695    9.9825 H   0  0  0  0  0  0  0  0  0  0  0  0
   -5.0289    8.7688    8.3325 H   0  0  0  0  0  0  0  0  0  0  0  0
   -4.9548    7.2017    5.2009 I   0  0  0  0  0  0  0  0  0  0  0  0
   -2.7203    8.8444    3.4299 C   0  0  0  0  0  2  0  0  0  0  0  0
   -2.8466    9.5759    2.5215 N   0  0  0  0  0  2  0  0  0  0  0  0
   -2.8293    9.7090    1.1667 C   0  0  0  0  0  0  0  0  0  0  0  0
   -2.9565   10.9218    0.5140 C   0  0  0  0  0  0  0  0  0  0  0  0
   -2.6546    8.4948    0.4653 C   0  0  0  0  0  0  0  0  0  0  0  0
   -2.9047   10.9464   -0.8680 C   0  0  0  0  0  0  0  0  0  0  0  0
   -3.0883   11.8256    1.0883 H   0  0  0  0  0  0  0  0  0  0  0  0
   -2.5616    7.3783    1.1979 O   0  0  0  0  0  0  0  0  0  0  0  0
   -2.6017    8.5530   -0.9182 C   0  0  0  0  0  0  0  0  0  0  0  0
   -2.7254    9.7675   -1.5729 C   0  0  0  0  0  0  0  0  0  0  0  0
   -3.0005   11.8839   -1.3923 H   0  0  0  0  0  0  0  0  0  0  0  0
   -2.2773    5.7832    0.8054 Si  0  0  0  0  0  0  0  0  0  0  0  0
   -2.4612    7.6405   -1.4737 H   0  0  0  0  0  0  0  0  0  0  0  0
   -2.6800    9.7894   -2.6510 H   0  0  0  0  0  0  0  0  0  0  0  0
   -3.5817    5.1553   -0.4339 C   0  0  0  0  0  0  0  0  0  0  0  0
   -2.5326    4.9660    2.4981 C   0  0  0  0  0  0  0  0  0  0  0  0
   -0.4983    5.5958    0.1547 C   0  0  0  0  0  0  0  0  0  0  0  0
   -3.6688    4.0750   -0.3819 H   0  0  0  0  0  0  0  0  0  0  0  0
   -4.5642    5.5731   -0.2291 H   0  0  0  0  0  0  0  0  0  0  0  0
   -3.3263    5.4041   -1.4598 H   0  0  0  0  0  0  0  0  0  0  0  0
   -2.7928    3.9169    2.3958 H   0  0  0  0  0  0  0  0  0  0  0  0
   -1.6212    5.0088    3.1007 H   0  0  0  0  0  0  0  0  0  0  0  0
   -3.3570    5.4518    3.0381 H   0  0  0  0  0  0  0  0  0  0  0  0
   -0.2459    4.5515    0.0020 H   0  0  0  0  0  0  0  0  0  0  0  0
   -0.3567    6.1081   -0.7934 H   0  0  0  0  0  0  0  0  0  0  0  0
    0.2225    6.0088    0.8566 H   0  0  0  0  0  0  0  0  0  0  0  0
  1 29  1  0  0  0  0
  1  6  1  0  0  0  0
  2  1  1  0  0  0  0
  3 15  1  0  0  0  0
  3 13  1  0  0  0  0
  4  3  1  0  0  0  0
  4 12  1  0  0  0  0
  5  7  1  0  0  0  0
  6  5  1  0  0  0  0
  7  8  2  0  0  0  0
  7 12  1  0  0  0  0
  8  9  1  0  0  0  0
  9 17  1  0  0  0  0
  9 10  2  0  0  0  0
 10 18  1  0  0  0  0
 11 19  1  0  0  0  0
 11 10  1  0  0  0  0
 12 11  2  0  0  0  0
 13 22  1  0  0  0  0
 14 23  1  0  0  0  0
 14  3  1  0  0  0  0
 15 26  1  0  0  0  0
 15 27  1  0  0  0  0
 16  8  1  0  0  0  0
 20 13  1  0  0  0  0
 21 13  1  0  0  0  0
 24 14  1  0  0  0  0
 25 14  1  0  0  0  0
 28 15  1  0  0  0  0
 30  1  1  0  0  0  0
 31 30  1  0  0  0  0
 32 31  1  0  0  0  0
 33 36  1  0  0  0  0
 33 32  1  0  0  0  0
 34 32  2  0  0  0  0
 34 37  1  0  0  0  0
 35 33  2  0  0  0  0
 38 34  1  0  0  0  0
 39 38  2  0  0  0  0
 39 35  1  0  0  0  0
 40 35  1  0  0  0  0
 41 37  1  0  0  0  0
 41 45  1  0  0  0  0
 42 38  1  0  0  0  0
 43 39  1  0  0  0  0
 44 47  1  0  0  0  0
 44 48  1  0  0  0  0
 44 41  1  0  0  0  0
 45 52  1  0  0  0  0
 45 51  1  0  0  0  0
 46 41  1  0  0  0  0
 46 55  1  0  0  0  0
 49 44  1  0  0  0  0
 50 45  1  0  0  0  0
 53 46  1  0  0  0  0
 54 46  1  0  0  0  0
M  END
$$$$
