CSD_code = YIBJUP | q = 0 | S = 0 | Stoichiometry = C20H21ClIrN2OP | MND = 4
 OpenBabel04212202123D

 47 50  0  0  1  0  0  0  0  0999 V2000
    5.9004    2.7269    5.4570 Ir  0  0  2  0  0  0  0  0  0  0  0  0
    6.7557    3.5743    3.5196 P   0  0  0  0  0  4  0  0  0  0  0  0
    5.2351    1.4423    7.2419 Cl  0  0  0  0  0  0  0  0  0  0  0  0
    6.2317    5.2349    7.0599 O   0  0  0  0  0  1  0  0  0  0  0  0
    5.6988    1.0288    4.2692 N   0  0  2  0  0  0  0  0  0  0  0  0
    6.7471    0.5190    3.6064 N   0  0  0  0  0  0  0  0  0  0  0  0
    6.0883    4.2495    6.4706 C   0  0  0  0  0  2  0  0  0  0  0  0
    4.6322    0.3199    3.9245 C   0  0  2  0  0  3  0  0  0  0  0  0
    5.0148   -0.6709    3.0087 C   0  0  0  0  0  0  0  0  0  0  0  0
    4.3807   -1.4031    2.5527 H   0  0  0  0  0  0  0  0  0  0  0  0
    6.3722   -0.5157    2.8242 C   0  0  0  0  0  0  0  0  0  0  0  0
    8.0433    1.1214    3.7519 C   0  0  0  0  0  0  0  0  0  0  0  0
    8.8058    0.4104    3.4257 H   0  0  0  0  0  0  0  0  0  0  0  0
    8.1893    1.3414    4.8182 H   0  0  0  0  0  0  0  0  0  0  0  0
    8.1284    2.4263    2.9538 C   0  0  0  0  0  0  0  0  0  0  0  0
    8.0384    2.2196    1.8851 H   0  0  0  0  0  0  0  0  0  0  0  0
    9.0918    2.9042    3.1417 H   0  0  0  0  0  0  0  0  0  0  0  0
    3.2748    0.5989    4.4561 C   0  0  0  0  0  0  0  0  0  0  0  0
    3.3488    1.2373    5.3346 H   0  0  0  0  0  0  0  0  0  0  0  0
    2.7849   -0.3315    4.7350 H   0  0  0  0  0  0  0  0  0  0  0  0
    2.6645    1.0942    3.7004 H   0  0  0  0  0  0  0  0  0  0  0  0
    7.3202   -1.2819    1.9757 C   0  0  0  0  0  0  0  0  0  0  0  0
    7.8154   -0.6325    1.2535 H   0  0  0  0  0  0  0  0  0  0  0  0
    6.7774   -2.0512    1.4340 H   0  0  0  0  0  0  0  0  0  0  0  0
    8.0848   -1.7647    2.5850 H   0  0  0  0  0  0  0  0  0  0  0  0
    7.5880    5.1889    3.3942 C   0  0  0  0  0  0  0  0  0  0  0  0
    7.1630    6.2176    2.5633 C   0  0  0  0  0  0  0  0  0  0  0  0
    6.3205    6.0689    1.9032 H   0  0  0  0  0  0  0  0  0  0  0  0
    7.8178    7.4373    2.5848 C   0  0  0  0  0  0  0  0  0  0  0  0
    7.4863    8.2335    1.9346 H   0  0  0  0  0  0  0  0  0  0  0  0
    8.8870    7.6414    3.4399 C   0  0  0  0  0  0  0  0  0  0  0  0
    9.3927    8.5953    3.4540 H   0  0  0  0  0  0  0  0  0  0  0  0
    9.2976    6.6264    4.2908 C   0  0  0  0  0  0  0  0  0  0  0  0
   10.1183    6.7908    4.9731 H   0  0  0  0  0  0  0  0  0  0  0  0
    8.6458    5.4095    4.2740 C   0  0  0  0  0  0  0  0  0  0  0  0
    8.9354    4.6209    4.9569 H   0  0  0  0  0  0  0  0  0  0  0  0
    5.6560    3.5595    2.0615 C   0  0  0  0  0  0  0  0  0  0  0  0
    4.2937    3.4261    2.3033 C   0  0  0  0  0  0  0  0  0  0  0  0
    3.9547    3.3630    3.3304 H   0  0  0  0  0  0  0  0  0  0  0  0
    3.3968    3.3820    1.2512 C   0  0  0  0  0  0  0  0  0  0  0  0
    2.3393    3.2764    1.4442 H   0  0  0  0  0  0  0  0  0  0  0  0
    3.8578    3.4777   -0.0513 C   0  0  0  0  0  0  0  0  0  0  0  0
    3.1617    3.4416   -0.8761 H   0  0  0  0  0  0  0  0  0  0  0  0
    5.2134    3.6297   -0.2986 C   0  0  0  0  0  0  0  0  0  0  0  0
    5.5699    3.7188   -1.3146 H   0  0  0  0  0  0  0  0  0  0  0  0
    6.1123    3.6723    0.7514 C   0  0  0  0  0  0  0  0  0  0  0  0
    7.1668    3.8115    0.5530 H   0  0  0  0  0  0  0  0  0  0  0  0
  1  7  1  0  0  0  0
  1  3  1  1  0  0  0
  2  1  1  0  0  0  0
  5  6  1  6  0  0  0
  5  1  1  0  0  0  0
  6 12  1  0  0  0  0
  7  4  1  0  0  0  0
  8  5  1  0  0  0  0
  8 18  1  6  0  0  0
  9  8  1  0  0  0  0
 10  9  1  0  0  0  0
 11  9  2  0  0  0  0
 11  6  1  0  0  0  0
 12 14  1  0  0  0  0
 13 12  1  0  0  0  0
 15 17  1  0  0  0  0
 15  2  1  0  0  0  0
 15 12  1  0  0  0  0
 16 15  1  0  0  0  0
 18 20  1  0  0  0  0
 18 19  1  0  0  0  0
 21 18  1  0  0  0  0
 22 25  1  0  0  0  0
 22 11  1  0  0  0  0
 23 22  1  0  0  0  0
 24 22  1  0  0  0  0
 26  2  1  0  0  0  0
 26 35  1  0  0  0  0
 27 29  1  0  0  0  0
 27 26  2  0  0  0  0
 28 27  1  0  0  0  0
 29 31  2  0  0  0  0
 30 29  1  0  0  0  0
 31 32  1  0  0  0  0
 31 33  1  0  0  0  0
 33 34  1  0  0  0  0
 35 33  2  0  0  0  0
 35 36  1  0  0  0  0
 37 38  1  0  0  0  0
 37  2  1  0  0  0  0
 38 39  1  0  0  0  0
 40 41  1  0  0  0  0
 40 38  2  0  0  0  0
 42 40  1  0  0  0  0
 43 42  1  0  0  0  0
 44 42  2  0  0  0  0
 44 46  1  0  0  0  0
 45 44  1  0  0  0  0
 46 37  2  0  0  0  0
 47 46  1  0  0  0  0
M  END
$$$$
