CSD_code = YIBKIE | q = 0 | S = 0 | Stoichiometry = C24H29ClN2OPRh | MND = 4
 OpenBabel04212202123D

 59 62  0  0  1  0  0  0  0  0999 V2000
    3.9191   -1.6031    3.4581 Rh  0  0  2  0  0  0  0  0  0  0  0  0
    5.7661   -0.4662    4.0383 P   0  0  0  0  0  4  0  0  0  0  0  0
    2.3044   -3.1526    3.1297 Cl  0  0  0  0  0  0  0  0  0  0  0  0
    1.9845    0.3494    4.5927 O   0  0  0  0  0  1  0  0  0  0  0  0
    5.2397   -2.9281    2.6700 N   0  0  2  0  0  0  0  0  0  0  0  0
    6.2092   -3.4943    3.3967 N   0  0  0  0  0  0  0  0  0  0  0  0
    2.7166   -0.4158    4.1493 C   0  0  0  0  0  2  0  0  0  0  0  0
    5.3498   -3.3784    1.4287 C   0  0  2  0  0  3  0  0  0  0  0  0
    6.4289   -4.2689    1.3636 C   0  0  0  0  0  0  0  0  0  0  0  0
    6.7673   -4.8028    0.5006 H   0  0  0  0  0  0  0  0  0  0  0  0
    6.9656   -4.3154    2.6347 C   0  0  0  0  0  0  0  0  0  0  0  0
    6.3638   -3.0904    4.7682 C   0  0  0  0  0  0  0  0  0  0  0  0
    6.9939   -3.8105    5.2939 H   0  0  0  0  0  0  0  0  0  0  0  0
    5.3597   -3.0887    5.2252 H   0  0  0  0  0  0  0  0  0  0  0  0
    6.9574   -1.6778    4.8416 C   0  0  0  0  0  0  0  0  0  0  0  0
    7.9206   -1.6568    4.3254 H   0  0  0  0  0  0  0  0  0  0  0  0
    7.1075   -1.3984    5.8866 H   0  0  0  0  0  0  0  0  0  0  0  0
    4.4244   -2.9271    0.3451 C   0  0  0  0  0  0  0  0  0  0  0  0
    3.8069   -2.1130    0.7646 H   0  0  0  0  0  0  0  0  0  0  0  0
    5.2165   -2.4029   -0.8529 C   0  0  0  0  0  0  0  0  0  0  0  0
    5.7677   -3.2129   -1.3259 H   0  0  0  0  0  0  0  0  0  0  0  0
    5.9260   -1.6378   -0.5438 H   0  0  0  0  0  0  0  0  0  0  0  0
    4.5399   -1.9748   -1.5886 H   0  0  0  0  0  0  0  0  0  0  0  0
    3.4953   -4.0711   -0.0626 C   0  0  0  0  0  0  0  0  0  0  0  0
    2.8865   -4.3649    0.7887 H   0  0  0  0  0  0  0  0  0  0  0  0
    4.0701   -4.9299   -0.4035 H   0  0  0  0  0  0  0  0  0  0  0  0
    2.8370   -3.7489   -0.8656 H   0  0  0  0  0  0  0  0  0  0  0  0
    8.1052   -5.1217    3.1717 C   0  0  0  0  0  0  0  0  0  0  0  0
    8.6077   -4.5480    3.9599 H   0  0  0  0  0  0  0  0  0  0  0  0
    9.1275   -5.4201    2.0761 C   0  0  0  0  0  0  0  0  0  0  0  0
    9.4665   -4.4998    1.6059 H   0  0  0  0  0  0  0  0  0  0  0  0
    8.6933   -6.0607    1.3136 H   0  0  0  0  0  0  0  0  0  0  0  0
    9.9887   -5.9308    2.5004 H   0  0  0  0  0  0  0  0  0  0  0  0
    7.5700   -6.4260    3.7748 C   0  0  0  0  0  0  0  0  0  0  0  0
    7.0786   -7.0164    3.0053 H   0  0  0  0  0  0  0  0  0  0  0  0
    6.8465   -6.2259    4.5621 H   0  0  0  0  0  0  0  0  0  0  0  0
    8.3861   -7.0105    4.1929 H   0  0  0  0  0  0  0  0  0  0  0  0
    6.7866    0.2469    2.7076 C   0  0  0  0  0  0  0  0  0  0  0  0
    6.1662    0.4076    1.4740 C   0  0  0  0  0  0  0  0  0  0  0  0
    5.1276    0.1028    1.3741 H   0  0  0  0  0  0  0  0  0  0  0  0
    6.8618    0.9469    0.4067 C   0  0  0  0  0  0  0  0  0  0  0  0
    6.3763    1.0736   -0.5498 H   0  0  0  0  0  0  0  0  0  0  0  0
    8.1842    1.3259    0.5697 C   0  0  0  0  0  0  0  0  0  0  0  0
    8.7325    1.7447   -0.2612 H   0  0  0  0  0  0  0  0  0  0  0  0
    8.8057    1.1750    1.8000 C   0  0  0  0  0  0  0  0  0  0  0  0
    9.8344    1.4806    1.9254 H   0  0  0  0  0  0  0  0  0  0  0  0
    8.1115    0.6403    2.8699 C   0  0  0  0  0  0  0  0  0  0  0  0
    8.5922    0.5416    3.8340 H   0  0  0  0  0  0  0  0  0  0  0  0
    5.7320    0.8556    5.2893 C   0  0  0  0  0  0  0  0  0  0  0  0
    6.1410    2.1624    5.0588 C   0  0  0  0  0  0  0  0  0  0  0  0
    6.5594    2.4390    4.1016 H   0  0  0  0  0  0  0  0  0  0  0  0
    6.0065    3.1125    6.0572 C   0  0  0  0  0  0  0  0  0  0  0  0
    6.3274    4.1278    5.8753 H   0  0  0  0  0  0  0  0  0  0  0  0
    5.4570    2.7688    7.2803 C   0  0  0  0  0  0  0  0  0  0  0  0
    5.3522    3.5148    8.0539 H   0  0  0  0  0  0  0  0  0  0  0  0
    5.0258    1.4703    7.5070 C   0  0  0  0  0  0  0  0  0  0  0  0
    4.5799    1.2053    8.4543 H   0  0  0  0  0  0  0  0  0  0  0  0
    5.1553    0.5211    6.5132 C   0  0  0  0  0  0  0  0  0  0  0  0
    4.7934   -0.4895    6.6656 H   0  0  0  0  0  0  0  0  0  0  0  0
  1  3  1  1  0  0  0
  1  2  1  0  0  0  0
  1  7  1  0  0  0  0
  2 15  1  0  0  0  0
  2 49  1  0  0  0  0
  5  6  1  6  0  0  0
  5  1  1  0  0  0  0
  6 12  1  0  0  0  0
  7  4  1  0  0  0  0
  8 18  1  6  0  0  0
  8  5  1  0  0  0  0
  9  8  1  0  0  0  0
  9 11  2  0  0  0  0
 10  9  1  0  0  0  0
 11 28  1  0  0  0  0
 11  6  1  0  0  0  0
 12 15  1  0  0  0  0
 12 14  1  0  0  0  0
 12 13  1  0  0  0  0
 15 17  1  0  0  0  0
 16 15  1  0  0  0  0
 18 19  1  0  0  0  0
 20 22  1  0  0  0  0
 20 18  1  0  0  0  0
 21 20  1  0  0  0  0
 23 20  1  0  0  0  0
 24 18  1  0  0  0  0
 24 25  1  0  0  0  0
 26 24  1  0  0  0  0
 27 24  1  0  0  0  0
 28 34  1  0  0  0  0
 28 29  1  0  0  0  0
 30 33  1  0  0  0  0
 30 28  1  0  0  0  0
 31 30  1  0  0  0  0
 32 30  1  0  0  0  0
 34 37  1  0  0  0  0
 34 36  1  0  0  0  0
 35 34  1  0  0  0  0
 38 47  1  0  0  0  0
 38  2  1  0  0  0  0
 39 38  2  0  0  0  0
 40 39  1  0  0  0  0
 41 43  2  0  0  0  0
 41 39  1  0  0  0  0
 42 41  1  0  0  0  0
 43 45  1  0  0  0  0
 44 43  1  0  0  0  0
 45 46  1  0  0  0  0
 45 47  2  0  0  0  0
 47 48  1  0  0  0  0
 49 58  1  0  0  0  0
 50 49  2  0  0  0  0
 50 52  1  0  0  0  0
 51 50  1  0  0  0  0
 52 54  2  0  0  0  0
 53 52  1  0  0  0  0
 54 56  1  0  0  0  0
 54 55  1  0  0  0  0
 56 57  1  0  0  0  0
 58 59  1  0  0  0  0
 58 56  2  0  0  0  0
M  END
$$$$
