CSD_code = YICTAG | q = 0 | S = 0 | Stoichiometry = C20H33Br3N3O3Rh | MND = 6
 OpenBabel04212202123D

 63 67  0  0  1  0  0  0  0  0999 V2000
    6.5863    5.1879    4.0543 Rh  0  0  0  0  0  0  0  0  0  0  0  0
    7.5116    6.0662    6.0989 Br  0  0  0  0  0  0  0  0  0  0  0  0
    8.8015    4.8452    3.1708 Br  0  0  0  0  0  0  0  0  0  0  0  0
    6.5216    7.4013    3.1031 Br  0  0  0  0  0  0  0  0  0  0  0  0
    4.2349    3.0886    3.8901 C   0  0  2  0  0  0  0  0  0  0  0  0
    3.1015    2.0763    3.8108 C   0  0  0  0  0  0  0  0  0  0  0  0
    4.5524    3.6948    2.5466 C   0  0  2  0  0  3  0  0  0  0  0  0
    5.5486    4.4547    2.3269 N   0  0  1  0  0  0  0  0  0  0  0  0
    5.5322    4.8529    0.9242 C   0  0  2  0  0  0  0  0  0  0  0  0
    4.2347    4.1856    0.4106 C   0  0  0  0  0  0  0  0  0  0  0  0
    3.7317    3.4474    1.5310 O   0  0  0  0  0  0  0  0  0  0  0  0
    6.8199    4.4261    0.1972 C   0  0  0  0  0  0  0  0  0  0  0  0
    7.0882    2.9292    0.3246 C   0  0  0  0  0  0  0  0  0  0  0  0
    6.7705    4.8694   -1.2611 C   0  0  0  0  0  0  0  0  0  0  0  0
    5.5145    2.4736    4.3980 C   0  0  2  0  0  3  0  0  0  0  0  0
    6.5581    3.1408    4.6881 N   0  0  1  0  0  0  0  0  0  0  0  0
    7.5933    2.2176    5.1375 C   0  0  2  0  0  0  0  0  0  0  0  0
    6.9040    0.8440    4.9620 C   0  0  0  0  0  0  0  0  0  0  0  0
    5.5738    1.1522    4.5274 O   0  0  0  0  0  0  0  0  0  0  0  0
    8.0577    2.5388    6.5694 C   0  0  0  0  0  0  0  0  0  0  0  0
    9.1434    1.5586    7.0006 C   0  0  0  0  0  0  0  0  0  0  0  0
    6.8977    2.5711    7.5606 C   0  0  0  0  0  0  0  0  0  0  0  0
    3.9133    4.2344    4.8158 C   0  0  2  0  0  3  0  0  0  0  0  0
    4.6380    5.2724    4.9406 N   0  0  1  0  0  0  0  0  0  0  0  0
    4.0270    6.1531    5.9291 C   0  0  2  0  0  0  0  0  0  0  0  0
    2.8020    5.3280    6.3887 C   0  0  0  0  0  0  0  0  0  0  0  0
    2.8251    4.1494    5.5740 O   0  0  0  0  0  0  0  0  0  0  0  0
    3.7015    7.5351    5.3354 C   0  0  0  0  0  0  0  0  0  0  0  0
    2.8199    7.4387    4.0935 C   0  0  0  0  0  0  0  0  0  0  0  0
    3.0815    8.4311    6.4024 C   0  0  0  0  0  0  0  0  0  0  0  0
    3.3801    1.2597    3.1501 H   0  0  0  0  0  0  0  0  0  0  0  0
    2.8921    1.6765    4.7994 H   0  0  0  0  0  0  0  0  0  0  0  0
    2.2049    2.5541    3.4248 H   0  0  0  0  0  0  0  0  0  0  0  0
    5.4669    5.9459    0.8802 H   0  0  0  0  0  0  0  0  0  0  0  0
    4.4075    3.4836   -0.4065 H   0  0  0  0  0  0  0  0  0  0  0  0
    3.4745    4.9102    0.1099 H   0  0  0  0  0  0  0  0  0  0  0  0
    7.6426    4.9565    0.6839 H   0  0  0  0  0  0  0  0  0  0  0  0
    8.0286    2.6882   -0.1626 H   0  0  0  0  0  0  0  0  0  0  0  0
    7.1766    2.6471    1.3724 H   0  0  0  0  0  0  0  0  0  0  0  0
    6.3018    2.3325   -0.1356 H   0  0  0  0  0  0  0  0  0  0  0  0
    7.7231    4.6547   -1.7372 H   0  0  0  0  0  0  0  0  0  0  0  0
    5.9892    4.3504   -1.8129 H   0  0  0  0  0  0  0  0  0  0  0  0
    6.5897    5.9392   -1.3277 H   0  0  0  0  0  0  0  0  0  0  0  0
    8.4572    2.3220    4.4716 H   0  0  0  0  0  0  0  0  0  0  0  0
    6.8332    0.2772    5.8916 H   0  0  0  0  0  0  0  0  0  0  0  0
    7.3785    0.2255    4.1968 H   0  0  0  0  0  0  0  0  0  0  0  0
    8.4986    3.5386    6.5370 H   0  0  0  0  0  0  0  0  0  0  0  0
    9.5372    1.8566    7.9682 H   0  0  0  0  0  0  0  0  0  0  0  0
    8.7585    0.5444    7.0873 H   0  0  0  0  0  0  0  0  0  0  0  0
    9.9616    1.5586    6.2850 H   0  0  0  0  0  0  0  0  0  0  0  0
    7.2704    2.8426    8.5441 H   0  0  0  0  0  0  0  0  0  0  0  0
    6.1668    3.3217    7.2647 H   0  0  0  0  0  0  0  0  0  0  0  0
    6.3994    1.6057    7.6379 H   0  0  0  0  0  0  0  0  0  0  0  0
    4.7430    6.2980    6.7460 H   0  0  0  0  0  0  0  0  0  0  0  0
    1.8527    5.8382    6.2189 H   0  0  0  0  0  0  0  0  0  0  0  0
    2.8651    5.0209    7.4351 H   0  0  0  0  0  0  0  0  0  0  0  0
    4.6552    7.9774    5.0358 H   0  0  0  0  0  0  0  0  0  0  0  0
    2.6601    8.4328    3.6862 H   0  0  0  0  0  0  0  0  0  0  0  0
    3.3096    6.8414    3.3262 H   0  0  0  0  0  0  0  0  0  0  0  0
    1.8482    6.9993    4.3151 H   0  0  0  0  0  0  0  0  0  0  0  0
    2.9488    9.4322    6.0022 H   0  0  0  0  0  0  0  0  0  0  0  0
    2.1100    8.0606    6.7236 H   0  0  0  0  0  0  0  0  0  0  0  0
    3.7327    8.4945    7.2704 H   0  0  0  0  0  0  0  0  0  0  0  0
  1 16  1  0  0  0  0
  1 24  1  0  0  0  0
  1  2  1  0  0  0  0
  3  1  1  0  0  0  0
  4  1  1  0  0  0  0
  5 15  1  0  0  0  0
  5 23  1  0  0  0  0
  6  5  1  0  0  0  0
  6 32  1  0  0  0  0
  7 11  1  1  0  0  0
  7  5  1  0  0  0  0
  8  7  1  0  0  0  0
  8  1  1  0  0  0  0
  9  8  1  0  0  0  0
 10  9  1  0  0  0  0
 10 11  1  0  0  0  0
 12 13  1  0  0  0  0
 12 37  1  0  0  0  0
 12  9  1  0  0  0  0
 13 39  1  0  0  0  0
 14 12  1  0  0  0  0
 15 19  1  0  0  0  0
 15 16  1  0  0  0  0
 16 17  1  0  0  0  0
 17 20  1  0  0  0  0
 18 17  1  0  0  0  0
 18 45  1  0  0  0  0
 19 18  1  0  0  0  0
 20 21  1  0  0  0  0
 20 22  1  0  0  0  0
 21 49  1  0  0  0  0
 21 48  1  0  0  0  0
 22 53  1  0  0  0  0
 22 51  1  0  0  0  0
 23 24  1  0  0  0  0
 23 27  1  0  0  0  0
 24 25  1  0  0  0  0
 25 26  1  0  0  0  0
 25 54  1  0  0  0  0
 26 56  1  0  0  0  0
 27 26  1  0  0  0  0
 28 25  1  0  0  0  0
 28 30  1  0  0  0  0
 29 60  1  0  0  0  0
 29 28  1  0  0  0  0
 30 62  1  0  0  0  0
 30 63  1  0  0  0  0
 31  6  1  0  0  0  0
 33  6  1  0  0  0  0
 34  9  1  0  0  0  0
 35 10  1  0  0  0  0
 36 10  1  0  0  0  0
 38 13  1  0  0  0  0
 40 13  1  0  0  0  0
 41 14  1  0  0  0  0
 42 14  1  0  0  0  0
 43 14  1  0  0  0  0
 44 17  1  0  0  0  0
 46 18  1  0  0  0  0
 47 20  1  0  0  0  0
 50 21  1  0  0  0  0
 52 22  1  0  0  0  0
 55 26  1  0  0  0  0
 57 28  1  0  0  0  0
 58 29  1  0  0  0  0
 59 29  1  0  0  0  0
 61 30  1  0  0  0  0
M  END
$$$$
