CSD_code = YIDBOF | q = 0 | S = 0 | Stoichiometry = C28H37ClN2Pt | MND = 4
 OpenBabel04212202123D

 69 72  0  0  0  0  0  0  0  0999 V2000
    7.0549    4.8117   11.2924 Pt  0  0  2  0  0  0  0  0  0  0  0  0
    7.1856    2.6252   10.8077 Cl  0  0  0  0  0  0  0  0  0  0  0  0
    7.5757    5.4230    9.3213 N   0  0  0  0  0  0  0  0  0  0  0  0
    7.0444    6.7999   11.5179 N   0  0  0  0  0  0  0  0  0  0  0  0
    6.2238    4.3175   13.1194 C   0  0  0  0  0  0  0  0  0  0  0  0
    6.4817    3.2970   13.4242 H   0  0  0  0  0  0  0  0  0  0  0  0
    6.6100    4.9819   13.9035 H   0  0  0  0  0  0  0  0  0  0  0  0
    4.6777    4.4298   13.0847 C   0  0  0  0  0  0  0  0  0  0  0  0
    4.0696    3.0830   12.6603 C   0  0  0  0  0  0  0  0  0  0  0  0
    4.1364    2.3757   13.4837 H   0  0  0  0  0  0  0  0  0  0  0  0
    3.0216    3.2001   12.3898 H   0  0  0  0  0  0  0  0  0  0  0  0
    4.6114    2.6559   11.8218 H   0  0  0  0  0  0  0  0  0  0  0  0
    4.1591    4.7468   14.4945 C   0  0  0  0  0  0  0  0  0  0  0  0
    4.4147    3.9287   15.1642 H   0  0  0  0  0  0  0  0  0  0  0  0
    4.6063    5.6524   14.8977 H   0  0  0  0  0  0  0  0  0  0  0  0
    3.0765    4.8606   14.4883 H   0  0  0  0  0  0  0  0  0  0  0  0
    4.2912    5.5119   12.0824 C   0  0  0  0  0  0  0  0  0  0  0  0
    3.9463    6.8039   12.4584 C   0  0  0  0  0  0  0  0  0  0  0  0
    3.8807    7.0732   13.5002 H   0  0  0  0  0  0  0  0  0  0  0  0
    3.6827    7.7842   11.5126 C   0  0  0  0  0  0  0  0  0  0  0  0
    3.4229    8.7810   11.8407 H   0  0  0  0  0  0  0  0  0  0  0  0
    3.7514    7.4942   10.1647 C   0  0  0  0  0  0  0  0  0  0  0  0
    3.5498    8.2594    9.4281 H   0  0  0  0  0  0  0  0  0  0  0  0
    4.0672    6.2038    9.7678 C   0  0  0  0  0  0  0  0  0  0  0  0
    4.0974    5.9547    8.7156 H   0  0  0  0  0  0  0  0  0  0  0  0
    4.3380    5.2269   10.7105 C   0  0  0  0  0  0  0  0  0  0  0  0
    4.5292    4.2168   10.3705 H   0  0  0  0  0  0  0  0  0  0  0  0
    7.7353    4.6411    8.2619 C   0  0  0  0  0  0  0  0  0  0  0  0
    8.0306    3.6203    8.4676 H   0  0  0  0  0  0  0  0  0  0  0  0
    7.5323    5.0814    6.9698 C   0  0  0  0  0  0  0  0  0  0  0  0
    7.6801    4.3906    6.1559 H   0  0  0  0  0  0  0  0  0  0  0  0
    7.1278    6.3981    6.7376 C   0  0  0  0  0  0  0  0  0  0  0  0
    6.9721    7.2057    7.8551 C   0  0  0  0  0  0  0  0  0  0  0  0
    6.6392    8.2229    7.7499 H   0  0  0  0  0  0  0  0  0  0  0  0
    7.2073    6.7006    9.1329 C   0  0  0  0  0  0  0  0  0  0  0  0
    7.0698    7.4926   10.3568 C   0  0  0  0  0  0  0  0  0  0  0  0
    7.0026    8.8834   10.3353 C   0  0  0  0  0  0  0  0  0  0  0  0
    7.0454    9.3838    9.3843 H   0  0  0  0  0  0  0  0  0  0  0  0
    6.8960    9.6168   11.5059 C   0  0  0  0  0  0  0  0  0  0  0  0
    6.8945    8.8758   12.6907 C   0  0  0  0  0  0  0  0  0  0  0  0
    6.8308    9.3611   13.6509 H   0  0  0  0  0  0  0  0  0  0  0  0
    6.9723    7.5031   12.6492 C   0  0  0  0  0  0  0  0  0  0  0  0
    6.9750    6.9364   13.5681 H   0  0  0  0  0  0  0  0  0  0  0  0
    6.8683    6.8778    5.3220 C   0  0  0  0  0  0  0  0  0  0  0  0
    5.7418    6.0285    4.7164 C   0  0  0  0  0  0  0  0  0  0  0  0
    5.5290    6.3610    3.7031 H   0  0  0  0  0  0  0  0  0  0  0  0
    6.0131    4.9772    4.6799 H   0  0  0  0  0  0  0  0  0  0  0  0
    4.8341    6.1265    5.3085 H   0  0  0  0  0  0  0  0  0  0  0  0
    8.1516    6.7080    4.4969 C   0  0  0  0  0  0  0  0  0  0  0  0
    7.9880    7.0584    3.4804 H   0  0  0  0  0  0  0  0  0  0  0  0
    8.9625    7.2869    4.9345 H   0  0  0  0  0  0  0  0  0  0  0  0
    8.4608    5.6676    4.4512 H   0  0  0  0  0  0  0  0  0  0  0  0
    6.4494    8.3492    5.2662 C   0  0  0  0  0  0  0  0  0  0  0  0
    6.2807    8.6368    4.2309 H   0  0  0  0  0  0  0  0  0  0  0  0
    5.5240    8.5156    5.8131 H   0  0  0  0  0  0  0  0  0  0  0  0
    7.2269    8.9944    5.6697 H   0  0  0  0  0  0  0  0  0  0  0  0
    6.7863   11.1279   11.5434 C   0  0  0  0  0  0  0  0  0  0  0  0
    6.8328   11.7543   10.1476 C   0  0  0  0  0  0  0  0  0  0  0  0
    6.7458   12.8351   10.2337 H   0  0  0  0  0  0  0  0  0  0  0  0
    7.7743   11.5332    9.6496 H   0  0  0  0  0  0  0  0  0  0  0  0
    6.0086   11.4011    9.5321 H   0  0  0  0  0  0  0  0  0  0  0  0
    7.9496   11.6944   12.3693 C   0  0  0  0  0  0  0  0  0  0  0  0
    7.8978   12.7805   12.3871 H   0  0  0  0  0  0  0  0  0  0  0  0
    7.9207   11.3367   13.3945 H   0  0  0  0  0  0  0  0  0  0  0  0
    8.9018   11.4019   11.9315 H   0  0  0  0  0  0  0  0  0  0  0  0
    5.4493   11.5016   12.1989 C   0  0  0  0  0  0  0  0  0  0  0  0
    5.3459   12.5833   12.2438 H   0  0  0  0  0  0  0  0  0  0  0  0
    4.6217   11.0998   11.6183 H   0  0  0  0  0  0  0  0  0  0  0  0
    5.3805   11.1094   13.2097 H   0  0  0  0  0  0  0  0  0  0  0  0
  1  2  1  1  0  0  0
  1  4  1  0  0  0  0
  1  5  1  0  0  0  0
  3  1  1  0  0  0  0
  4 42  1  0  0  0  0
  5  6  1  0  0  0  0
  5  7  1  0  0  0  0
  8  5  1  0  0  0  0
  8 13  1  0  0  0  0
  9  8  1  0  0  0  0
  9 10  1  0  0  0  0
 11  9  1  0  0  0  0
 12  9  1  0  0  0  0
 13 15  1  0  0  0  0
 13 14  1  0  0  0  0
 16 13  1  0  0  0  0
 17 18  1  0  0  0  0
 17  8  1  0  0  0  0
 18 19  1  0  0  0  0
 20 21  1  0  0  0  0
 20 18  2  0  0  0  0
 22 20  1  0  0  0  0
 23 22  1  0  0  0  0
 24 22  2  0  0  0  0
 24 26  1  0  0  0  0
 25 24  1  0  0  0  0
 26 17  2  0  0  0  0
 27 26  1  0  0  0  0
 28 29  1  0  0  0  0
 28  3  1  0  0  0  0
 30 28  2  0  0  0  0
 31 30  1  0  0  0  0
 32 30  1  0  0  0  0
 32 33  2  0  0  0  0
 33 35  1  0  0  0  0
 34 33  1  0  0  0  0
 35  3  1  0  0  0  0
 35 36  2  0  0  0  0
 36  4  1  0  0  0  0
 37 36  1  0  0  0  0
 37 39  2  0  0  0  0
 38 37  1  0  0  0  0
 39 57  1  0  0  0  0
 39 40  1  0  0  0  0
 40 41  1  0  0  0  0
 42 40  2  0  0  0  0
 42 43  1  0  0  0  0
 44 32  1  0  0  0  0
 45 48  1  0  0  0  0
 45 44  1  0  0  0  0
 46 45  1  0  0  0  0
 47 45  1  0  0  0  0
 49 51  1  0  0  0  0
 49 44  1  0  0  0  0
 50 49  1  0  0  0  0
 52 49  1  0  0  0  0
 53 44  1  0  0  0  0
 53 56  1  0  0  0  0
 53 55  1  0  0  0  0
 54 53  1  0  0  0  0
 57 66  1  0  0  0  0
 57 62  1  0  0  0  0
 58 59  1  0  0  0  0
 58 57  1  0  0  0  0
 60 58  1  0  0  0  0
 61 58  1  0  0  0  0
 62 63  1  0  0  0  0
 62 64  1  0  0  0  0
 65 62  1  0  0  0  0
 66 67  1  0  0  0  0
 66 69  1  0  0  0  0
 68 66  1  0  0  0  0
M  END
$$$$
