CSD_code = YIDDOF | q = 0 | S = 0 | Stoichiometry = C14H24Cl2N2O8Pd | MND = 4
 OpenBabel04212202123D

 51 51  0  0  0  0  0  0  0  0999 V2000
    2.6420    0.8103   13.4165 C   0  0  0  0  0  0  0  0  0  0  0  0
    3.0792    1.3051   12.5466 H   0  0  0  0  0  0  0  0  0  0  0  0
    3.3795    0.8452   14.2283 H   0  0  0  0  0  0  0  0  0  0  0  0
    2.3473   -0.6531   13.0707 C   0  0  0  0  0  0  0  0  0  0  0  0
    1.9653   -1.1633   13.9577 H   0  0  0  0  0  0  0  0  0  0  0  0
    3.2819   -1.1468   12.7763 H   0  0  0  0  0  0  0  0  0  0  0  0
    1.6166    3.0005   13.6161 C   0  0  0  0  0  0  0  0  0  0  0  0
    2.5994    3.3283   13.9776 H   0  0  0  0  0  0  0  0  0  0  0  0
    0.8437    3.5370   14.1705 H   0  0  0  0  0  0  0  0  0  0  0  0
    1.4491    3.3973   12.1572 C   0  0  0  0  0  0  0  0  0  0  0  0
    1.0032    5.1521   10.6950 C   0  0  0  0  0  0  0  0  0  0  0  0
    0.8186    6.2194   10.7760 H   0  0  0  0  0  0  0  0  0  0  0  0
    0.1181    4.6333   10.3222 H   0  0  0  0  0  0  0  0  0  0  0  0
    1.8429    4.9541   10.0262 H   0  0  0  0  0  0  0  0  0  0  0  0
    0.9365    1.2519   15.1292 C   0  0  0  0  0  0  0  0  0  0  0  0
    0.7365    0.1799   15.2237 H   0  0  0  0  0  0  0  0  0  0  0  0
   -0.0321    1.7531   15.2612 H   0  0  0  0  0  0  0  0  0  0  0  0
    1.8628    1.6727   16.2576 C   0  0  0  0  0  0  0  0  0  0  0  0
    2.0654    1.7474   18.5912 C   0  0  0  0  0  0  0  0  0  0  0  0
    1.4757    1.4288   19.4460 H   0  0  0  0  0  0  0  0  0  0  0  0
    2.2281    2.8264   18.6178 H   0  0  0  0  0  0  0  0  0  0  0  0
    3.0346    1.2448   18.5826 H   0  0  0  0  0  0  0  0  0  0  0  0
    1.8391   -0.4891   10.6726 C   0  0  0  0  0  0  0  0  0  0  0  0
    2.2508    0.5246   10.6418 H   0  0  0  0  0  0  0  0  0  0  0  0
    0.9882   -0.4914    9.9775 H   0  0  0  0  0  0  0  0  0  0  0  0
    2.8922   -1.4563   10.1588 C   0  0  0  0  0  0  0  0  0  0  0  0
    4.2398   -1.9498    8.3032 C   0  0  0  0  0  0  0  0  0  0  0  0
    4.5526   -1.4279    7.4031 H   0  0  0  0  0  0  0  0  0  0  0  0
    3.8001   -2.9161    8.0497 H   0  0  0  0  0  0  0  0  0  0  0  0
    5.0874   -2.1114    8.9720 H   0  0  0  0  0  0  0  0  0  0  0  0
    0.6972   -2.1082   12.0463 C   0  0  0  0  0  0  0  0  0  0  0  0
    1.4281   -2.9081   12.2200 H   0  0  0  0  0  0  0  0  0  0  0  0
    0.1941   -2.2957   11.0954 H   0  0  0  0  0  0  0  0  0  0  0  0
   -0.3812   -2.1580   13.1178 C   0  0  0  0  0  0  0  0  0  0  0  0
   -2.3002   -3.2535   13.8469 C   0  0  0  0  0  0  0  0  0  0  0  0
   -2.8963   -4.1014   13.5222 H   0  0  0  0  0  0  0  0  0  0  0  0
   -2.8706   -2.3262   13.7679 H   0  0  0  0  0  0  0  0  0  0  0  0
   -1.9707   -3.3849   14.8794 H   0  0  0  0  0  0  0  0  0  0  0  0
    1.4280    1.5576   13.7866 N   0  0  0  0  0  4  0  0  0  0  0  0
    1.3332   -0.7887   12.0113 N   0  0  0  0  0  4  0  0  0  0  0  0
    1.3005    4.7003   12.0145 O   0  0  0  0  0  0  0  0  0  0  0  0
    1.4718    2.6105   11.2367 O   0  0  0  0  0  0  0  0  0  0  0  0
    1.3133    1.3911   17.4370 O   0  0  0  0  0  0  0  0  0  0  0  0
    2.9471    2.1846   16.1272 O   0  0  0  0  0  0  0  0  0  0  0  0
    3.2682   -1.1184    8.9273 O   0  0  0  0  0  0  0  0  0  0  0  0
    3.3428   -2.3961   10.7658 O   0  0  0  0  0  0  0  0  0  0  0  0
   -1.1776   -3.1991   12.9692 O   0  0  0  0  0  0  0  0  0  0  0  0
   -0.4814   -1.3479   14.0126 O   0  0  0  0  0  0  0  0  0  0  0  0
   -1.4532    2.4588   13.0131 Cl  0  0  0  0  0  0  0  0  0  0  0  0
   -1.5316   -0.1040   10.9957 Cl  0  0  0  0  0  0  0  0  0  0  0  0
   -0.0632    0.7835   12.4492 Pd  0  0  0  0  0  0  0  0  0  0  0  0
  1 39  1  0  0  0  0
  1  3  1  0  0  0  0
  2  1  1  0  0  0  0
  4  1  1  0  0  0  0
  4  5  1  0  0  0  0
  6  4  1  0  0  0  0
  7 39  1  0  0  0  0
  7  8  1  0  0  0  0
  7  9  1  0  0  0  0
 10  7  1  0  0  0  0
 11 12  1  0  0  0  0
 11 41  1  0  0  0  0
 13 11  1  0  0  0  0
 14 11  1  0  0  0  0
 15 16  1  0  0  0  0
 15 17  1  0  0  0  0
 15 18  1  0  0  0  0
 18 43  1  0  0  0  0
 19 21  1  0  0  0  0
 19 20  1  0  0  0  0
 22 19  1  0  0  0  0
 23 40  1  0  0  0  0
 24 23  1  0  0  0  0
 25 23  1  0  0  0  0
 26 23  1  0  0  0  0
 26 46  2  0  0  0  0
 27 45  1  0  0  0  0
 27 30  1  0  0  0  0
 28 27  1  0  0  0  0
 29 27  1  0  0  0  0
 31 32  1  0  0  0  0
 31 34  1  0  0  0  0
 33 31  1  0  0  0  0
 34 48  2  0  0  0  0
 35 38  1  0  0  0  0
 36 35  1  0  0  0  0
 37 35  1  0  0  0  0
 39 15  1  0  0  0  0
 40 31  1  0  0  0  0
 40 51  1  0  0  0  0
 40  4  1  0  0  0  0
 41 10  1  0  0  0  0
 42 10  2  0  0  0  0
 43 19  1  0  0  0  0
 44 18  2  0  0  0  0
 45 26  1  0  0  0  0
 47 34  1  0  0  0  0
 47 35  1  0  0  0  0
 50 51  1  0  0  0  0
 51 49  1  0  0  0  0
 51 39  1  0  0  0  0
M  END
$$$$
