CSD_code = YIDDUL | q = 0 | S = 0 | Stoichiometry = C18H32Cl2N2O8Pd | MND = 4
 OpenBabel04212202123D

 63 63  0  0  0  0  0  0  0  0999 V2000
   -6.6461   -4.0949  -18.1260 C   0  0  0  0  0  0  0  0  0  0  0  0
   -6.0273   -4.6606  -17.4253 H   0  0  0  0  0  0  0  0  0  0  0  0
   -7.6956   -4.3418  -17.9255 H   0  0  0  0  0  0  0  0  0  0  0  0
   -6.2935   -4.5067  -19.5572 C   0  0  0  0  0  0  0  0  0  0  0  0
   -6.4642   -5.5831  -19.6786 H   0  0  0  0  0  0  0  0  0  0  0  0
   -6.9489   -3.9826  -20.2546 H   0  0  0  0  0  0  0  0  0  0  0  0
   -7.4178   -1.7795  -18.4364 C   0  0  0  0  0  0  0  0  0  0  0  0
   -7.5176   -1.9519  -19.5123 H   0  0  0  0  0  0  0  0  0  0  0  0
   -7.0780   -0.7426  -18.3192 H   0  0  0  0  0  0  0  0  0  0  0  0
   -8.7938   -1.9114  -17.8021 C   0  0  0  0  0  0  0  0  0  0  0  0
  -10.9553   -0.9621  -17.8028 C   0  0  0  0  0  0  0  0  0  0  0  0
  -11.5409   -0.4944  -18.5960 H   0  0  0  0  0  0  0  0  0  0  0  0
  -11.2996   -1.9882  -17.6375 H   0  0  0  0  0  0  0  0  0  0  0  0
  -11.0377   -0.1613  -16.5120 C   0  0  0  0  0  0  0  0  0  0  0  0
  -12.0731   -0.0950  -16.1911 H   0  0  0  0  0  0  0  0  0  0  0  0
  -10.6480    0.8416  -16.6669 H   0  0  0  0  0  0  0  0  0  0  0  0
  -10.4587   -0.6494  -15.7318 H   0  0  0  0  0  0  0  0  0  0  0  0
   -6.2163   -2.4030  -16.4462 C   0  0  0  0  0  0  0  0  0  0  0  0
   -6.3407   -1.3368  -16.2474 H   0  0  0  0  0  0  0  0  0  0  0  0
   -6.9457   -2.9594  -15.8435 H   0  0  0  0  0  0  0  0  0  0  0  0
   -4.8068   -2.7680  -15.9949 C   0  0  0  0  0  0  0  0  0  0  0  0
   -3.1592   -2.3647  -14.3760 C   0  0  0  0  0  0  0  0  0  0  0  0
   -2.4843   -2.2813  -15.2337 H   0  0  0  0  0  0  0  0  0  0  0  0
   -3.0024   -1.5263  -13.6958 H   0  0  0  0  0  0  0  0  0  0  0  0
   -2.9629   -3.6961  -13.6674 C   0  0  0  0  0  0  0  0  0  0  0  0
   -1.9547   -3.7450  -13.2669 H   0  0  0  0  0  0  0  0  0  0  0  0
   -3.1018   -4.5174  -14.3658 H   0  0  0  0  0  0  0  0  0  0  0  0
   -3.6738   -3.7983  -12.8507 H   0  0  0  0  0  0  0  0  0  0  0  0
   -4.7441   -3.9516  -21.3490 C   0  0  0  0  0  0  0  0  0  0  0  0
   -5.3027   -4.6965  -21.9294 H   0  0  0  0  0  0  0  0  0  0  0  0
   -3.6860   -3.9994  -21.6127 H   0  0  0  0  0  0  0  0  0  0  0  0
   -5.2317   -2.5428  -21.6801 C   0  0  0  0  0  0  0  0  0  0  0  0
   -4.6822   -0.5189  -22.7206 C   0  0  0  0  0  0  0  0  0  0  0  0
   -5.7491   -0.3972  -22.9372 H   0  0  0  0  0  0  0  0  0  0  0  0
   -4.0874   -0.2649  -23.5992 H   0  0  0  0  0  0  0  0  0  0  0  0
   -4.2761    0.3084  -21.5111 C   0  0  0  0  0  0  0  0  0  0  0  0
   -4.4764    1.3598  -21.6944 H   0  0  0  0  0  0  0  0  0  0  0  0
   -3.2164    0.1723  -21.3070 H   0  0  0  0  0  0  0  0  0  0  0  0
   -4.8408   -0.0091  -20.6271 H   0  0  0  0  0  0  0  0  0  0  0  0
   -3.9249   -5.1164  -19.3873 C   0  0  0  0  0  0  0  0  0  0  0  0
   -4.0197   -5.1974  -18.2995 H   0  0  0  0  0  0  0  0  0  0  0  0
   -2.9198   -4.7143  -19.5779 H   0  0  0  0  0  0  0  0  0  0  0  0
   -4.0118   -6.5070  -19.9939 C   0  0  0  0  0  0  0  0  0  0  0  0
   -2.9928   -8.6350  -19.9651 C   0  0  0  0  0  0  0  0  0  0  0  0
   -3.7842   -9.2301  -19.4957 H   0  0  0  0  0  0  0  0  0  0  0  0
   -3.1670   -8.6227  -21.0463 H   0  0  0  0  0  0  0  0  0  0  0  0
   -1.6198   -9.1826  -19.6258 C   0  0  0  0  0  0  0  0  0  0  0  0
   -1.5356  -10.2036  -19.9860 H   0  0  0  0  0  0  0  0  0  0  0  0
   -1.4680   -9.1698  -18.5501 H   0  0  0  0  0  0  0  0  0  0  0  0
   -0.8487   -8.5756  -20.0919 H   0  0  0  0  0  0  0  0  0  0  0  0
   -6.3946   -2.6621  -17.8793 N   0  0  0  0  0  4  0  0  0  0  0  0
   -4.9029   -4.1619  -19.9041 N   0  0  0  0  0  4  0  0  0  0  0  0
   -9.1079   -2.7302  -16.9734 O   0  0  0  0  0  0  0  0  0  0  0  0
   -9.6160   -0.9984  -18.3067 O   0  0  0  0  0  0  0  0  0  0  0  0
   -4.0732   -3.5050  -16.6164 O   0  0  0  0  0  0  0  0  0  0  0  0
   -4.5061   -2.2036  -14.8437 O   0  0  0  0  0  0  0  0  0  0  0  0
   -6.2860   -2.0931  -21.2716 O   0  0  0  0  0  0  0  0  0  0  0  0
   -4.4135   -1.9104  -22.4862 O   0  0  0  0  0  0  0  0  0  0  0  0
   -4.8035   -6.8585  -20.8340 O   0  0  0  0  0  0  0  0  0  0  0  0
   -3.0800   -7.2940  -19.4698 O   0  0  0  0  0  0  0  0  0  0  0  0
   -4.2946   -0.3441  -17.8720 Cl  0  0  0  0  0  0  0  0  0  0  0  0
   -2.4859   -2.1846  -19.8652 Cl  0  0  0  0  0  0  0  0  0  0  0  0
   -4.5437   -2.3065  -18.9529 Pd  0  0  0  0  0  0  0  0  0  0  0  0
  1  3  1  0  0  0  0
  1 51  1  0  0  0  0
  1  2  1  0  0  0  0
  4  1  1  0  0  0  0
  5  4  1  0  0  0  0
  6  4  1  0  0  0  0
  7  9  1  0  0  0  0
  7 51  1  0  0  0  0
  7 10  1  0  0  0  0
  8  7  1  0  0  0  0
 10 53  2  0  0  0  0
 11 13  1  0  0  0  0
 11 14  1  0  0  0  0
 12 11  1  0  0  0  0
 14 15  1  0  0  0  0
 14 17  1  0  0  0  0
 16 14  1  0  0  0  0
 18 19  1  0  0  0  0
 18 21  1  0  0  0  0
 18 20  1  0  0  0  0
 21 56  1  0  0  0  0
 22 24  1  0  0  0  0
 22 25  1  0  0  0  0
 23 22  1  0  0  0  0
 25 26  1  0  0  0  0
 25 28  1  0  0  0  0
 27 25  1  0  0  0  0
 29 52  1  0  0  0  0
 30 29  1  0  0  0  0
 31 29  1  0  0  0  0
 32 29  1  0  0  0  0
 32 57  2  0  0  0  0
 33 58  1  0  0  0  0
 33 36  1  0  0  0  0
 34 33  1  0  0  0  0
 35 33  1  0  0  0  0
 36 38  1  0  0  0  0
 36 39  1  0  0  0  0
 37 36  1  0  0  0  0
 40 41  1  0  0  0  0
 42 40  1  0  0  0  0
 43 60  1  0  0  0  0
 43 40  1  0  0  0  0
 44 47  1  0  0  0  0
 44 45  1  0  0  0  0
 44 60  1  0  0  0  0
 46 44  1  0  0  0  0
 47 49  1  0  0  0  0
 48 47  1  0  0  0  0
 50 47  1  0  0  0  0
 51 18  1  0  0  0  0
 52  4  1  0  0  0  0
 52 40  1  0  0  0  0
 52 63  1  0  0  0  0
 54 11  1  0  0  0  0
 54 10  1  0  0  0  0
 55 21  2  0  0  0  0
 56 22  1  0  0  0  0
 58 32  1  0  0  0  0
 59 43  2  0  0  0  0
 62 63  1  0  0  0  0
 63 51  1  0  0  0  0
 63 61  1  0  0  0  0
M  END
$$$$
