CSD_code = YIDLOP | q = 1 | S = 0 | Stoichiometry = C10H8AuCl2N2(1+) | MND = 4
 OpenBabel04212202123D

 23 25  0  0  0  0  0  0  0  0999 V2000
    3.8807   -0.3338   12.1492 Au  0  0  0  0  0  0  0  0  0  0  0  0
    2.9635   -1.1932   13.9911 Cl  0  0  0  0  0  0  0  0  0  0  0  0
    5.5659   -1.7748   12.3848 Cl  0  0  0  0  0  0  0  0  0  0  0  0
    2.3890    1.0561   11.8031 N   0  0  0  0  0  0  0  0  0  0  0  0
    4.6082    0.5596   10.4319 N   0  0  0  0  0  0  0  0  0  0  0  0
    1.3115    1.2203   12.5573 C   0  0  0  0  0  0  0  0  0  0  0  0
    1.2282    0.5641   13.4136 H   0  0  0  0  0  0  0  0  0  0  0  0
    0.3524    2.1761   12.2635 C   0  0  0  0  0  0  0  0  0  0  0  0
   -0.5131    2.2815   12.8972 H   0  0  0  0  0  0  0  0  0  0  0  0
    0.5384    2.9780   11.1481 C   0  0  0  0  0  0  0  0  0  0  0  0
   -0.1855    3.7346   10.8865 H   0  0  0  0  0  0  0  0  0  0  0  0
    1.6703    2.7984   10.3661 C   0  0  0  0  0  0  0  0  0  0  0  0
    1.8252    3.4169    9.4977 H   0  0  0  0  0  0  0  0  0  0  0  0
    2.5971    1.8190   10.7117 C   0  0  0  0  0  0  0  0  0  0  0  0
    3.8215    1.5441    9.9541 C   0  0  0  0  0  0  0  0  0  0  0  0
    4.1951    2.2293    8.8014 C   0  0  0  0  0  0  0  0  0  0  0  0
    3.5756    3.0180    8.4082 H   0  0  0  0  0  0  0  0  0  0  0  0
    5.3753    1.8916    8.1549 C   0  0  0  0  0  0  0  0  0  0  0  0
    5.6723    2.4179    7.2606 H   0  0  0  0  0  0  0  0  0  0  0  0
    6.1625    0.8739    8.6714 C   0  0  0  0  0  0  0  0  0  0  0  0
    7.0864    0.5799    8.2005 H   0  0  0  0  0  0  0  0  0  0  0  0
    5.7373    0.2289    9.8216 C   0  0  0  0  0  0  0  0  0  0  0  0
    6.3039   -0.5732   10.2758 H   0  0  0  0  0  0  0  0  0  0  0  0
  1  3  1  0  0  0  0
  1  2  1  0  0  0  0
  4  1  1  0  0  0  0
  4  6  1  0  0  0  0
  5  1  1  0  0  0  0
  6  7  1  0  0  0  0
  8  6  2  0  0  0  0
  8  9  1  0  0  0  0
 10  8  1  0  0  0  0
 11 10  1  0  0  0  0
 12 14  1  0  0  0  0
 12 10  2  0  0  0  0
 13 12  1  0  0  0  0
 14  4  1  0  0  0  0
 15  5  1  0  0  0  0
 15 14  2  0  0  0  0
 16 15  1  0  0  0  0
 17 16  1  0  0  0  0
 18 20  1  0  0  0  0
 18 16  2  0  0  0  0
 19 18  1  0  0  0  0
 20 22  2  0  0  0  0
 21 20  1  0  0  0  0
 22 23  1  0  0  0  0
 22  5  1  0  0  0  0
M  END
$$$$
