CSD_code = YIDMAA | q = 0 | S = 0 | Stoichiometry = C11H9AuCl3N | MND = 4
 OpenBabel04212202123D

 25 26  0  0  0  0  0  0  0  0999 V2000
    8.6514    9.5353    6.7516 Au  0  0  0  0  0  0  0  0  0  0  0  0
    7.7680   10.8525    8.3981 Cl  0  0  0  0  0  0  0  0  0  0  0  0
   10.5706   10.6479    6.8031 Cl  0  0  0  0  0  0  0  0  0  0  0  0
    9.3938    8.2119    5.0419 Cl  0  0  0  0  0  0  0  0  0  0  0  0
    6.8863    8.4801    6.7100 N   0  0  0  0  0  0  0  0  0  0  0  0
    5.7795    9.0289    6.2175 C   0  0  0  0  0  3  0  0  0  0  0  0
    5.8352   10.0763    5.9629 H   0  0  0  0  0  0  0  0  0  0  0  0
    4.6188    8.3036    6.0440 C   0  0  0  0  0  0  0  0  0  0  0  0
    3.7419    8.7835    5.6421 H   0  0  0  0  0  0  0  0  0  0  0  0
    4.6182    6.9574    6.3869 C   0  0  0  0  0  0  0  0  0  0  0  0
    3.7311    6.3570    6.2536 H   0  0  0  0  0  0  0  0  0  0  0  0
    5.7692    6.4010    6.9092 C   0  0  0  0  0  0  0  0  0  0  0  0
    5.8089    5.3644    7.2053 H   0  0  0  0  0  0  0  0  0  0  0  0
    6.9033    7.1937    7.0755 C   0  0  0  0  0  0  0  0  0  0  0  0
    8.1453    6.6569    7.6421 C   0  0  0  0  0  0  0  0  0  0  0  0
    8.7497    7.2880    8.7307 C   0  0  0  0  0  0  0  0  0  0  0  0
    8.2530    8.1134    9.2203 H   0  0  0  0  0  0  0  0  0  0  0  0
    9.9532    6.8133    9.2208 C   0  0  0  0  0  0  0  0  0  0  0  0
   10.4159    7.3053   10.0626 H   0  0  0  0  0  0  0  0  0  0  0  0
   10.5635    5.7205    8.6275 C   0  0  0  0  0  0  0  0  0  0  0  0
   11.5130    5.3667    8.9990 H   0  0  0  0  0  0  0  0  0  0  0  0
    9.9545    5.0797    7.5607 C   0  0  0  0  0  0  0  0  0  0  0  0
   10.4280    4.2269    7.0989 H   0  0  0  0  0  0  0  0  0  0  0  0
    8.7442    5.5362    7.0733 C   0  0  0  0  0  0  0  0  0  0  0  0
    8.2819    5.0583    6.2229 H   0  0  0  0  0  0  0  0  0  0  0  0
  1  3  1  0  0  0  0
  1  2  1  0  0  0  0
  4  1  1  0  0  0  0
  5  1  1  0  0  0  0
  5 14  1  0  0  0  0
  6  5  1  0  0  0  0
  7  6  1  0  0  0  0
  8  6  1  0  0  0  0
  8 10  2  0  0  0  0
  9  8  1  0  0  0  0
 10 12  1  0  0  0  0
 11 10  1  0  0  0  0
 12 14  2  0  0  0  0
 12 13  1  0  0  0  0
 14 15  1  0  0  0  0
 15 16  1  0  0  0  0
 16 17  1  0  0  0  0
 16 18  2  0  0  0  0
 18 19  1  0  0  0  0
 20 21  1  0  0  0  0
 20 18  1  0  0  0  0
 22 20  2  0  0  0  0
 23 22  1  0  0  0  0
 24 22  1  0  0  0  0
 24 15  2  0  0  0  0
 25 24  1  0  0  0  0
M  END
$$$$
