CSD_code = YIDPAD | q = 0 | S = 0 | Stoichiometry = C8H10Cl2N6Zn | MND = 4
 OpenBabel04212202123D

 27 28  0  0  1  0  0  0  0  0999 V2000
   -0.2688    2.9073    2.1850 Zn  0  0  0  0  0  0  0  0  0  0  0  0
    0.5601    4.8209   -0.0935 C   0  0  2  0  0  3  0  0  0  0  0  0
    2.0314    4.6939    1.6622 C   0  0  0  0  0  0  0  0  0  0  0  0
    2.2827    4.2349    2.6084 H   0  0  0  0  0  0  0  0  0  0  0  0
    2.8427    5.6403    1.0719 C   0  0  0  0  0  0  0  0  0  0  0  0
    3.7587    5.9633    1.5339 H   0  0  0  0  0  0  0  0  0  0  0  0
    2.4090    6.1476   -0.1509 C   0  0  0  0  0  0  0  0  0  0  0  0
    2.9730    6.8953   -0.6931 H   0  0  0  0  0  0  0  0  0  0  0  0
   -1.6782    1.9447    0.7530 Cl  0  0  0  0  0  0  0  0  0  0  0  0
   -0.5771    4.4521   -0.6761 N   0  0  0  0  0  0  0  0  0  0  0  0
   -1.0852    3.6309   -0.3404 H   0  0  0  0  0  0  0  0  0  0  0  0
   -0.7522    4.8059   -1.6012 H   0  0  0  0  0  0  0  0  0  0  0  0
    0.8958    4.2795    1.1008 N   0  0  0  0  0  0  0  0  0  0  0  0
    1.2973    5.7489   -0.7216 N   0  0  0  0  0  0  0  0  0  0  0  0
   -1.0976    4.8209    4.4635 C   0  0  2  0  0  3  0  0  0  0  0  0
   -2.5689    4.6939    2.7079 C   0  0  0  0  0  0  0  0  0  0  0  0
   -2.8203    4.2349    1.7617 H   0  0  0  0  0  0  0  0  0  0  0  0
   -3.3802    5.6403    3.2982 C   0  0  0  0  0  0  0  0  0  0  0  0
   -4.2962    5.9632    2.8362 H   0  0  0  0  0  0  0  0  0  0  0  0
   -2.9465    6.1476    4.5210 C   0  0  0  0  0  0  0  0  0  0  0  0
   -3.5104    6.8954    5.0632 H   0  0  0  0  0  0  0  0  0  0  0  0
    1.1407    1.9447    3.6171 Cl  0  0  0  0  0  0  0  0  0  0  0  0
    0.0397    4.4521    5.0461 N   0  0  0  0  0  0  0  0  0  0  0  0
    0.5477    3.6309    4.7104 H   0  0  0  0  0  0  0  0  0  0  0  0
    0.2147    4.8059    5.9712 H   0  0  0  0  0  0  0  0  0  0  0  0
   -1.4334    4.2795    3.2693 N   0  0  0  0  0  0  0  0  0  0  0  0
   -1.8348    5.7489    5.0916 N   0  0  0  0  0  0  0  0  0  0  0  0
  1 26  1  0  0  0  0
  1 22  1  0  0  0  0
  2 10  1  1  0  0  0
  2 13  1  0  0  0  0
  3  4  1  0  0  0  0
  5  6  1  0  0  0  0
  5  3  2  0  0  0  0
  7  5  1  0  0  0  0
  8  7  1  0  0  0  0
  9  1  1  0  0  0  0
 10 11  1  0  0  0  0
 12 10  1  0  0  0  0
 13  3  1  0  0  0  0
 13  1  1  0  0  0  0
 14  7  2  0  0  0  0
 14  2  1  0  0  0  0
 15 23  1  6  0  0  0
 15 27  1  0  0  0  0
 16 26  1  0  0  0  0
 16 18  2  0  0  0  0
 17 16  1  0  0  0  0
 18 20  1  0  0  0  0
 19 18  1  0  0  0  0
 20 21  1  0  0  0  0
 20 27  2  0  0  0  0
 23 25  1  0  0  0  0
 24 23  1  0  0  0  0
 26 15  1  0  0  0  0
M  END
$$$$
