CSD_code = YIDVUD | q = 0 | S = 0 | Stoichiometry = C9H20Cl2N2Pt | MND = 4
 OpenBabel04212202123D

 34 35  0  0  1  0  0  0  0  0999 V2000
   12.4354   10.5243    4.0432 Pt  0  0  0  0  0  0  0  0  0  0  0  0
   11.2688    9.2401    2.5930 Cl  0  0  0  0  0  0  0  0  0  0  0  0
   14.1869   10.8759    2.6639 Cl  0  0  0  0  0  0  0  0  0  0  0  0
   10.7652   10.3293    5.3062 N   0  0  0  0  0  4  0  0  0  0  0  0
   10.0985    9.8848    4.6662 H   0  0  0  0  0  0  0  0  0  0  0  0
   10.9203    9.6968    6.0906 H   0  0  0  0  0  0  0  0  0  0  0  0
   13.4419   11.7825    5.4280 N   0  0  1  0  0  4  0  0  0  0  0  0
   14.1073   12.1750    4.7524 H   0  0  0  0  0  0  0  0  0  0  0  0
   10.2755   11.6257    5.7749 C   0  0  0  0  0  0  0  0  0  0  0  0
    9.3524   11.5039    6.3582 H   0  0  0  0  0  0  0  0  0  0  0  0
   10.0450   12.2366    4.8976 H   0  0  0  0  0  0  0  0  0  0  0  0
   11.3096   12.3433    6.6453 C   0  0  0  0  0  0  0  0  0  0  0  0
   11.6139   11.6820    7.4589 H   0  0  0  0  0  0  0  0  0  0  0  0
   10.8251   13.2112    7.0959 H   0  0  0  0  0  0  0  0  0  0  0  0
   12.5438   12.8475    5.8856 C   0  0  0  0  0  0  0  0  0  0  0  0
   12.2094   13.3999    5.0024 H   0  0  0  0  0  0  0  0  0  0  0  0
   13.0805   13.5490    6.5370 H   0  0  0  0  0  0  0  0  0  0  0  0
   14.2428   11.1346    6.4800 C   0  0  0  0  0  0  0  0  0  0  0  0
   13.5867   10.9177    7.3306 H   0  0  0  0  0  0  0  0  0  0  0  0
   14.8159    9.8182    5.9518 C   0  0  0  0  0  0  0  0  0  0  0  0
   15.4615   10.0309    5.0980 H   0  0  0  0  0  0  0  0  0  0  0  0
   13.9998    9.1744    5.5980 H   0  0  0  0  0  0  0  0  0  0  0  0
   15.6151    9.1037    7.0365 C   0  0  0  0  0  0  0  0  0  0  0  0
   14.9598    8.8541    7.8752 H   0  0  0  0  0  0  0  0  0  0  0  0
   16.0179    8.1719    6.6386 H   0  0  0  0  0  0  0  0  0  0  0  0
   16.7518    9.9943    7.5283 C   0  0  0  0  0  0  0  0  0  0  0  0
   17.4431   10.1843    6.7053 H   0  0  0  0  0  0  0  0  0  0  0  0
   17.3050    9.4903    8.3225 H   0  0  0  0  0  0  0  0  0  0  0  0
   16.2011   11.3204    8.0424 C   0  0  0  0  0  0  0  0  0  0  0  0
   15.5601   11.1371    8.9085 H   0  0  0  0  0  0  0  0  0  0  0  0
   17.0202   11.9650    8.3659 H   0  0  0  0  0  0  0  0  0  0  0  0
   15.3944   12.0263    6.9546 C   0  0  0  0  0  0  0  0  0  0  0  0
   15.0156   12.9737    7.3448 H   0  0  0  0  0  0  0  0  0  0  0  0
   16.0454   12.2447    6.1050 H   0  0  0  0  0  0  0  0  0  0  0  0
  1  4  1  0  0  0  0
  1  7  1  0  0  0  0
  2  1  1  0  0  0  0
  3  1  1  0  0  0  0
  4  9  1  0  0  0  0
  4  6  1  0  0  0  0
  5  4  1  0  0  0  0
  7  8  1  6  0  0  0
  7 15  1  0  0  0  0
  7 18  1  0  0  0  0
  9 10  1  0  0  0  0
  9 12  1  0  0  0  0
 11  9  1  0  0  0  0
 12 14  1  0  0  0  0
 12 13  1  0  0  0  0
 15 17  1  0  0  0  0
 15 12  1  0  0  0  0
 16 15  1  0  0  0  0
 18 32  1  0  0  0  0
 18 19  1  0  0  0  0
 20 18  1  0  0  0  0
 20 23  1  0  0  0  0
 21 20  1  0  0  0  0
 22 20  1  0  0  0  0
 23 26  1  0  0  0  0
 23 24  1  0  0  0  0
 25 23  1  0  0  0  0
 26 29  1  0  0  0  0
 26 28  1  0  0  0  0
 27 26  1  0  0  0  0
 29 31  1  0  0  0  0
 29 30  1  0  0  0  0
 32 33  1  0  0  0  0
 32 29  1  0  0  0  0
 34 32  1  0  0  0  0
M  END
$$$$
