CSD_code = YIFJAB | q = 1 | S = 0 | Stoichiometry = C19H35ClN2NiP(1+) | MND = 4
 OpenBabel04212202123D

 59 61  0  0  1  0  0  0  0  0999 V2000
   26.5779    6.7179    6.7813 Ni  0  0  2  0  0  0  0  0  0  0  0  0
   27.0818    4.6397    6.8527 P   0  0  0  0  0  4  0  0  0  0  0  0
   28.2729    7.1747    7.8005 Cl  0  0  0  0  0  0  0  0  0  0  0  0
   25.8257    8.7050    6.6722 N   0  0  0  0  0  4  0  0  0  0  0  0
   25.0456    6.2768    5.7816 N   0  0  0  0  0  0  0  0  0  0  0  0
   24.4639    8.6088    6.1078 C   0  0  0  0  0  0  0  0  0  0  0  0
   23.7278    8.8296    6.8874 H   0  0  0  0  0  0  0  0  0  0  0  0
   24.3191    9.3578    5.3181 H   0  0  0  0  0  0  0  0  0  0  0  0
   24.1512    7.2438    5.5641 C   0  0  2  0  0  3  0  0  0  0  0  0
   22.9652    6.9905    4.8859 C   0  0  0  0  0  0  0  0  0  0  0  0
   22.2585    7.7882    4.7240 H   0  0  0  0  0  0  0  0  0  0  0  0
   22.7089    5.7075    4.4362 C   0  0  0  0  0  0  0  0  0  0  0  0
   21.7902    5.4812    3.9187 H   0  0  0  0  0  0  0  0  0  0  0  0
   23.6561    4.7183    4.6510 C   0  0  0  0  0  0  0  0  0  0  0  0
   23.4944    3.7128    4.2972 H   0  0  0  0  0  0  0  0  0  0  0  0
   24.8277    5.0387    5.3207 C   0  0  0  0  0  0  0  0  0  0  0  0
   25.9338    4.0496    5.5062 C   0  0  0  0  0  0  0  0  0  0  0  0
   26.5108    4.0252    4.5763 H   0  0  0  0  0  0  0  0  0  0  0  0
   25.5560    3.0418    5.6844 H   0  0  0  0  0  0  0  0  0  0  0  0
   25.7887    9.3859    7.9804 C   0  0  0  0  0  0  0  0  0  0  0  0
   25.2385   10.3318    7.9011 H   0  0  0  0  0  0  0  0  0  0  0  0
   26.8178    9.6121    8.2661 H   0  0  0  0  0  0  0  0  0  0  0  0
   25.1825    8.4930    9.0557 C   0  0  0  0  0  0  0  0  0  0  0  0
   24.1101    8.3534    8.9355 H   0  0  0  0  0  0  0  0  0  0  0  0
   25.3587    8.9262   10.0358 H   0  0  0  0  0  0  0  0  0  0  0  0
   25.6748    7.5135    9.0222 H   0  0  0  0  0  0  0  0  0  0  0  0
   26.7184    9.4261    5.7458 C   0  0  0  0  0  0  0  0  0  0  0  0
   27.6537    9.6283    6.2730 H   0  0  0  0  0  0  0  0  0  0  0  0
   26.2722   10.3875    5.4586 H   0  0  0  0  0  0  0  0  0  0  0  0
   27.0327    8.5923    4.5096 C   0  0  0  0  0  0  0  0  0  0  0  0
   27.4384    7.6158    4.8212 H   0  0  0  0  0  0  0  0  0  0  0  0
   27.7892    9.0925    3.9115 H   0  0  0  0  0  0  0  0  0  0  0  0
   26.1539    8.4330    3.8875 H   0  0  0  0  0  0  0  0  0  0  0  0
   26.3978    3.8412    8.4201 C   0  0  0  0  0  0  0  0  0  0  0  0
   24.9249    4.2592    8.4786 C   0  0  0  0  0  0  0  0  0  0  0  0
   24.5017    3.9756    9.4400 H   0  0  0  0  0  0  0  0  0  0  0  0
   24.3317    3.7829    7.7003 H   0  0  0  0  0  0  0  0  0  0  0  0
   24.8311    5.3449    8.3804 H   0  0  0  0  0  0  0  0  0  0  0  0
   26.5120    2.3206    8.4193 C   0  0  0  0  0  0  0  0  0  0  0  0
   27.5472    1.9994    8.4943 H   0  0  0  0  0  0  0  0  0  0  0  0
   26.0620    1.8728    7.5354 H   0  0  0  0  0  0  0  0  0  0  0  0
   25.9855    1.9303    9.2889 H   0  0  0  0  0  0  0  0  0  0  0  0
   27.1205    4.4245    9.6341 C   0  0  0  0  0  0  0  0  0  0  0  0
   26.6187    4.1055   10.5454 H   0  0  0  0  0  0  0  0  0  0  0  0
   27.1133    5.5130    9.6034 H   0  0  0  0  0  0  0  0  0  0  0  0
   28.1525    4.0938    9.6877 H   0  0  0  0  0  0  0  0  0  0  0  0
   28.7640    4.0026    6.2958 C   0  0  0  0  0  0  0  0  0  0  0  0
   28.6792    2.5981    5.6968 C   0  0  0  0  0  0  0  0  0  0  0  0
   29.6908    2.2584    5.4811 H   0  0  0  0  0  0  0  0  0  0  0  0
   28.1264    2.5792    4.7611 H   0  0  0  0  0  0  0  0  0  0  0  0
   28.2328    1.8841    6.3815 H   0  0  0  0  0  0  0  0  0  0  0  0
   29.7480    4.0152    7.4633 C   0  0  0  0  0  0  0  0  0  0  0  0
   30.7579    3.8730    7.0837 H   0  0  0  0  0  0  0  0  0  0  0  0
   29.5431    3.2101    8.1640 H   0  0  0  0  0  0  0  0  0  0  0  0
   29.7174    4.9687    7.9859 H   0  0  0  0  0  0  0  0  0  0  0  0
   29.2363    4.9930    5.2269 C   0  0  0  0  0  0  0  0  0  0  0  0
   29.4102    5.9729    5.6684 H   0  0  0  0  0  0  0  0  0  0  0  0
   28.5130    5.0915    4.4163 H   0  0  0  0  0  0  0  0  0  0  0  0
   30.1728    4.6484    4.7945 H   0  0  0  0  0  0  0  0  0  0  0  0
  1  2  1  0  0  0  0
  1  3  1  6  0  0  0
  2 34  1  0  0  0  0
  4  1  1  0  0  0  0
  4 20  1  0  0  0  0
  5  1  1  0  0  0  0
  6  4  1  0  0  0  0
  6  7  1  0  0  0  0
  8  6  1  0  0  0  0
  9 10  1  1  0  0  0
  9  5  1  0  0  0  0
  9  6  1  0  0  0  0
 11 10  1  0  0  0  0
 12 14  1  0  0  0  0
 12 10  2  0  0  0  0
 13 12  1  0  0  0  0
 14 16  2  0  0  0  0
 15 14  1  0  0  0  0
 16 17  1  0  0  0  0
 16  5  1  0  0  0  0
 17 19  1  0  0  0  0
 17  2  1  0  0  0  0
 18 17  1  0  0  0  0
 20 22  1  0  0  0  0
 20 23  1  0  0  0  0
 21 20  1  0  0  0  0
 23 25  1  0  0  0  0
 24 23  1  0  0  0  0
 26 23  1  0  0  0  0
 27 28  1  0  0  0  0
 27  4  1  0  0  0  0
 29 27  1  0  0  0  0
 30 31  1  0  0  0  0
 30 27  1  0  0  0  0
 32 30  1  0  0  0  0
 33 30  1  0  0  0  0
 34 35  1  0  0  0  0
 34 43  1  0  0  0  0
 35 36  1  0  0  0  0
 37 35  1  0  0  0  0
 38 35  1  0  0  0  0
 39 34  1  0  0  0  0
 39 40  1  0  0  0  0
 39 42  1  0  0  0  0
 41 39  1  0  0  0  0
 43 46  1  0  0  0  0
 43 44  1  0  0  0  0
 45 43  1  0  0  0  0
 47  2  1  0  0  0  0
 47 52  1  0  0  0  0
 48 47  1  0  0  0  0
 48 51  1  0  0  0  0
 49 48  1  0  0  0  0
 50 48  1  0  0  0  0
 52 55  1  0  0  0  0
 52 54  1  0  0  0  0
 53 52  1  0  0  0  0
 56 57  1  0  0  0  0
 56 47  1  0  0  0  0
 58 56  1  0  0  0  0
 59 56  1  0  0  0  0
M  END
$$$$
