CSD_code = YIFZES | q = 0 | S = 0 | Stoichiometry = C17H37ClP4Ti | MND = 10
 OpenBabel04212202123D

 60 57  0  0  1  0  0  0  0  0999 V2000
   -0.2949    0.6300    4.7403 Ti  0  0  0  0  0  0  0  0  0  0  0  0
   -1.4399    2.1336    6.4414 P   0  0  0  0  0  0  0  0  0  0  0  0
   -1.8969    1.8685    3.2122 P   0  0  0  0  0  0  0  0  0  0  0  0
   -2.4318    3.3632    5.4648 C   0  0  0  0  0  0  0  0  0  0  0  0
   -3.1494    2.6574    4.3267 C   0  0  0  0  0  0  0  0  0  0  0  0
   -2.7866    1.5997    7.5955 C   0  0  0  0  0  0  0  0  0  0  0  0
   -0.6425    3.3271    7.5967 C   0  0  0  0  0  0  0  0  0  0  0  0
   -3.0551    1.0626    2.0225 C   0  0  0  0  0  0  0  0  0  0  0  0
   -1.5021    3.3332    2.1620 C   0  0  0  0  0  0  0  0  0  0  0  0
    1.2577    0.5628    2.7347 P   0  0  0  0  0  0  0  0  0  0  0  0
    1.9518    0.7309    5.9310 P   0  0  0  0  0  0  0  0  0  0  0  0
    2.9274    0.1278    3.4095 C   0  0  0  0  0  0  0  0  0  0  0  0
    3.2261    1.0113    4.6091 C   0  0  0  0  0  0  0  0  0  0  0  0
    1.1712   -0.6832    1.3759 C   0  0  0  0  0  0  0  0  0  0  0  0
    1.7544    1.9916    1.6782 C   0  0  0  0  0  0  0  0  0  0  0  0
    2.7820   -0.6995    6.7652 C   0  0  0  0  0  0  0  0  0  0  0  0
    2.5370    2.0204    7.1102 C   0  0  0  0  0  0  0  0  0  0  0  0
   -2.1084   -0.7618    4.8049 C   0  0  0  0  0  3  0  0  0  0  0  0
   -1.1900   -1.1843    3.8163 C   0  0  2  0  0  0  0  0  0  0  0  0
   -0.0231   -1.6298    4.4785 C   0  0  0  0  0  3  0  0  0  0  0  0
   -0.2388   -1.5043    5.8630 C   0  0  0  0  0  0  0  0  0  0  0  0
   -1.5143   -0.9729    6.0629 C   0  0  0  0  0  0  0  0  0  0  0  0
    0.6081    2.8648    4.5960 Cl  0  0  0  0  0 15  0  0  0  0  0  0
   -3.1451    3.8571    6.1349 H   0  0  0  0  0  0  0  0  0  0  0  0
   -1.7439    4.1145    5.0676 H   0  0  0  0  0  0  0  0  0  0  0  0
   -3.7759    3.3528    3.7553 H   0  0  0  0  0  0  0  0  0  0  0  0
   -3.7872    1.8618    4.7259 H   0  0  0  0  0  0  0  0  0  0  0  0
   -3.5190    0.9896    7.0694 H   0  0  0  0  0  0  0  0  0  0  0  0
   -3.2851    2.4670    8.0305 H   0  0  0  0  0  0  0  0  0  0  0  0
   -2.3493    1.0064    8.3985 H   0  0  0  0  0  0  0  0  0  0  0  0
    0.1201    3.8966    7.0725 H   0  0  0  0  0  0  0  0  0  0  0  0
   -0.1833    2.7740    8.4153 H   0  0  0  0  0  0  0  0  0  0  0  0
   -1.3966    4.0054    7.9979 H   0  0  0  0  0  0  0  0  0  0  0  0
   -3.5554    0.2154    2.4852 H   0  0  0  0  0  0  0  0  0  0  0  0
   -2.4804    0.7035    1.1681 H   0  0  0  0  0  0  0  0  0  0  0  0
   -3.8002    1.7802    1.6772 H   0  0  0  0  0  0  0  0  0  0  0  0
   -1.0498    2.9825    1.2358 H   0  0  0  0  0  0  0  0  0  0  0  0
   -0.7983    3.9875    2.6705 H   0  0  0  0  0  0  0  0  0  0  0  0
   -2.4177    3.8775    1.9275 H   0  0  0  0  0  0  0  0  0  0  0  0
    2.8986   -0.9222    3.7189 H   0  0  0  0  0  0  0  0  0  0  0  0
    3.6894    0.2408    2.6290 H   0  0  0  0  0  0  0  0  0  0  0  0
    3.1874    2.0649    4.3196 H   0  0  0  0  0  0  0  0  0  0  0  0
    4.2186    0.7948    5.0210 H   0  0  0  0  0  0  0  0  0  0  0  0
    0.3219   -0.4395    0.7367 H   0  0  0  0  0  0  0  0  0  0  0  0
    1.0280   -1.6833    1.7774 H   0  0  0  0  0  0  0  0  0  0  0  0
    2.0857   -0.6575    0.7822 H   0  0  0  0  0  0  0  0  0  0  0  0
    1.8735    2.8882    2.2814 H   0  0  0  0  0  0  0  0  0  0  0  0
    0.9725    2.1660    0.9411 H   0  0  0  0  0  0  0  0  0  0  0  0
    2.6866    1.7613    1.1611 H   0  0  0  0  0  0  0  0  0  0  0  0
    2.7302   -1.5879    6.1378 H   0  0  0  0  0  0  0  0  0  0  0  0
    2.2717   -0.9053    7.7061 H   0  0  0  0  0  0  0  0  0  0  0  0
    3.8268   -0.4668    6.9753 H   0  0  0  0  0  0  0  0  0  0  0  0
    2.2820    3.0082    6.7360 H   0  0  0  0  0  0  0  0  0  0  0  0
    3.6183    1.9408    7.2295 H   0  0  0  0  0  0  0  0  0  0  0  0
    2.0556    1.8627    8.0747 H   0  0  0  0  0  0  0  0  0  0  0  0
   -3.1489   -0.5065    4.6438 H   0  0  0  0  0  0  0  0  0  0  0  0
   -1.3994   -1.2905    2.7590 H   0  0  0  0  0  0  0  0  0  0  0  0
    0.8093   -2.1537    4.0244 H   0  0  0  0  0  0  0  0  0  0  0  0
    0.4070   -1.8713    6.6476 H   0  0  0  0  0  0  0  0  0  0  0  0
   -1.9960   -0.8695    7.0245 H   0  0  0  0  0  0  0  0  0  0  0  0
  2  6  1  0  0  0  0
  2  7  1  0  0  0  0
  3  5  1  0  0  0  0
  4 24  1  0  0  0  0
  4  2  1  0  0  0  0
  5 27  1  0  0  0  0
  5  4  1  0  0  0  0
  6 29  1  0  0  0  0
  6 30  1  0  0  0  0
  7 33  1  0  0  0  0
  7 32  1  0  0  0  0
  8 34  1  0  0  0  0
  8  3  1  0  0  0  0
  9 38  1  0  0  0  0
  9  3  1  0  0  0  0
 10 12  1  0  0  0  0
 11 16  1  0  0  0  0
 11 17  1  0  0  0  0
 12 40  1  0  0  0  0
 12 13  1  0  0  0  0
 13 43  1  0  0  0  0
 13 11  1  0  0  0  0
 14 45  1  0  0  0  0
 14 10  1  0  0  0  0
 15 47  1  0  0  0  0
 15 10  1  0  0  0  0
 16 52  1  0  0  0  0
 16 51  1  0  0  0  0
 17 54  1  0  0  0  0
 17 55  1  0  0  0  0
 18 22  1  0  0  0  0
 19 57  1  6  0  0  0
 19 20  1  0  0  0  0
 19  1  1  0  0  0  0
 19 18  1  0  0  0  0
 20 21  1  0  0  0  0
 21 22  2  0  0  0  0
 21 59  1  0  0  0  0
 22 60  1  0  0  0  0
 25  4  1  0  0  0  0
 26  5  1  0  0  0  0
 28  6  1  0  0  0  0
 31  7  1  0  0  0  0
 35  8  1  0  0  0  0
 36  8  1  0  0  0  0
 37  9  1  0  0  0  0
 39  9  1  0  0  0  0
 41 12  1  0  0  0  0
 42 13  1  0  0  0  0
 44 14  1  0  0  0  0
 46 14  1  0  0  0  0
 48 15  1  0  0  0  0
 49 15  1  0  0  0  0
 50 16  1  0  0  0  0
 53 17  1  0  0  0  0
 56 18  1  0  0  0  0
 58 20  1  0  0  0  0
M  END
$$$$
