CSD_code = YIGYAQ | q = 0 | S = 0 | Stoichiometry = C18H16Cl2F4N4Pd | MND = 4
 OpenBabel04212202123D

 45 48  0  0  1  0  0  0  0  0999 V2000
    5.3329   14.6627   -0.0002 Pd  0  0  0  0  0  0  0  0  0  0  0  0
    3.5145   13.8794    0.1509 C   0  0  0  0  0  0  0  0  0  0  0  0
    1.5241   13.2736    1.0117 C   0  0  0  0  0  0  0  0  0  0  0  0
    3.0260   13.8932   -2.2407 C   0  0  0  0  0  0  0  0  0  0  0  0
    4.1261   13.8602   -2.3132 H   0  0  0  0  0  0  0  0  0  0  0  0
    2.6710   14.8654   -2.5929 H   0  0  0  0  0  0  0  0  0  0  0  0
    2.5977   13.0996   -2.8537 H   0  0  0  0  0  0  0  0  0  0  0  0
    0.2191   13.0558   -1.0241 C   0  0  0  0  0  0  0  0  0  0  0  0
    0.1245   13.1072   -2.0969 H   0  0  0  0  0  0  0  0  0  0  0  0
    1.4177   13.3350   -0.3870 C   0  0  0  0  0  0  0  0  0  0  0  0
   -0.7429   12.6554    1.1652 C   0  0  0  0  0  0  0  0  0  0  0  0
   -1.6082   12.3873    1.7508 H   0  0  0  0  0  0  0  0  0  0  0  0
    0.4484   12.9333    1.8114 C   0  0  0  0  0  0  0  0  0  0  0  0
    0.5338   12.8875    2.8848 H   0  0  0  0  0  0  0  0  0  0  0  0
    3.4446   13.6619    2.5776 C   0  0  0  0  0  0  0  0  0  0  0  0
    4.5478   13.7698    2.4823 H   0  0  0  0  0  0  0  0  0  0  0  0
   -0.8549   12.7158   -0.2220 C   0  0  0  0  0  0  0  0  0  0  0  0
   -1.8056   12.4937   -0.6816 H   0  0  0  0  0  0  0  0  0  0  0  0
    2.9620   14.6945    3.3107 F   0  0  0  0  0  0  0  0  0  0  0  0
    2.6628   13.6997   -0.8604 N   0  0  0  0  0  0  0  0  0  0  0  0
    2.8405   13.6104    1.3019 N   0  0  0  0  0  0  0  0  0  0  0  0
    3.1611   12.5533    3.2921 F   0  0  0  0  0  0  0  0  0  0  0  0
    6.3352   12.6614    0.4582 Cl  0  0  0  0  0  0  0  0  0  0  0  0
    7.1515   15.4459   -0.1513 C   0  0  1  0  0  3  0  0  0  0  0  0
    9.1422   16.0514   -1.0116 C   0  0  0  0  0  0  0  0  0  0  0  0
    7.6393   15.4321    2.2404 C   0  0  0  0  0  0  0  0  0  0  0  0
    6.5392   15.4658    2.3126 H   0  0  0  0  0  0  0  0  0  0  0  0
    7.9936   14.4596    2.5925 H   0  0  0  0  0  0  0  0  0  0  0  0
    8.0679   16.2254    2.8536 H   0  0  0  0  0  0  0  0  0  0  0  0
   10.4467   16.2690    1.0246 C   0  0  0  0  0  0  0  0  0  0  0  0
   10.5410   16.2176    2.0974 H   0  0  0  0  0  0  0  0  0  0  0  0
    9.2483   15.9900    0.3871 C   0  0  0  0  0  0  0  0  0  0  0  0
   11.4094   16.6692   -1.1644 C   0  0  0  0  0  0  0  0  0  0  0  0
   12.2749   16.9371   -1.7499 H   0  0  0  0  0  0  0  0  0  0  0  0
   10.2182   16.3915   -1.8110 C   0  0  0  0  0  0  0  0  0  0  0  0
   10.1331   16.4373   -2.8844 H   0  0  0  0  0  0  0  0  0  0  0  0
    7.2221   15.6632   -2.5780 C   0  0  0  0  0  0  0  0  0  0  0  0
    6.1190   15.5550   -2.4830 H   0  0  0  0  0  0  0  0  0  0  0  0
   11.5210   16.6088    0.2228 C   0  0  0  0  0  0  0  0  0  0  0  0
   12.4716   16.8307    0.6826 H   0  0  0  0  0  0  0  0  0  0  0  0
    7.7053   14.6307   -3.3110 F   0  0  0  0  0  0  0  0  0  0  0  0
    8.0029   15.6255    0.8602 N   0  0  0  0  0  0  0  0  0  0  0  0
    7.8258   15.7147   -1.3021 N   0  0  0  0  0  0  0  0  0  0  0  0
    7.5055   16.7719   -3.2923 F   0  0  0  0  0  0  0  0  0  0  0  0
    4.3307   16.6641   -0.4592 Cl  0  0  0  0  0  0  0  0  0  0  0  0
  1  2  2  0  0  0  0
  1 23  1  0  0  0  0
  2 21  1  0  0  0  0
  3 21  1  0  0  0  0
  3 13  1  0  0  0  0
  4 20  1  0  0  0  0
  5  4  1  0  0  0  0
  6  4  1  0  0  0  0
  7  4  1  0  0  0  0
  8 10  1  0  0  0  0
  8 17  2  0  0  0  0
  9  8  1  0  0  0  0
 10  3  2  0  0  0  0
 11 12  1  0  0  0  0
 11 13  2  0  0  0  0
 13 14  1  0  0  0  0
 15 22  1  0  0  0  0
 15 19  1  0  0  0  0
 16 15  1  0  0  0  0
 17 11  1  0  0  0  0
 18 17  1  0  0  0  0
 20 10  1  0  0  0  0
 20  2  1  0  0  0  0
 21 15  1  0  0  0  0
 24  1  1  6  0  0  0
 24 42  1  0  0  0  0
 25 32  1  0  0  0  0
 26 27  1  0  0  0  0
 26 28  1  0  0  0  0
 26 29  1  0  0  0  0
 30 31  1  0  0  0  0
 32 42  1  0  0  0  0
 32 30  2  0  0  0  0
 33 39  2  0  0  0  0
 34 33  1  0  0  0  0
 35 33  1  0  0  0  0
 35 25  2  0  0  0  0
 36 35  1  0  0  0  0
 37 38  1  0  0  0  0
 37 43  1  0  0  0  0
 39 40  1  0  0  0  0
 39 30  1  0  0  0  0
 41 37  1  0  0  0  0
 42 26  1  0  0  0  0
 43 25  1  0  0  0  0
 43 24  1  0  0  0  0
 44 37  1  0  0  0  0
 45  1  1  0  0  0  0
M  END
$$$$
