CSD_code = YIHJUV | q = 0 | S = 0 | Stoichiometry = C6H9Cl2N5O2Zn | MND = 4
 OpenBabel04212202123D

 25 25  0  0  0  0  0  0  0  0999 V2000
    3.3631    6.4365    3.9344 Zn  0  0  0  0  0  0  0  0  0  0  0  0
    3.5413    5.1739    2.1101 Cl  0  0  0  0  0  0  0  0  0  0  0  0
    4.9222    7.5801    4.9218 Cl  0  0  0  0  0  0  0  0  0  0  0  0
    1.3200    7.1061    3.6344 O   0  0  0  0  0  0  0  0  0  0  0  0
    0.3496    4.6050    3.6950 O   0  0  0  0  0  0  0  0  0  0  0  0
    0.6750    2.3726    3.8806 N   0  0  0  0  0  0  0  0  0  0  0  0
    0.7928    0.0585    4.0478 N   0  0  0  0  0  0  0  0  0  0  0  0
    2.4340    1.3115    5.0307 N   0  0  0  0  0  0  0  0  0  0  0  0
    3.0575    4.8017    5.2375 N   0  0  0  0  0  0  0  0  0  0  0  0
    4.0054    2.9204    5.9309 N   0  0  0  0  0  0  0  0  0  0  0  0
    1.3398    1.2616    4.3212 C   0  0  0  0  0  0  0  0  0  0  0  0
    2.8782    2.5622    5.2629 C   0  0  0  0  0  0  0  0  0  0  0  0
    2.2795    3.7482    4.8394 C   0  0  0  0  0  0  0  0  0  0  0  0
    1.0581    3.6996    4.1016 C   0  0  0  0  0  0  0  0  0  0  0  0
    4.0684    4.2730    5.8773 C   0  0  0  0  0  3  0  0  0  0  0  0
    4.9558    2.0236    6.5283 C   0  0  0  0  0  0  0  0  0  0  0  0
   -0.1765    2.2613    3.3421 H   0  0  0  0  0  0  0  0  0  0  0  0
    0.8455    6.2429    3.7004 H   0  0  0  0  0  0  0  0  0  0  0  0
    1.3509   -0.7476    4.2703 H   0  0  0  0  0  0  0  0  0  0  0  0
    0.0962   -0.0325    3.3295 H   0  0  0  0  0  0  0  0  0  0  0  0
    1.1638    7.4080    2.7333 H   0  0  0  0  0  0  0  0  0  0  0  0
    4.8632    4.8470    6.3138 H   0  0  0  0  0  0  0  0  0  0  0  0
    4.6062    1.0073    6.3575 H   0  0  0  0  0  0  0  0  0  0  0  0
    5.0324    2.2112    7.6001 H   0  0  0  0  0  0  0  0  0  0  0  0
    5.9377    2.1560    6.0727 H   0  0  0  0  0  0  0  0  0  0  0  0
  1  3  1  0  0  0  0
  1  9  1  0  0  0  0
  2  1  1  0  0  0  0
  4 18  1  0  0  0  0
  5 14  2  0  0  0  0
  6 14  1  0  0  0  0
  6 11  1  0  0  0  0
  7 19  1  0  0  0  0
  7 11  1  0  0  0  0
  8 12  1  0  0  0  0
  9 15  1  0  0  0  0
 10 16  1  0  0  0  0
 11  8  2  0  0  0  0
 12 10  1  0  0  0  0
 13  9  1  0  0  0  0
 13 12  2  0  0  0  0
 14 13  1  0  0  0  0
 15 10  1  0  0  0  0
 15 22  1  0  0  0  0
 16 24  1  0  0  0  0
 17  6  1  0  0  0  0
 20  7  1  0  0  0  0
 21  4  1  0  0  0  0
 23 16  1  0  0  0  0
 25 16  1  0  0  0  0
M  END
$$$$
