CSD_code = YIHKAC | q = 0 | S = 0 | Stoichiometry = C6H9Cl2N5OZn | MND = 4
 OpenBabel04212202123D

 24 24  0  0  1  0  0  0  0  0999 V2000
   -4.8220    5.7063    0.1851 Zn  0  0  0  0  0  0  0  0  0  0  0  0
   -4.0688    7.7500    0.0213 Cl  0  0  0  0  0  0  0  0  0  0  0  0
   -6.7643    4.8220    0.7643 Cl  0  0  0  0  0  0  0  0  0  0  0  0
   -5.2581    5.5698   -2.0311 O   0  0  0  0  0  0  0  0  0  0  0  0
   -3.3942    0.7637    0.7209 N   0  0  0  0  0  0  0  0  0  0  0  0
   -1.1744    1.5779    0.4978 N   0  0  0  0  0  2  0  0  0  0  0  0
   -5.2851    2.0582    0.7118 N   0  0  0  0  0  0  0  0  0  0  0  0
   -3.2425    4.4427    0.3400 N   0  0  0  0  0  0  0  0  0  0  0  0
   -1.0753    3.9864    0.2451 N   0  0  0  0  0  0  0  0  0  0  0  0
   -2.0847    0.6318    0.6490 C   0  0  0  0  0  0  0  0  0  0  0  0
   -1.7179    2.7902    0.4114 C   0  0  0  0  0  0  0  0  0  0  0  0
   -3.0882    3.0823    0.4713 C   0  0  0  0  0  0  0  0  0  0  0  0
   -3.9603    1.9767    0.6400 C   0  0  2  0  0  3  0  0  0  0  0  0
   -2.0300    4.9327    0.2077 C   0  0  0  0  0  3  0  0  0  0  0  0
    0.3467    4.1608    0.1373 C   0  0  0  0  0  0  0  0  0  0  0  0
   -6.1691    5.3098   -2.2088 H   0  0  0  0  0  0  0  0  0  0  0  0
   -1.7087   -0.3795    0.7227 H   0  0  0  0  0  0  0  0  0  0  0  0
   -5.1236    6.4425   -2.4193 H   0  0  0  0  0  0  0  0  0  0  0  0
   -1.8250    5.9786    0.0823 H   0  0  0  0  0  0  0  0  0  0  0  0
   -5.7934    1.2022    0.8555 H   0  0  0  0  0  0  0  0  0  0  0  0
   -5.7837    2.9467    0.7103 H   0  0  0  0  0  0  0  0  0  0  0  0
    0.7173    4.7843    0.9525 H   0  0  0  0  0  0  0  0  0  0  0  0
    0.6021    4.6288   -0.8146 H   0  0  0  0  0  0  0  0  0  0  0  0
    0.8020    3.1731    0.1955 H   0  0  0  0  0  0  0  0  0  0  0  0
  1  8  1  0  0  0  0
  1  3  1  0  0  0  0
  2  1  1  0  0  0  0
  6 10  1  0  0  0  0
  7 20  1  0  0  0  0
  8 12  1  0  0  0  0
  9 11  1  0  0  0  0
 10  5  2  0  0  0  0
 10 17  1  0  0  0  0
 11 12  2  0  0  0  0
 11  6  1  0  0  0  0
 12 13  1  0  0  0  0
 13  7  1  6  0  0  0
 13  5  1  0  0  0  0
 14  9  1  0  0  0  0
 14  8  1  0  0  0  0
 15 24  1  0  0  0  0
 15  9  1  0  0  0  0
 15 22  1  0  0  0  0
 16  4  1  0  0  0  0
 18  4  1  0  0  0  0
 19 14  1  0  0  0  0
 21  7  1  0  0  0  0
 23 15  1  0  0  0  0
M  END
$$$$
