CSD_code = YIHVER | q = 0 | S = 0 | Stoichiometry = C10H10ClCuN2S | MND = 4
 OpenBabel04212202123D

 25 25  0  0  1  0  0  0  0  0999 V2000
   -1.1050    0.1808    7.8955 Cu  0  0  0  0  0  0  0  0  0  0  0  0
   -1.9005   -0.1873    9.8204 Cl  0  0  0  0  0 15  0  0  0  0  0  0
    2.6898   -1.9025    6.2503 S   0  0  0  0  0  0  0  0  0  0  0  0
    1.4739    0.3544    5.8931 N   0  0  0  0  0  0  0  0  0  0  0  0
    0.4884   -0.9844    7.5319 N   0  0  0  0  0  0  0  0  0  0  0  0
    0.5513   -1.8490    8.0515 H   0  0  0  0  0  0  0  0  0  0  0  0
    3.3206   -0.7852    5.0599 C   0  0  0  0  0  0  0  0  0  0  0  0
    4.4283   -0.9624    4.2535 C   0  0  0  0  0  0  0  0  0  0  0  0
    5.0037   -1.8718    4.3142 H   0  0  0  0  0  0  0  0  0  0  0  0
    4.7710    0.0529    3.3782 C   0  0  0  0  0  0  0  0  0  0  0  0
    5.6311   -0.0614    2.7381 H   0  0  0  0  0  0  0  0  0  0  0  0
    4.0166    1.2162    3.3253 C   0  0  0  0  0  0  0  0  0  0  0  0
    4.2973    2.0037    2.6435 H   0  0  0  0  0  0  0  0  0  0  0  0
    2.9076    1.3921    4.1345 C   0  0  0  0  0  0  0  0  0  0  0  0
    2.3471    2.3114    4.0749 H   0  0  0  0  0  0  0  0  0  0  0  0
    2.5444    0.3787    5.0119 C   0  0  0  0  0  0  0  0  0  0  0  0
    1.3934   -0.7679    6.6525 C   0  0  0  0  0  0  0  0  0  0  0  0
    0.5592    1.4753    6.0666 C   0  0  0  0  0  0  0  0  0  0  0  0
    0.6670    2.1124    5.1848 H   0  0  0  0  0  0  0  0  0  0  0  0
    0.8528    2.0515    6.9520 H   0  0  0  0  0  0  0  0  0  0  0  0
   -0.8800    1.0486    6.1847 C   0  0  2  0  0  0  0  0  0  0  0  0
   -1.2225    0.3914    5.3922 H   0  0  0  0  0  0  0  0  0  0  0  0
   -1.8055    1.7425    6.9342 C   0  0  0  0  0  3  0  0  0  0  0  0
   -1.5192    2.6329    7.4751 H   0  0  0  0  0  0  0  0  0  0  0  0
   -2.8598    1.6429    6.7287 H   0  0  0  0  0  0  0  0  0  0  0  0
  3 17  1  0  0  0  0
  4 18  1  0  0  0  0
  4 17  1  0  0  0  0
  5  6  1  0  0  0  0
  7  3  1  0  0  0  0
  8  9  1  0  0  0  0
  8  7  2  0  0  0  0
 10  8  1  0  0  0  0
 11 10  1  0  0  0  0
 12 10  2  0  0  0  0
 12 14  1  0  0  0  0
 13 12  1  0  0  0  0
 14 16  2  0  0  0  0
 15 14  1  0  0  0  0
 16  7  1  0  0  0  0
 16  4  1  0  0  0  0
 17  5  2  0  0  0  0
 18 21  1  0  0  0  0
 18 20  1  0  0  0  0
 19 18  1  0  0  0  0
 21 22  1  6  0  0  0
 21 23  1  0  0  0  0
 21  1  1  0  0  0  0
 23 24  1  0  0  0  0
 25 23  1  0  0  0  0
M  END
$$$$
