CSD_code = YIJBAV | q = 0 | S = 0 | Stoichiometry = C27H26I2P2Pd | MND = 4
 OpenBabel04212202123D

 58 62  0  0  0  0  0  0  0  0999 V2000
    1.1088    3.5785    3.2227 Pd  0  0  0  0  0  0  0  0  0  0  0  0
    1.9040    2.2269    1.1440 I   0  0  0  0  0  0  0  0  0  0  0  0
    1.5313    5.9071    2.1632 I   0  0  0  0  0  0  0  0  0  0  0  0
    1.2229    1.6259    4.3001 P   0  0  0  0  0  4  0  0  0  0  0  0
    0.2262    0.2044    3.7894 C   0  0  0  0  0  0  0  0  0  0  0  0
    0.3802   -1.0588    4.3531 C   0  0  0  0  0  0  0  0  0  0  0  0
   -0.4375   -2.0951    3.9428 C   0  0  0  0  0  0  0  0  0  0  0  0
   -1.4202   -1.8754    2.9902 C   0  0  0  0  0  0  0  0  0  0  0  0
   -1.5966   -0.6123    2.4504 C   0  0  0  0  0  0  0  0  0  0  0  0
   -0.7755    0.4253    2.8497 C   0  0  0  0  0  0  0  0  0  0  0  0
    3.0031    1.2655    4.2673 C   0  0  0  0  0  0  0  0  0  0  0  0
    3.5902    0.0286    4.0458 C   0  0  0  0  0  0  0  0  0  0  0  0
    4.9707   -0.0693    3.9838 C   0  0  0  0  0  0  0  0  0  0  0  0
    5.7620    1.0560    4.1331 C   0  0  0  0  0  0  0  0  0  0  0  0
    5.1783    2.2990    4.3303 C   0  0  0  0  0  0  0  0  0  0  0  0
    3.8038    2.4052    4.3903 C   0  0  0  0  0  0  0  0  0  0  0  0
    0.9059    1.6631    6.1215 C   0  0  0  0  0  0  0  0  0  0  0  0
   -0.4549    2.2952    6.4170 C   0  0  0  0  0  0  0  0  0  0  0  0
   -0.3658    3.8173    6.4669 C   0  0  0  0  0  0  0  0  0  0  0  0
   -0.0898    4.6099    4.8152 P   0  0  0  0  0  4  0  0  0  0  0  0
   -1.7572    4.6598    4.0905 C   0  0  0  0  0  0  0  0  0  0  0  0
   -2.8691    5.1119    4.7978 C   0  0  0  0  0  0  0  0  0  0  0  0
   -4.1146    5.1170    4.1983 C   0  0  0  0  0  0  0  0  0  0  0  0
   -4.2649    4.6712    2.8943 C   0  0  0  0  0  0  0  0  0  0  0  0
   -3.1647    4.2237    2.1827 C   0  0  0  0  0  0  0  0  0  0  0  0
   -1.9153    4.2190    2.7764 C   0  0  0  0  0  0  0  0  0  0  0  0
    0.3155    6.2907    5.3625 C   0  0  0  0  0  0  0  0  0  0  0  0
   -0.4892    7.3979    5.1323 C   0  0  0  0  0  0  0  0  0  0  0  0
   -0.0633    8.6471    5.5485 C   0  0  0  0  0  0  0  0  0  0  0  0
    1.1610    8.7966    6.1770 C   0  0  0  0  0  0  0  0  0  0  0  0
    1.9770    7.6955    6.3847 C   0  0  0  0  0  0  0  0  0  0  0  0
    1.5571    6.4464    5.9745 C   0  0  0  0  0  0  0  0  0  0  0  0
    1.1327   -1.2336    5.1101 H   0  0  0  0  0  0  0  0  0  0  0  0
   -0.3084   -3.0791    4.3693 H   0  0  0  0  0  0  0  0  0  0  0  0
   -2.0518   -2.6912    2.6723 H   0  0  0  0  0  0  0  0  0  0  0  0
   -2.3678   -0.4371    1.7158 H   0  0  0  0  0  0  0  0  0  0  0  0
   -0.9033    1.4174    2.4243 H   0  0  0  0  0  0  0  0  0  0  0  0
    2.9783   -0.8462    3.8835 H   0  0  0  0  0  0  0  0  0  0  0  0
    5.4270   -1.0307    3.8009 H   0  0  0  0  0  0  0  0  0  0  0  0
    6.8364    0.9719    4.0725 H   0  0  0  0  0  0  0  0  0  0  0  0
    5.7940    3.1823    4.4145 H   0  0  0  0  0  0  0  0  0  0  0  0
    3.3368    3.3974    4.5060 H   0  0  0  0  0  0  0  0  0  0  0  0
    0.9446    0.6330    6.4891 H   0  0  0  0  0  0  0  0  0  0  0  0
    1.7088    2.2258    6.6115 H   0  0  0  0  0  0  0  0  0  0  0  0
   -0.8288    1.9309    7.3781 H   0  0  0  0  0  0  0  0  0  0  0  0
   -1.1771    1.9906    5.6466 H   0  0  0  0  0  0  0  0  0  0  0  0
    0.4563    4.1223    7.1240 H   0  0  0  0  0  0  0  0  0  0  0  0
   -1.2887    4.2394    6.8768 H   0  0  0  0  0  0  0  0  0  0  0  0
   -2.7606    5.4708    5.8126 H   0  0  0  0  0  0  0  0  0  0  0  0
   -4.9719    5.4741    4.7501 H   0  0  0  0  0  0  0  0  0  0  0  0
   -5.2404    4.6792    2.4319 H   0  0  0  0  0  0  0  0  0  0  0  0
   -3.2762    3.8851    1.1635 H   0  0  0  0  0  0  0  0  0  0  0  0
   -1.0464    3.8865    2.1887 H   0  0  0  0  0  0  0  0  0  0  0  0
   -1.4300    7.2900    4.6118 H   0  0  0  0  0  0  0  0  0  0  0  0
   -0.6869    9.5096    5.3667 H   0  0  0  0  0  0  0  0  0  0  0  0
    1.4905    9.7760    6.4896 H   0  0  0  0  0  0  0  0  0  0  0  0
    2.9432    7.8150    6.8520 H   0  0  0  0  0  0  0  0  0  0  0  0
    2.2038    5.5825    6.0996 H   0  0  0  0  0  0  0  0  0  0  0  0
  1  4  1  0  0  0  0
  1 20  1  0  0  0  0
  2  1  1  0  0  0  0
  3  1  1  0  0  0  0
  4 17  1  0  0  0  0
  5  4  1  0  0  0  0
  5  6  1  0  0  0  0
  6 33  1  0  0  0  0
  7  6  2  0  0  0  0
  7 34  1  0  0  0  0
  8  7  1  0  0  0  0
  9 10  1  0  0  0  0
  9  8  2  0  0  0  0
 10  5  2  0  0  0  0
 11  4  1  0  0  0  0
 11 16  1  0  0  0  0
 12 11  2  0  0  0  0
 13 12  1  0  0  0  0
 13 14  2  0  0  0  0
 14 15  1  0  0  0  0
 15 16  2  0  0  0  0
 15 41  1  0  0  0  0
 16 42  1  0  0  0  0
 17 18  1  0  0  0  0
 17 43  1  0  0  0  0
 17 44  1  0  0  0  0
 18 19  1  0  0  0  0
 18 45  1  0  0  0  0
 19 48  1  0  0  0  0
 19 47  1  0  0  0  0
 20 27  1  0  0  0  0
 20 19  1  0  0  0  0
 21 22  1  0  0  0  0
 21 20  1  0  0  0  0
 22 49  1  0  0  0  0
 23 50  1  0  0  0  0
 23 22  2  0  0  0  0
 24 23  1  0  0  0  0
 25 26  1  0  0  0  0
 25 24  2  0  0  0  0
 26 21  2  0  0  0  0
 27 32  1  0  0  0  0
 28 27  2  0  0  0  0
 28 29  1  0  0  0  0
 29 30  2  0  0  0  0
 30 31  1  0  0  0  0
 30 56  1  0  0  0  0
 31 57  1  0  0  0  0
 32 58  1  0  0  0  0
 32 31  2  0  0  0  0
 35  8  1  0  0  0  0
 36  9  1  0  0  0  0
 37 10  1  0  0  0  0
 38 12  1  0  0  0  0
 39 13  1  0  0  0  0
 40 14  1  0  0  0  0
 46 18  1  0  0  0  0
 51 24  1  0  0  0  0
 52 25  1  0  0  0  0
 53 26  1  0  0  0  0
 54 28  1  0  0  0  0
 55 29  1  0  0  0  0
M  END
$$$$
