CSD_code = YIJGEE | q = 0 | S = 0 | Stoichiometry = C16H16Br2NNiPS | MND = 4
 OpenBabel04212202123D

 38 41  0  0  1  0  0  0  0  0999 V2000
    1.0851    0.3342    2.8851 C   0  0  0  0  0  0  0  0  0  0  0  0
    1.7445   -0.8336    2.5147 C   0  0  0  0  0  0  0  0  0  0  0  0
    2.8142   -0.9159    2.6548 H   0  0  0  0  0  0  0  0  0  0  0  0
    1.0280   -1.8760    1.9586 C   0  0  0  0  0  0  0  0  0  0  0  0
    1.5376   -2.7834    1.6698 H   0  0  0  0  0  0  0  0  0  0  0  0
   -0.3409   -1.7584    1.7682 C   0  0  0  0  0  0  0  0  0  0  0  0
   -0.8947   -2.5764    1.3324 H   0  0  0  0  0  0  0  0  0  0  0  0
   -0.9989   -0.5943    2.1281 C   0  0  0  0  0  0  0  0  0  0  0  0
   -2.0626   -0.4985    1.9713 H   0  0  0  0  0  0  0  0  0  0  0  0
   -0.2855    0.4518    2.6842 C   0  0  0  0  0  0  0  0  0  0  0  0
   -0.7959    1.3772    2.9548 H   0  0  0  0  0  0  0  0  0  0  0  0
    3.4988    1.8009    2.6989 C   0  0  0  0  0  0  0  0  0  0  0  0
    4.7703    1.7549    3.2601 C   0  0  0  0  0  0  0  0  0  0  0  0
    4.9024    1.6422    4.3268 H   0  0  0  0  0  0  0  0  0  0  0  0
    5.8838    1.8525    2.4446 C   0  0  0  0  0  0  0  0  0  0  0  0
    6.8707    1.8106    2.8824 H   0  0  0  0  0  0  0  0  0  0  0  0
    5.7364    2.0084    1.0763 C   0  0  0  0  0  0  0  0  0  0  0  0
    6.6101    2.0868    0.4471 H   0  0  0  0  0  0  0  0  0  0  0  0
    4.4698    2.0730    0.5171 C   0  0  0  0  0  0  0  0  0  0  0  0
    4.3515    2.2073   -0.5473 H   0  0  0  0  0  0  0  0  0  0  0  0
    3.3525    1.9746    1.3230 C   0  0  0  0  0  0  0  0  0  0  0  0
    2.3612    2.0428    0.8958 H   0  0  0  0  0  0  0  0  0  0  0  0
    2.4421    0.9394    5.2957 C   0  0  0  0  0  0  0  0  0  0  0  0
    2.8282   -0.0793    5.2086 H   0  0  0  0  0  0  0  0  0  0  0  0
    3.1951    1.5650    5.7872 H   0  0  0  0  0  0  0  0  0  0  0  0
    1.1872    0.9831    6.0853 C   0  0  1  0  0  3  0  0  0  0  0  0
   -0.7090    0.5680    7.7248 C   0  0  0  0  0  0  0  0  0  0  0  0
   -1.4742   -0.1944    7.5873 H   0  0  0  0  0  0  0  0  0  0  0  0
   -0.7021    0.8842    8.7666 H   0  0  0  0  0  0  0  0  0  0  0  0
   -0.8723    1.7508    6.7529 C   0  0  0  0  0  0  0  0  0  0  0  0
   -0.9689    2.6986    7.2920 H   0  0  0  0  0  0  0  0  0  0  0  0
   -1.7716    1.6388    6.1390 H   0  0  0  0  0  0  0  0  0  0  0  0
    0.2698    1.8401    5.8786 N   0  0  2  0  0  0  0  0  0  0  0  0
    0.6591    4.2050    2.3524 Br  0  0  0  0  0  0  0  0  0  0  0  0
   -1.1712    4.4806    4.9652 Br  0  0  0  0  0  0  0  0  0  0  0  0
    0.4450    3.1269    4.2762 Ni  0  0  0  0  0  0  0  0  0  0  0  0
    1.9746    1.7141    3.6698 P   0  0  0  0  0  4  0  0  0  0  0  0
    0.9103   -0.1858    7.3529 S   0  0  0  0  0  0  0  0  0  0  0  0
  1 37  1  0  0  0  0
  2  3  1  0  0  0  0
  2  1  2  0  0  0  0
  4  2  1  0  0  0  0
  5  4  1  0  0  0  0
  6  4  2  0  0  0  0
  6  8  1  0  0  0  0
  7  6  1  0  0  0  0
  8 10  2  0  0  0  0
  9  8  1  0  0  0  0
 10  1  1  0  0  0  0
 10 11  1  0  0  0  0
 12 13  1  0  0  0  0
 12 37  1  0  0  0  0
 13 14  1  0  0  0  0
 15 16  1  0  0  0  0
 15 13  2  0  0  0  0
 17 15  1  0  0  0  0
 18 17  1  0  0  0  0
 19 17  2  0  0  0  0
 19 21  1  0  0  0  0
 20 19  1  0  0  0  0
 21 12  2  0  0  0  0
 22 21  1  0  0  0  0
 23 25  1  0  0  0  0
 23 26  1  0  0  0  0
 24 23  1  0  0  0  0
 26 38  1  6  0  0  0
 27 29  1  0  0  0  0
 28 27  1  0  0  0  0
 30 31  1  0  0  0  0
 30 27  1  0  0  0  0
 32 30  1  0  0  0  0
 33 26  1  0  0  0  0
 33 30  1  6  0  0  0
 34 36  1  0  0  0  0
 36 35  1  0  0  0  0
 36 33  1  0  0  0  0
 37 36  1  0  0  0  0
 37 23  1  0  0  0  0
 38 27  1  0  0  0  0
M  END
$$$$
