CSD_code = YIJJOR | q = 0 | S = 0 | Stoichiometry = C26H24AgClN2 | MND = 2
 OpenBabel04212202123D

 54 58  0  0  1  0  0  0  0  0999 V2000
    0.6042    2.2019    5.5216 Ag  0  0  0  0  0  0  0  0  0  0  0  0
    1.2487    3.2635    3.6652 Cl  0  0  0  0  0  0  0  0  0  0  0  0
    0.5497    0.0459    7.8119 N   0  0  0  0  0  0  0  0  0  0  0  0
   -1.1490    1.3818    7.9838 N   0  0  0  0  0  0  0  0  0  0  0  0
    2.3889   -2.9484    7.8580 C   0  0  0  0  0  0  0  0  0  0  0  0
    3.2844   -2.5961    8.9071 C   0  0  0  0  0  0  0  0  0  0  0  0
    3.4643   -1.5592    9.1455 H   0  0  0  0  0  0  0  0  0  0  0  0
    3.9455   -3.5373    9.6362 C   0  0  0  0  0  0  0  0  0  0  0  0
    4.6198   -3.2319   10.4227 H   0  0  0  0  0  0  0  0  0  0  0  0
    3.7662   -4.9106    9.3799 C   0  0  0  0  0  0  0  0  0  0  0  0
    4.3022   -5.6373    9.9713 H   0  0  0  0  0  0  0  0  0  0  0  0
    2.9211   -5.3000    8.3895 C   0  0  0  0  0  0  0  0  0  0  0  0
    2.7684   -6.3471    8.1716 H   0  0  0  0  0  0  0  0  0  0  0  0
    2.2158   -4.3492    7.6074 C   0  0  0  0  0  0  0  0  0  0  0  0
    1.3521   -4.7679    6.6035 C   0  0  0  0  0  0  0  0  0  0  0  0
    1.2140   -5.8267    6.4346 H   0  0  0  0  0  0  0  0  0  0  0  0
    0.6706   -3.8585    5.8050 C   0  0  0  0  0  0  0  0  0  0  0  0
   -0.1880   -4.3047    4.7678 C   0  0  0  0  0  0  0  0  0  0  0  0
   -0.3033   -5.3699    4.6274 H   0  0  0  0  0  0  0  0  0  0  0  0
   -0.8375   -3.4198    3.9659 C   0  0  0  0  0  0  0  0  0  0  0  0
   -1.4870   -3.7627    3.1745 H   0  0  0  0  0  0  0  0  0  0  0  0
   -0.6461   -2.0371    4.1572 C   0  0  0  0  0  0  0  0  0  0  0  0
   -1.1414   -1.3382    3.5001 H   0  0  0  0  0  0  0  0  0  0  0  0
    0.1618   -1.5724    5.1505 C   0  0  0  0  0  0  0  0  0  0  0  0
    0.2915   -0.4992    5.2386 H   0  0  0  0  0  0  0  0  0  0  0  0
    0.8454   -2.4552    6.0295 C   0  0  0  0  0  0  0  0  0  0  0  0
    1.6786   -2.0178    7.0761 C   0  0  0  0  0  0  0  0  0  0  0  0
    1.7911   -0.5346    7.3437 C   0  0  0  0  0  0  0  0  0  0  0  0
    2.5626   -0.3281    8.0871 H   0  0  0  0  0  0  0  0  0  0  0  0
    2.0729    0.0020    6.4263 H   0  0  0  0  0  0  0  0  0  0  0  0
   -0.1621   -0.3825    8.9096 C   0  0  0  0  0  0  0  0  0  0  0  0
    0.0287   -1.4096    9.8238 C   0  0  0  0  0  0  0  0  0  0  0  0
    0.8685   -2.0804    9.7564 H   0  0  0  0  0  0  0  0  0  0  0  0
   -0.9060   -1.5400   10.8322 C   0  0  0  0  0  0  0  0  0  0  0  0
   -0.7862   -2.3271   11.5606 H   0  0  0  0  0  0  0  0  0  0  0  0
   -1.9992   -0.6809   10.9371 C   0  0  0  0  0  0  0  0  0  0  0  0
   -2.7035   -0.8217   11.7425 H   0  0  0  0  0  0  0  0  0  0  0  0
   -2.1965    0.3466   10.0365 C   0  0  0  0  0  0  0  0  0  0  0  0
   -3.0404    1.0125   10.1239 H   0  0  0  0  0  0  0  0  0  0  0  0
   -1.2621    0.4869    9.0206 C   0  0  0  0  0  0  0  0  0  0  0  0
   -0.0435    1.1245    7.2541 C   0  0  2  0  0  3  0  0  0  0  0  0
   -2.0364    2.4913    7.7543 C   0  0  0  0  0  0  0  0  0  0  0  0
   -3.0585    2.1794    7.9852 H   0  0  0  0  0  0  0  0  0  0  0  0
   -1.9792    2.7551    6.6912 H   0  0  0  0  0  0  0  0  0  0  0  0
   -1.6417    3.7022    8.6022 C   0  0  0  0  0  0  0  0  0  0  0  0
   -1.6529    3.4252    9.6594 H   0  0  0  0  0  0  0  0  0  0  0  0
   -0.6202    3.9900    8.3392 H   0  0  0  0  0  0  0  0  0  0  0  0
   -2.5787    4.8832    8.3682 C   0  0  0  0  0  0  0  0  0  0  0  0
   -3.5990    4.5960    8.6337 H   0  0  0  0  0  0  0  0  0  0  0  0
   -2.5701    5.1419    7.3077 H   0  0  0  0  0  0  0  0  0  0  0  0
   -2.1619    6.0968    9.1891 C   0  0  0  0  0  0  0  0  0  0  0  0
   -2.1710    5.8633   10.2517 H   0  0  0  0  0  0  0  0  0  0  0  0
   -2.8419    6.9264    9.0139 H   0  0  0  0  0  0  0  0  0  0  0  0
   -1.1581    6.4128    8.9157 H   0  0  0  0  0  0  0  0  0  0  0  0
  2  1  1  0  0  0  0
  3 31  1  0  0  0  0
  4 40  1  0  0  0  0
  5  6  2  0  0  0  0
  6  7  1  0  0  0  0
  6  8  1  0  0  0  0
  8  9  1  0  0  0  0
 10  8  2  0  0  0  0
 10 11  1  0  0  0  0
 12 10  1  0  0  0  0
 13 12  1  0  0  0  0
 14  5  1  0  0  0  0
 14 12  2  0  0  0  0
 15 14  1  0  0  0  0
 16 15  1  0  0  0  0
 17 26  1  0  0  0  0
 17 15  2  0  0  0  0
 18 17  1  0  0  0  0
 19 18  1  0  0  0  0
 20 22  1  0  0  0  0
 20 18  2  0  0  0  0
 21 20  1  0  0  0  0
 22 24  2  0  0  0  0
 23 22  1  0  0  0  0
 24 25  1  0  0  0  0
 24 26  1  0  0  0  0
 26 27  2  0  0  0  0
 27 28  1  0  0  0  0
 27  5  1  0  0  0  0
 28  3  1  0  0  0  0
 28 29  1  0  0  0  0
 30 28  1  0  0  0  0
 31 40  2  0  0  0  0
 31 32  1  0  0  0  0
 32 34  2  0  0  0  0
 33 32  1  0  0  0  0
 34 36  1  0  0  0  0
 34 35  1  0  0  0  0
 36 37  1  0  0  0  0
 38 39  1  0  0  0  0
 38 36  2  0  0  0  0
 40 38  1  0  0  0  0
 41  1  1  6  0  0  0
 41  3  1  0  0  0  0
 41  4  1  0  0  0  0
 42  4  1  0  0  0  0
 42 43  1  0  0  0  0
 42 45  1  0  0  0  0
 44 42  1  0  0  0  0
 45 46  1  0  0  0  0
 47 45  1  0  0  0  0
 48 45  1  0  0  0  0
 48 49  1  0  0  0  0
 48 51  1  0  0  0  0
 50 48  1  0  0  0  0
 51 52  1  0  0  0  0
 53 51  1  0  0  0  0
 54 51  1  0  0  0  0
M  END
$$$$
