CSD_code = YIJQIT | q = 0 | S = 0 | Stoichiometry = C16H22Cl2FeN2S2 | MND = 6
 OpenBabel04212202123D

 45 48  0  0  0  0  0  0  0  0999 V2000
    8.1118    7.9606   -0.0001 Fe  0  0  0  0  0  0  0  0  0  0  0  0
    9.1565    7.3590    1.9794 S   0  0  2  0  0  3  0  0  0  0  0  0
    9.4150    6.4893   -1.0095 Cl  0  0  0  0  0  0  0  0  0  0  0  0
    6.8186    6.5848    0.4998 N   0  0  0  0  0  0  0  0  0  0  0  0
    5.5511    6.6072    0.0811 C   0  0  0  0  0  3  0  0  0  0  0  0
    5.2829    7.4171   -0.5787 H   0  0  0  0  0  0  0  0  0  0  0  0
    4.6024    5.6830    0.4691 C   0  0  0  0  0  0  0  0  0  0  0  0
    3.5958    5.7610    0.0916 H   0  0  0  0  0  0  0  0  0  0  0  0
    4.9654    4.6728    1.3466 C   0  0  0  0  0  0  0  0  0  0  0  0
    4.2540    3.9300    1.6720 H   0  0  0  0  0  0  0  0  0  0  0  0
    6.2711    4.6560    1.8078 C   0  0  0  0  0  0  0  0  0  0  0  0
    6.6045    3.9023    2.5046 H   0  0  0  0  0  0  0  0  0  0  0  0
    7.1660    5.6188    1.3676 C   0  0  0  0  0  0  0  0  0  0  0  0
    8.5744    5.6346    1.8563 C   0  0  0  0  0  0  0  0  0  0  0  0
    9.2331    5.1856    1.1085 H   0  0  0  0  0  0  0  0  0  0  0  0
    8.6946    5.1335    2.8164 H   0  0  0  0  0  0  0  0  0  0  0  0
    8.2257    7.8858    3.4667 C   0  0  0  0  0  0  0  0  0  0  0  0
    7.1634    7.8611    3.2281 H   0  0  0  0  0  0  0  0  0  0  0  0
    8.4582    7.1612    4.2487 H   0  0  0  0  0  0  0  0  0  0  0  0
    8.6514    9.2864    3.8594 C   0  0  0  0  0  0  0  0  0  0  0  0
    9.7275    9.3351    4.0119 H   0  0  0  0  0  0  0  0  0  0  0  0
    8.1505    9.5803    4.7789 H   0  0  0  0  0  0  0  0  0  0  0  0
    8.3693    9.9829    3.0740 H   0  0  0  0  0  0  0  0  0  0  0  0
    7.0669    8.5626   -1.9795 S   0  0  1  0  0  3  0  0  0  0  0  0
    6.8085    9.4319    1.0092 Cl  0  0  0  0  0  0  0  0  0  0  0  0
    9.4048    9.3368   -0.4996 N   0  0  0  0  0  0  0  0  0  0  0  0
   10.6723    9.3145   -0.0810 C   0  0  0  0  0  3  0  0  0  0  0  0
   10.9404    8.5045    0.5787 H   0  0  0  0  0  0  0  0  0  0  0  0
   11.6210   10.2385   -0.4690 C   0  0  0  0  0  0  0  0  0  0  0  0
   12.6276   10.1605   -0.0916 H   0  0  0  0  0  0  0  0  0  0  0  0
   11.2580   11.2487   -1.3465 C   0  0  0  0  0  0  0  0  0  0  0  0
   11.9695   11.9915   -1.6719 H   0  0  0  0  0  0  0  0  0  0  0  0
    9.9523   11.2656   -1.8077 C   0  0  0  0  0  0  0  0  0  0  0  0
    9.6189   12.0193   -2.5045 H   0  0  0  0  0  0  0  0  0  0  0  0
    9.0574   10.3028   -1.3676 C   0  0  0  0  0  0  0  0  0  0  0  0
    7.6491   10.2869   -1.8563 C   0  0  0  0  0  0  0  0  0  0  0  0
    6.9903   10.7361   -1.1087 H   0  0  0  0  0  0  0  0  0  0  0  0
    7.5290   10.7879   -2.8165 H   0  0  0  0  0  0  0  0  0  0  0  0
    7.9978    8.0357   -3.4667 C   0  0  0  0  0  0  0  0  0  0  0  0
    9.0600    8.0605   -3.2280 H   0  0  0  0  0  0  0  0  0  0  0  0
    7.7653    8.7603   -4.2487 H   0  0  0  0  0  0  0  0  0  0  0  0
    7.5721    6.6351   -3.8594 C   0  0  0  0  0  0  0  0  0  0  0  0
    6.4961    6.5864   -4.0120 H   0  0  0  0  0  0  0  0  0  0  0  0
    8.0731    6.3413   -4.7789 H   0  0  0  0  0  0  0  0  0  0  0  0
    7.8543    5.9386   -3.0741 H   0  0  0  0  0  0  0  0  0  0  0  0
  1  4  1  0  0  0  0
  1 25  1  0  0  0  0
  1  2  1  0  0  0  0
  2 17  1  1  0  0  0
  3  1  1  0  0  0  0
  4 13  1  0  0  0  0
  5  7  1  0  0  0  0
  5  4  1  0  0  0  0
  6  5  1  0  0  0  0
  7  9  2  0  0  0  0
  8  7  1  0  0  0  0
  9 10  1  0  0  0  0
  9 11  1  0  0  0  0
 11 12  1  0  0  0  0
 13 11  2  0  0  0  0
 13 14  1  0  0  0  0
 14  2  1  0  0  0  0
 14 16  1  0  0  0  0
 15 14  1  0  0  0  0
 17 20  1  0  0  0  0
 17 19  1  0  0  0  0
 18 17  1  0  0  0  0
 20 21  1  0  0  0  0
 20 22  1  0  0  0  0
 23 20  1  0  0  0  0
 24 39  1  6  0  0  0
 24 36  1  0  0  0  0
 24  1  1  0  0  0  0
 26 27  1  0  0  0  0
 26  1  1  0  0  0  0
 27 28  1  0  0  0  0
 29 30  1  0  0  0  0
 29 27  1  0  0  0  0
 31 29  2  0  0  0  0
 32 31  1  0  0  0  0
 33 35  2  0  0  0  0
 33 31  1  0  0  0  0
 34 33  1  0  0  0  0
 35 26  1  0  0  0  0
 36 35  1  0  0  0  0
 36 37  1  0  0  0  0
 38 36  1  0  0  0  0
 39 40  1  0  0  0  0
 41 39  1  0  0  0  0
 42 39  1  0  0  0  0
 42 45  1  0  0  0  0
 43 42  1  0  0  0  0
 44 42  1  0  0  0  0
M  END
$$$$
