CSD_code = YIJQOZ | q = 0 | S = 0 | Stoichiometry = C13H17Br2IN2Pt | MND = 6
 OpenBabel04212202123D

 36 37  0  0  0  0  0  0  0  0999 V2000
    0.2090   10.5062    6.7217 Pt  0  0  0  0  0  0  0  0  0  0  0  0
    1.3870   10.4129    4.2632 I   0  0  0  0  0  0  0  0  0  0  0  0
    2.4568   15.7785    5.1178 Br  0  0  0  0  0  0  0  0  0  0  0  0
    6.0673    9.3399    6.9776 Br  0  0  0  0  0  0  0  0  0  0  0  0
    1.4679   12.3662    7.1785 N   0  0  0  0  0  0  0  0  0  0  0  0
    1.9927    9.2263    7.4627 N   0  0  0  0  0  0  0  0  0  0  0  0
   -0.8857    8.8233    6.2813 C   0  0  0  0  0  0  0  0  0  0  0  0
   -1.5094    8.4748    7.1053 H   0  0  0  0  0  0  0  0  0  0  0  0
   -0.1736    8.0372    6.0135 H   0  0  0  0  0  0  0  0  0  0  0  0
   -1.5253    9.0074    5.4162 H   0  0  0  0  0  0  0  0  0  0  0  0
   -1.3948   11.6517    6.1332 C   0  0  0  0  0  0  0  0  0  0  0  0
   -1.4094   11.7178    5.0439 H   0  0  0  0  0  0  0  0  0  0  0  0
   -1.2791   12.6552    6.5516 H   0  0  0  0  0  0  0  0  0  0  0  0
   -2.3501   11.2485    6.4678 H   0  0  0  0  0  0  0  0  0  0  0  0
   -0.5857   10.5959    8.6280 C   0  0  0  0  0  0  0  0  0  0  0  0
   -1.5977   10.2059    8.7190 H   0  0  0  0  0  0  0  0  0  0  0  0
   -0.6033   11.6334    8.9671 H   0  0  0  0  0  0  0  0  0  0  0  0
    0.0545   10.0273    9.3074 H   0  0  0  0  0  0  0  0  0  0  0  0
    1.5517   13.3345    6.2765 C   0  0  0  0  0  3  0  0  0  0  0  0
    0.9357   13.2503    5.3913 H   0  0  0  0  0  0  0  0  0  0  0  0
    2.4069   14.4162    6.4375 C   0  0  0  0  0  0  0  0  0  0  0  0
    3.2136   14.4935    7.5633 C   0  0  0  0  0  0  0  0  0  0  0  0
    3.8952   15.3187    7.7000 H   0  0  0  0  0  0  0  0  0  0  0  0
    3.1103   13.4787    8.4999 C   0  0  0  0  0  0  0  0  0  0  0  0
    3.7128   13.4907    9.3943 H   0  0  0  0  0  0  0  0  0  0  0  0
    2.2205   12.4420    8.2715 C   0  0  0  0  0  0  0  0  0  0  0  0
    2.1110   11.6432    8.9927 H   0  0  0  0  0  0  0  0  0  0  0  0
    3.2321    9.5637    7.1381 C   0  0  0  0  0  3  0  0  0  0  0  0
    3.3845   10.4992    6.6178 H   0  0  0  0  0  0  0  0  0  0  0  0
    4.3186    8.7514    7.4265 C   0  0  0  0  0  0  0  0  0  0  0  0
    4.1164    7.5295    8.0501 C   0  0  0  0  0  0  0  0  0  0  0  0
    4.9464    6.8755    8.2684 H   0  0  0  0  0  0  0  0  0  0  0  0
    2.8162    7.1857    8.3789 C   0  0  0  0  0  0  0  0  0  0  0  0
    2.6014    6.2462    8.8625 H   0  0  0  0  0  0  0  0  0  0  0  0
    1.7890    8.0659    8.0783 C   0  0  0  0  0  0  0  0  0  0  0  0
    0.7659    7.8290    8.3352 H   0  0  0  0  0  0  0  0  0  0  0  0
  1  5  1  0  0  0  0
  1  6  1  0  0  0  0
  1 15  1  0  0  0  0
  2  1  1  0  0  0  0
  3 21  1  0  0  0  0
  4 30  1  0  0  0  0
  5 26  1  0  0  0  0
  6 35  1  0  0  0  0
  7  1  1  0  0  0  0
  7  8  1  0  0  0  0
  9  7  1  0  0  0  0
 10  7  1  0  0  0  0
 11 14  1  0  0  0  0
 11 13  1  0  0  0  0
 11  1  1  0  0  0  0
 12 11  1  0  0  0  0
 15 16  1  0  0  0  0
 15 17  1  0  0  0  0
 15 18  1  0  0  0  0
 19 21  1  0  0  0  0
 19  5  1  0  0  0  0
 20 19  1  0  0  0  0
 21 22  2  0  0  0  0
 22 23  1  0  0  0  0
 22 24  1  0  0  0  0
 24 25  1  0  0  0  0
 26 24  2  0  0  0  0
 26 27  1  0  0  0  0
 28 30  1  0  0  0  0
 28  6  1  0  0  0  0
 29 28  1  0  0  0  0
 30 31  2  0  0  0  0
 31 32  1  0  0  0  0
 31 33  1  0  0  0  0
 33 34  1  0  0  0  0
 35 36  1  0  0  0  0
 35 33  2  0  0  0  0
M  END
$$$$
