CSD_code = YIJWUL | q = 0 | S = 0 | Stoichiometry = C26H22Cl2NPPt | MND = 4
 OpenBabel04212202123D

 53 57  0  0  0  0  0  0  0  0999 V2000
    3.1523   -0.6528    2.3240 Pt  0  0  0  0  0  0  0  0  0  0  0  0
    5.1330   -1.6189    1.7030 Cl  0  0  0  0  0  0  0  0  0  0  0  0
    2.0760   -1.9233    0.8173 Cl  0  0  0  0  0  0  0  0  0  0  0  0
    1.1995    0.2056    3.0815 P   0  0  0  0  0  4  0  0  0  0  0  0
    4.0772    0.5614    3.5795 N   0  0  0  0  0  0  0  0  0  0  0  0
    5.2848    1.0590    3.0367 C   0  0  0  0  0  0  0  0  0  0  0  0
    5.1902    1.9236    1.9504 C   0  0  0  0  0  0  0  0  0  0  0  0
    4.2097    2.1834    1.5700 H   0  0  0  0  0  0  0  0  0  0  0  0
    6.3344    2.4427    1.3762 C   0  0  0  0  0  0  0  0  0  0  0  0
    6.2558    3.1109    0.5324 H   0  0  0  0  0  0  0  0  0  0  0  0
    7.5745    2.0903    1.8804 C   0  0  0  0  0  0  0  0  0  0  0  0
    8.4737    2.4821    1.4297 H   0  0  0  0  0  0  0  0  0  0  0  0
    7.6638    1.2174    2.9499 C   0  0  0  0  0  0  0  0  0  0  0  0
    8.6350    0.9262    3.3223 H   0  0  0  0  0  0  0  0  0  0  0  0
    6.5306    0.6888    3.5521 C   0  0  0  0  0  0  0  0  0  0  0  0
    6.6395   -0.3065    4.6666 C   0  0  0  0  0  0  0  0  0  0  0  0
    6.3787    0.1351    5.6288 H   0  0  0  0  0  0  0  0  0  0  0  0
    7.6555   -0.6864    4.7303 H   0  0  0  0  0  0  0  0  0  0  0  0
    5.9666   -1.1422    4.4772 H   0  0  0  0  0  0  0  0  0  0  0  0
    3.7394    0.9645    4.7554 C   0  0  0  0  0  3  0  0  0  0  0  0
    4.4335    1.6192    5.2850 H   0  0  0  0  0  0  0  0  0  0  0  0
    2.5324    0.6525    5.4896 C   0  0  0  0  0  0  0  0  0  0  0  0
    2.5793    0.7738    6.8835 C   0  0  0  0  0  0  0  0  0  0  0  0
    3.5065    1.0726    7.3513 H   0  0  0  0  0  0  0  0  0  0  0  0
    1.4772    0.4946    7.6651 C   0  0  0  0  0  0  0  0  0  0  0  0
    1.5437    0.5782    8.7392 H   0  0  0  0  0  0  0  0  0  0  0  0
    0.2850    0.1108    7.0687 C   0  0  0  0  0  0  0  0  0  0  0  0
   -0.5815   -0.1062    7.6747 H   0  0  0  0  0  0  0  0  0  0  0  0
    0.2052    0.0192    5.6906 C   0  0  0  0  0  0  0  0  0  0  0  0
   -0.7278   -0.2606    5.2217 H   0  0  0  0  0  0  0  0  0  0  0  0
    1.3111    0.2835    4.8911 C   0  0  0  0  0  0  0  0  0  0  0  0
    0.9700    1.9360    2.5806 C   0  0  0  0  0  0  0  0  0  0  0  0
    0.5097    2.9348    3.4304 C   0  0  0  0  0  0  0  0  0  0  0  0
    0.2510    2.6971    4.4532 H   0  0  0  0  0  0  0  0  0  0  0  0
    0.3863    4.2302    2.9583 C   0  0  0  0  0  0  0  0  0  0  0  0
    0.0299    5.0088    3.6167 H   0  0  0  0  0  0  0  0  0  0  0  0
    0.7182    4.5301    1.6468 C   0  0  0  0  0  0  0  0  0  0  0  0
    0.6200    5.5431    1.2861 H   0  0  0  0  0  0  0  0  0  0  0  0
    1.1786    3.5350    0.7975 C   0  0  0  0  0  0  0  0  0  0  0  0
    1.4388    3.7717   -0.2234 H   0  0  0  0  0  0  0  0  0  0  0  0
    1.3091    2.2405    1.2638 C   0  0  0  0  0  0  0  0  0  0  0  0
    1.6725    1.4452    0.6206 H   0  0  0  0  0  0  0  0  0  0  0  0
   -0.3789   -0.6074    2.7425 C   0  0  0  0  0  0  0  0  0  0  0  0
   -0.4400   -1.9793    2.9795 C   0  0  0  0  0  0  0  0  0  0  0  0
    0.4366   -2.4886    3.3583 H   0  0  0  0  0  0  0  0  0  0  0  0
   -1.6031   -2.6729    2.7098 C   0  0  0  0  0  0  0  0  0  0  0  0
   -1.6507   -3.7367    2.8873 H   0  0  0  0  0  0  0  0  0  0  0  0
   -2.7041   -2.0036    2.1962 C   0  0  0  0  0  0  0  0  0  0  0  0
   -3.6108   -2.5477    1.9769 H   0  0  0  0  0  0  0  0  0  0  0  0
   -2.6413   -0.6418    1.9526 C   0  0  0  0  0  0  0  0  0  0  0  0
   -3.4979   -0.1250    1.5455 H   0  0  0  0  0  0  0  0  0  0  0  0
   -1.4795    0.0616    2.2210 C   0  0  0  0  0  0  0  0  0  0  0  0
   -1.4261    1.1232    2.0235 H   0  0  0  0  0  0  0  0  0  0  0  0
  1  4  1  0  0  0  0
  1  5  1  0  0  0  0
  2  1  1  0  0  0  0
  3  1  1  0  0  0  0
  4 31  1  0  0  0  0
  5 20  1  0  0  0  0
  6 15  1  0  0  0  0
  6  5  1  0  0  0  0
  7  6  2  0  0  0  0
  8  7  1  0  0  0  0
  9 11  2  0  0  0  0
  9  7  1  0  0  0  0
 10  9  1  0  0  0  0
 11 13  1  0  0  0  0
 12 11  1  0  0  0  0
 13 14  1  0  0  0  0
 13 15  2  0  0  0  0
 15 16  1  0  0  0  0
 16 18  1  0  0  0  0
 16 17  1  0  0  0  0
 19 16  1  0  0  0  0
 20 21  1  0  0  0  0
 20 22  1  0  0  0  0
 22 23  1  0  0  0  0
 23 24  1  0  0  0  0
 23 25  2  0  0  0  0
 25 26  1  0  0  0  0
 27 25  1  0  0  0  0
 27 28  1  0  0  0  0
 29 27  2  0  0  0  0
 30 29  1  0  0  0  0
 31 22  2  0  0  0  0
 31 29  1  0  0  0  0
 32  4  1  0  0  0  0
 32 33  1  0  0  0  0
 33 34  1  0  0  0  0
 35 33  2  0  0  0  0
 35 36  1  0  0  0  0
 37 35  1  0  0  0  0
 38 37  1  0  0  0  0
 39 41  1  0  0  0  0
 39 37  2  0  0  0  0
 40 39  1  0  0  0  0
 41 32  2  0  0  0  0
 42 41  1  0  0  0  0
 43 44  1  0  0  0  0
 43  4  1  0  0  0  0
 44 45  1  0  0  0  0
 46 47  1  0  0  0  0
 46 44  2  0  0  0  0
 48 46  1  0  0  0  0
 49 48  1  0  0  0  0
 50 48  2  0  0  0  0
 50 52  1  0  0  0  0
 51 50  1  0  0  0  0
 52 43  2  0  0  0  0
 53 52  1  0  0  0  0
M  END
$$$$
