CSD_code = YIJZOH | q = 0 | S = 0 | Stoichiometry = C9H5ClMnNO4 | MND = 6
 OpenBabel04212202123D

 21 22  0  0  0  0  0  0  0  0999 V2000
    5.9989    6.3729    7.9063 Mn  0  0  0  0  0  0  0  0  0  0  0  0
    8.1174    6.9470    8.4560 Cl  0  0  0  0  0  0  0  0  0  0  0  0
    6.9397    4.7078    7.0832 N   0  0  0  0  0  0  0  0  0  0  0  0
    4.3800    5.9418    7.2851 C   0  0  0  0  0  2  0  0  0  0  0  0
    3.3328    5.6548    6.9119 O   0  0  0  0  0  1  0  0  0  0  0  0
    5.3937    7.7593    8.8681 C   0  0  0  0  0  2  0  0  0  0  0  0
    5.0862    8.6533    9.5070 O   0  0  0  0  0  1  0  0  0  0  0  0
    6.4935    7.4791    6.5719 C   0  0  0  0  0  2  0  0  0  0  0  0
    6.9410    8.1993    5.8029 O   0  0  0  0  0  1  0  0  0  0  0  0
    5.9985    5.2137    9.3940 O   0  0  0  0  0  0  0  0  0  0  0  0
    7.4039    4.4883    5.8597 C   0  0  0  0  0  3  0  0  0  0  0  0
    7.0979    5.1863    5.0912 H   0  0  0  0  0  0  0  0  0  0  0  0
    8.2434    3.4285    5.5560 C   0  0  0  0  0  0  0  0  0  0  0  0
    8.5981    3.3002    4.5462 H   0  0  0  0  0  0  0  0  0  0  0  0
    8.6240    2.5493    6.5643 C   0  0  0  0  0  0  0  0  0  0  0  0
    9.2863    1.7238    6.3538 H   0  0  0  0  0  0  0  0  0  0  0  0
    8.1369    2.7564    7.8385 C   0  0  0  0  0  0  0  0  0  0  0  0
    8.3994    2.1089    8.6603 H   0  0  0  0  0  0  0  0  0  0  0  0
    7.2966    3.8482    8.0633 C   0  0  0  0  0  0  0  0  0  0  0  0
    6.6967    4.2008    9.3323 C   0  0  0  0  0  3  0  0  0  0  0  0
    6.8386    3.5641   10.2122 H   0  0  0  0  0  0  0  0  0  0  0  0
  1  2  1  0  0  0  0
  1  6  1  0  0  0  0
  1 10  1  0  0  0  0
  3  1  1  0  0  0  0
  3 19  1  0  0  0  0
  4  1  1  0  0  0  0
  5  4  1  0  0  0  0
  6  7  1  0  0  0  0
  8  1  1  0  0  0  0
  9  8  1  0  0  0  0
 11  3  1  0  0  0  0
 12 11  1  0  0  0  0
 13 11  1  0  0  0  0
 13 15  2  0  0  0  0
 14 13  1  0  0  0  0
 15 17  1  0  0  0  0
 16 15  1  0  0  0  0
 17 19  2  0  0  0  0
 17 18  1  0  0  0  0
 19 20  1  0  0  0  0
 20 10  1  0  0  0  0
 20 21  1  0  0  0  0
M  END
$$$$
