CSD_code = YIKBEA | q = 0 | S = 0 | Stoichiometry = C13H12BrMnN2O5 | MND = 6
 OpenBabel04212202123D

 34 35  0  0  0  0  0  0  0  0999 V2000
   -3.5824    0.9887   10.8053 Mn  0  0  0  0  0  0  0  0  0  0  0  0
   -4.5372   -1.1643   10.0657 Br  0  0  0  0  0  0  0  0  0  0  0  0
   -2.8625    1.2081    8.9135 N   0  0  0  0  0  0  0  0  0  0  0  0
   -1.8723   -0.0198   10.9612 N   0  0  0  0  0  0  0  0  0  0  0  0
   -2.9282    2.5731   11.2962 C   0  0  0  0  0  2  0  0  0  0  0  0
   -2.5585    3.6158   11.5893 O   0  0  0  0  0  1  0  0  0  0  0  0
   -5.1833    1.7139   10.4751 C   0  0  0  0  0  2  0  0  0  0  0  0
   -6.2335    2.1408   10.2936 O   0  0  0  0  0  1  0  0  0  0  0  0
   -4.1094    0.6751   12.4815 C   0  0  0  0  0  2  0  0  0  0  0  0
   -4.4677    0.4958   13.5576 O   0  0  0  0  0  1  0  0  0  0  0  0
   -1.4190   -0.7444   12.1132 C   0  0  0  0  0  0  0  0  0  0  0  0
   -0.4630   -1.2567   11.9365 H   0  0  0  0  0  0  0  0  0  0  0  0
   -2.1689   -1.5015   12.3797 H   0  0  0  0  0  0  0  0  0  0  0  0
   -1.2585    0.1780   13.3222 C   0  0  0  0  0  0  0  0  0  0  0  0
   -0.8368   -0.5106   14.3701 O   0  0  0  0  0  0  0  0  0  0  0  0
   -1.4749    1.3604   13.2994 O   0  0  0  0  0  0  0  0  0  0  0  0
   -0.7205    0.1976   15.6140 C   0  0  0  0  0  0  0  0  0  0  0  0
    0.0095   -0.3719   16.1919 H   0  0  0  0  0  0  0  0  0  0  0  0
   -0.3399    1.2036   15.4125 H   0  0  0  0  0  0  0  0  0  0  0  0
   -2.0621    0.2661   16.3258 C   0  0  0  0  0  0  0  0  0  0  0  0
   -2.4515   -0.7350   16.4932 H   0  0  0  0  0  0  0  0  0  0  0  0
   -2.7765    0.8253   15.7263 H   0  0  0  0  0  0  0  0  0  0  0  0
   -1.9400    0.7648   17.2827 H   0  0  0  0  0  0  0  0  0  0  0  0
   -3.4182    1.8221    7.8708 C   0  0  0  0  0  3  0  0  0  0  0  0
   -4.3585    2.3295    8.0463 H   0  0  0  0  0  0  0  0  0  0  0  0
   -2.8552    1.8231    6.6075 C   0  0  0  0  0  0  0  0  0  0  0  0
   -3.3569    2.3314    5.8002 H   0  0  0  0  0  0  0  0  0  0  0  0
   -1.6511    1.1597    6.3975 C   0  0  0  0  0  0  0  0  0  0  0  0
   -1.1931    1.1413    5.4209 H   0  0  0  0  0  0  0  0  0  0  0  0
   -1.0610    0.5208    7.4675 C   0  0  0  0  0  0  0  0  0  0  0  0
   -0.1306   -0.0152    7.3624 H   0  0  0  0  0  0  0  0  0  0  0  0
   -1.6926    0.5618    8.7124 C   0  0  0  0  0  0  0  0  0  0  0  0
   -1.1843   -0.1048    9.8793 C   0  0  0  0  0  3  0  0  0  0  0  0
   -0.2728   -0.6967    9.8104 H   0  0  0  0  0  0  0  0  0  0  0  0
  1  4  1  0  0  0  0
  1  5  1  0  0  0  0
  1  9  1  0  0  0  0
  2  1  1  0  0  0  0
  3  1  1  0  0  0  0
  4 11  1  0  0  0  0
  5  6  1  0  0  0  0
  7  1  1  0  0  0  0
  8  7  1  0  0  0  0
  9 10  1  0  0  0  0
 11 13  1  0  0  0  0
 11 14  1  0  0  0  0
 12 11  1  0  0  0  0
 14 15  1  0  0  0  0
 15 17  1  0  0  0  0
 16 14  2  0  0  0  0
 17 18  1  0  0  0  0
 17 20  1  0  0  0  0
 19 17  1  0  0  0  0
 20 21  1  0  0  0  0
 20 23  1  0  0  0  0
 22 20  1  0  0  0  0
 24 25  1  0  0  0  0
 24  3  1  0  0  0  0
 26 24  1  0  0  0  0
 27 26  1  0  0  0  0
 28 26  2  0  0  0  0
 28 30  1  0  0  0  0
 29 28  1  0  0  0  0
 30 32  2  0  0  0  0
 31 30  1  0  0  0  0
 32  3  1  0  0  0  0
 32 33  1  0  0  0  0
 33  4  1  0  0  0  0
 34 33  1  0  0  0  0
M  END
$$$$
