CSD_code = YILBOL | q = 1 | S = 0 | Stoichiometry = C26H22ClN4Ru(1+) | MND = 9
 OpenBabel04212202123D

 54 58  0  0  1  0  0  0  0  0999 V2000
   13.7586    8.0785   13.1977 C   0  0  0  0  0  3  0  0  0  0  0  0
   13.4768    8.1708   12.1556 H   0  0  0  0  0  0  0  0  0  0  0  0
   14.8014    8.8151   13.7262 C   0  0  0  0  0  0  0  0  0  0  0  0
   15.3725    9.4728   13.0922 H   0  0  0  0  0  0  0  0  0  0  0  0
   15.0711    8.7083   15.0852 C   0  0  0  0  0  0  0  0  0  0  0  0
   15.8601    9.2901   15.5342 H   0  0  0  0  0  0  0  0  0  0  0  0
   14.2947    7.8697   15.8622 C   0  0  0  0  0  0  0  0  0  0  0  0
   14.4516    7.8009   16.9239 H   0  0  0  0  0  0  0  0  0  0  0  0
   13.2801    7.1275   15.2594 C   0  0  0  0  0  0  0  0  0  0  0  0
   12.2696    6.3294   15.9374 C   0  0  0  0  0  0  0  0  0  0  0  0
   12.2777    5.8293   17.2754 C   0  0  0  0  0  0  0  0  0  0  0  0
   13.5120    5.6546   18.0544 C   0  0  0  0  0  0  0  0  0  0  0  0
   13.4592    5.6010   19.4460 C   0  0  0  0  0  0  0  0  0  0  0  0
   12.5188    5.7528   19.9492 H   0  0  0  0  0  0  0  0  0  0  0  0
   14.6319    5.3519   20.1398 C   0  0  0  0  0  0  0  0  0  0  0  0
   14.6307    5.3088   21.2183 H   0  0  0  0  0  0  0  0  0  0  0  0
   15.8028    5.1531   19.4250 C   0  0  0  0  0  0  0  0  0  0  0  0
   16.7357    4.9497   19.9253 H   0  0  0  0  0  0  0  0  0  0  0  0
   15.7460    5.2190   18.0384 C   0  0  0  0  0  0  0  0  0  0  0  0
   16.6287    5.0654   17.4322 H   0  0  0  0  0  0  0  0  0  0  0  0
   10.0325    5.7450   15.7458 C   0  0  1  0  0  3  0  0  0  0  0  0
   10.0365    5.3912   17.1314 C   0  0  0  0  0  0  0  0  0  0  0  0
    8.8275    5.0099   17.7338 C   0  0  0  0  0  0  0  0  0  0  0  0
    8.8561    4.7367   18.7767 H   0  0  0  0  0  0  0  0  0  0  0  0
    7.6472    5.0011   17.0310 C   0  0  0  0  0  0  0  0  0  0  0  0
    7.6392    5.3973   15.6635 C   0  0  0  0  0  0  0  0  0  0  0  0
    8.8169    5.7421   15.0448 C   0  0  0  0  0  0  0  0  0  0  0  0
    8.8124    6.1036   14.0234 H   0  0  0  0  0  0  0  0  0  0  0  0
    6.3745    4.6041   17.6981 C   0  0  0  0  0  0  0  0  0  0  0  0
    6.5532    4.3066   18.7269 H   0  0  0  0  0  0  0  0  0  0  0  0
    5.9057    3.7753   17.1700 H   0  0  0  0  0  0  0  0  0  0  0  0
    5.6689    5.4338   17.6940 H   0  0  0  0  0  0  0  0  0  0  0  0
    6.3530    5.4523   14.9101 C   0  0  0  0  0  0  0  0  0  0  0  0
    6.5099    5.8165   13.8990 H   0  0  0  0  0  0  0  0  0  0  0  0
    5.6488    6.1150   15.4100 H   0  0  0  0  0  0  0  0  0  0  0  0
    5.8933    4.4659   14.8624 H   0  0  0  0  0  0  0  0  0  0  0  0
   11.7550    3.9910   12.8826 C   0  0  0  0  0  3  0  0  0  0  0  0
   12.0295    3.2065   13.5788 H   0  0  0  0  0  0  0  0  0  0  0  0
   12.7504    4.6800   12.1717 C   0  0  1  0  0  0  0  0  0  0  0  0
   13.7945    4.4255   12.3171 H   0  0  0  0  0  0  0  0  0  0  0  0
   12.3861    5.6205   11.1728 C   0  0  0  0  0  0  0  0  0  0  0  0
   13.1537    6.0738   10.5561 H   0  0  0  0  0  0  0  0  0  0  0  0
   11.0377    5.8974   10.9358 C   0  0  0  0  0  0  0  0  0  0  0  0
   10.7507    6.5904   10.1522 H   0  0  0  0  0  0  0  0  0  0  0  0
   10.0294    5.1813   11.6374 C   0  0  0  0  0  0  0  0  0  0  0  0
    8.9890    5.3319   11.3735 H   0  0  0  0  0  0  0  0  0  0  0  0
   10.3868    4.2243   12.5869 C   0  0  0  0  0  0  0  0  0  0  0  0
    9.6262    3.6191   13.0663 H   0  0  0  0  0  0  0  0  0  0  0  0
   10.4040    8.3220   13.2189 Cl  0  0  0  0  0 15  0  0  0  0  0  0
   13.0278    7.2514   13.9370 N   0  0  0  0  0  0  0  0  0  0  0  0
   11.1880    6.1369   15.1689 N   0  0  0  0  0  0  0  0  0  0  0  0
   11.1805    5.3737   17.8262 N   0  0  0  0  0  0  0  0  0  0  0  0
   14.6381    5.4658   17.3668 N   0  0  0  0  0  0  0  0  0  0  0  0
   11.4826    6.2576   13.2236 Ru  0  0  0  0  0  0  0  0  0  0  0  0
  1  3  1  0  0  0  0
  1 50  1  0  0  0  0
  2  1  1  0  0  0  0
  3  5  2  0  0  0  0
  4  3  1  0  0  0  0
  5  6  1  0  0  0  0
  5  7  1  0  0  0  0
  7  8  1  0  0  0  0
  9  7  2  0  0  0  0
  9 10  1  0  0  0  0
 10 11  2  0  0  0  0
 11 52  1  0  0  0  0
 11 12  1  0  0  0  0
 12 13  1  0  0  0  0
 13 14  1  0  0  0  0
 13 15  2  0  0  0  0
 15 16  1  0  0  0  0
 17 18  1  0  0  0  0
 17 15  1  0  0  0  0
 19 17  2  0  0  0  0
 20 19  1  0  0  0  0
 21 27  1  1  0  0  0
 21 22  1  0  0  0  0
 22 23  1  0  0  0  0
 22 52  2  0  0  0  0
 23 24  1  0  0  0  0
 25 29  1  0  0  0  0
 25 23  2  0  0  0  0
 26 25  1  0  0  0  0
 27 26  2  0  0  0  0
 28 27  1  0  0  0  0
 29 30  1  0  0  0  0
 31 29  1  0  0  0  0
 32 29  1  0  0  0  0
 33 35  1  0  0  0  0
 33 26  1  0  0  0  0
 34 33  1  0  0  0  0
 36 33  1  0  0  0  0
 37 38  1  0  0  0  0
 39 40  1  1  0  0  0
 39 37  1  0  0  0  0
 39 54  1  0  0  0  0
 41 39  1  0  0  0  0
 42 41  1  0  0  0  0
 43 41  2  0  0  0  0
 43 45  1  0  0  0  0
 44 43  1  0  0  0  0
 45 47  2  0  0  0  0
 46 45  1  0  0  0  0
 47 37  1  0  0  0  0
 47 48  1  0  0  0  0
 50  9  1  0  0  0  0
 51 21  1  0  0  0  0
 51 10  1  0  0  0  0
 53 19  1  0  0  0  0
 53 12  2  0  0  0  0
 54 50  1  0  0  0  0
 54 51  1  0  0  0  0
M  END
$$$$
