CSD_code = YILNUF | q = 0 | S = 0 | Stoichiometry = C17H15ClN3O4Rh | MND = 6
 OpenBabel04212202123D

 41 44  0  0  0  0  0  0  0  0999 V2000
    6.3028    6.8743    1.9468 Rh  0  0  0  0  0  0  0  0  0  0  0  0
    8.0766    5.5980    1.2518 Cl  0  0  0  0  0  0  0  0  0  0  0  0
    6.0415    5.8786    3.6542 O   0  0  0  0  0  0  0  0  0  0  0  0
    4.7203    7.9295    2.6823 O   0  0  0  0  0  0  0  0  0  0  0  0
    5.0697    6.2996    4.4083 C   0  0  0  0  0  0  0  0  0  0  0  0
    4.2893    7.5169    3.8357 C   0  0  0  0  0  0  0  0  0  0  0  0
    4.7882    5.7914    5.4717 O   0  0  0  0  0  0  0  0  0  0  0  0
    3.3603    8.0309    4.4208 O   0  0  0  0  0  0  0  0  0  0  0  0
    4.9899    5.5772    1.1495 N   0  0  0  0  0  0  0  0  0  0  0  0
    5.1516    4.2786    1.4131 C   0  0  0  0  0  3  0  0  0  0  0  0
    6.0882    3.9839    1.8688 H   0  0  0  0  0  0  0  0  0  0  0  0
    4.1772    3.3377    1.1299 C   0  0  0  0  0  0  0  0  0  0  0  0
    4.3537    2.3017    1.3697 H   0  0  0  0  0  0  0  0  0  0  0  0
    2.9858    3.7493    0.5571 C   0  0  0  0  0  0  0  0  0  0  0  0
    2.2007    3.0421    0.3381 H   0  0  0  0  0  0  0  0  0  0  0  0
    2.8247    5.0976    0.2781 C   0  0  0  0  0  0  0  0  0  0  0  0
    1.9153    5.4716   -0.1645 H   0  0  0  0  0  0  0  0  0  0  0  0
    3.8457    5.9757    0.5903 C   0  0  0  0  0  0  0  0  0  0  0  0
    3.7318    7.0347    0.4002 H   0  0  0  0  0  0  0  0  0  0  0  0
    6.4307    8.0095    0.2208 N   0  0  0  0  0  0  0  0  0  0  0  0
    7.3140    7.8144   -0.7597 C   0  0  0  0  0  3  0  0  0  0  0  0
    8.0139    6.9999   -0.6213 H   0  0  0  0  0  0  0  0  0  0  0  0
    7.3515    8.5992   -1.8997 C   0  0  0  0  0  0  0  0  0  0  0  0
    8.0883    8.3944   -2.6598 H   0  0  0  0  0  0  0  0  0  0  0  0
    6.4415    9.6329   -2.0427 C   0  0  0  0  0  0  0  0  0  0  0  0
    6.4456   10.2619   -2.9198 H   0  0  0  0  0  0  0  0  0  0  0  0
    5.5233    9.8361   -1.0242 C   0  0  0  0  0  0  0  0  0  0  0  0
    4.7911   10.6258   -1.0819 H   0  0  0  0  0  0  0  0  0  0  0  0
    5.5509    9.0081    0.0831 C   0  0  0  0  0  0  0  0  0  0  0  0
    4.8420    9.1461    0.8910 H   0  0  0  0  0  0  0  0  0  0  0  0
    7.5189    8.0833    2.9980 N   0  0  0  0  0  0  0  0  0  0  0  0
    8.4196    7.5180    3.8052 C   0  0  0  0  0  3  0  0  0  0  0  0
    8.5783    6.4530    3.6933 H   0  0  0  0  0  0  0  0  0  0  0  0
    9.1244    8.2409    4.7515 C   0  0  0  0  0  0  0  0  0  0  0  0
    9.8356    7.7354    5.3847 H   0  0  0  0  0  0  0  0  0  0  0  0
    8.8900    9.5997    4.8769 C   0  0  0  0  0  0  0  0  0  0  0  0
    9.4123   10.1881    5.6155 H   0  0  0  0  0  0  0  0  0  0  0  0
    7.9593   10.1844    4.0320 C   0  0  0  0  0  0  0  0  0  0  0  0
    7.7365   11.2378    4.0901 H   0  0  0  0  0  0  0  0  0  0  0  0
    7.2967    9.3941    3.1114 C   0  0  0  0  0  0  0  0  0  0  0  0
    6.5519    9.8269    2.4568 H   0  0  0  0  0  0  0  0  0  0  0  0
  1  4  1  0  0  0  0
  1 31  1  0  0  0  0
  1  3  1  0  0  0  0
  2  1  1  0  0  0  0
  3  5  1  0  0  0  0
  4  6  1  0  0  0  0
  5  7  2  0  0  0  0
  6  5  1  0  0  0  0
  6  8  2  0  0  0  0
  9 10  1  0  0  0  0
  9  1  1  0  0  0  0
 10 11  1  0  0  0  0
 12 13  1  0  0  0  0
 12 10  1  0  0  0  0
 14 12  2  0  0  0  0
 15 14  1  0  0  0  0
 16 14  1  0  0  0  0
 16 18  2  0  0  0  0
 17 16  1  0  0  0  0
 18  9  1  0  0  0  0
 19 18  1  0  0  0  0
 20  1  1  0  0  0  0
 21 22  1  0  0  0  0
 21 20  1  0  0  0  0
 23 21  1  0  0  0  0
 24 23  1  0  0  0  0
 25 23  2  0  0  0  0
 25 27  1  0  0  0  0
 26 25  1  0  0  0  0
 27 29  2  0  0  0  0
 28 27  1  0  0  0  0
 29 20  1  0  0  0  0
 29 30  1  0  0  0  0
 31 40  1  0  0  0  0
 31 32  1  0  0  0  0
 32 34  1  0  0  0  0
 33 32  1  0  0  0  0
 34 36  2  0  0  0  0
 34 35  1  0  0  0  0
 36 37  1  0  0  0  0
 38 39  1  0  0  0  0
 38 36  1  0  0  0  0
 40 38  2  0  0  0  0
 41 40  1  0  0  0  0
M  END
$$$$
