CSD_code = YILQES | q = 1 | S = 0 | Stoichiometry = C22H17ClN3O2Ru(1+) | MND = 9
 OpenBabel04212202123D

 46 49  0  0  1  0  0  0  0  0999 V2000
    8.5566    9.1646    8.1453 Ru  0  0  0  0  0  0  0  0  0  0  0  0
    7.0412   10.9085    8.2503 Cl  0  0  0  0  0 15  0  0  0  0  0  0
   12.5695   11.1919   14.2400 O   0  0  0  0  0  0  0  0  0  0  0  0
   12.1801   12.9630   13.0810 O   0  0  0  0  0  0  0  0  0  0  0  0
   12.0248   11.7963   13.3486 N   0  0  0  0  0  0  0  0  0  0  0  0
    8.4862    8.9266   10.0804 N   0  0  0  0  0  0  0  0  0  0  0  0
    6.9523    7.9759    8.3499 N   0  0  0  0  0  0  0  0  0  0  0  0
    9.9878    7.7537    7.0147 C   0  0  0  0  0  3  0  0  0  0  0  0
    9.9832    6.6696    6.9836 H   0  0  0  0  0  0  0  0  0  0  0  0
    9.4486    8.4882    5.9292 C   0  0  0  0  0  0  0  0  0  0  0  0
    9.0187    7.9580    5.0880 H   0  0  0  0  0  0  0  0  0  0  0  0
    9.5093    9.8782    5.9305 C   0  0  0  0  0  0  0  0  0  0  0  0
    9.1153   10.4472    5.0967 H   0  0  0  0  0  0  0  0  0  0  0  0
   10.1803   10.5600    6.9825 C   0  0  0  0  0  0  0  0  0  0  0  0
   10.2799   11.6385    6.9370 H   0  0  0  0  0  0  0  0  0  0  0  0
   10.8328    9.8366    7.9799 C   0  0  0  0  0  0  0  0  0  0  0  0
   11.4665   10.3439    8.6971 H   0  0  0  0  0  0  0  0  0  0  0  0
   10.7037    8.4268    8.0252 C   0  0  1  0  0  0  0  0  0  0  0  0
   11.2561    7.8592    8.7674 H   0  0  0  0  0  0  0  0  0  0  0  0
   11.0996   11.0456   12.5113 C   0  0  0  0  0  0  0  0  0  0  0  0
   10.9524    9.6804   12.7182 C   0  0  0  0  0  0  0  0  0  0  0  0
   11.5215    9.2009   13.5005 H   0  0  0  0  0  0  0  0  0  0  0  0
   10.0811    8.9651   11.9215 C   0  0  0  0  0  0  0  0  0  0  0  0
    9.9651    7.9007   12.0598 H   0  0  0  0  0  0  0  0  0  0  0  0
    9.3666    9.6192   10.9136 C   0  0  0  0  0  0  0  0  0  0  0  0
    9.5233   10.9949   10.7156 C   0  0  0  0  0  0  0  0  0  0  0  0
    8.9321   11.4892    9.9554 H   0  0  0  0  0  0  0  0  0  0  0  0
   10.3859   11.7096   11.5210 C   0  0  0  0  0  0  0  0  0  0  0  0
   10.5160   12.7747   11.4007 H   0  0  0  0  0  0  0  0  0  0  0  0
    7.6223    8.0807   10.5590 C   0  0  0  0  0  3  0  0  0  0  0  0
    7.5314    7.8788   11.6197 H   0  0  0  0  0  0  0  0  0  0  0  0
    6.7417    7.5079    9.5923 C   0  0  0  0  0  0  0  0  0  0  0  0
    5.7238    6.5752    9.8850 C   0  0  0  0  0  0  0  0  0  0  0  0
    5.6137    6.2244   10.8979 H   0  0  0  0  0  0  0  0  0  0  0  0
    4.9136    6.1397    8.8774 C   0  0  0  0  0  0  0  0  0  0  0  0
    4.1436    5.4059    9.0576 H   0  0  0  0  0  0  0  0  0  0  0  0
    5.0549    6.6899    7.5832 C   0  0  0  0  0  0  0  0  0  0  0  0
    4.1975    6.3520    6.5196 C   0  0  0  0  0  3  0  0  0  0  0  0
    3.4330    5.6100    6.6908 H   0  0  0  0  0  0  0  0  0  0  0  0
    4.3140    6.9700    5.3031 C   0  0  0  0  0  0  0  0  0  0  0  0
    3.6477    6.7120    4.4952 H   0  0  0  0  0  0  0  0  0  0  0  0
    5.2790    7.9700    5.1103 C   0  0  0  0  0  0  0  0  0  0  0  0
    5.3225    8.4885    4.1651 H   0  0  0  0  0  0  0  0  0  0  0  0
    6.1506    8.3015    6.1130 C   0  0  0  0  0  0  0  0  0  0  0  0
    6.8570    9.1113    5.9856 H   0  0  0  0  0  0  0  0  0  0  0  0
    6.0839    7.6540    7.3622 C   0  0  0  0  0  0  0  0  0  0  0  0
  1  7  1  0  0  0  0
  1  6  1  0  0  0  0
  4  5  2  0  0  0  0
  5  3  2  0  0  0  0
  6 30  1  0  0  0  0
  6 25  1  0  0  0  0
  7 32  1  0  0  0  0
  8 18  1  0  0  0  0
  9  8  1  0  0  0  0
 10 12  2  0  0  0  0
 10  8  1  0  0  0  0
 11 10  1  0  0  0  0
 12 14  1  0  0  0  0
 13 12  1  0  0  0  0
 14 16  2  0  0  0  0
 15 14  1  0  0  0  0
 16 18  1  0  0  0  0
 16 17  1  0  0  0  0
 18  1  1  0  0  0  0
 18 19  1  1  0  0  0
 20 21  1  0  0  0  0
 20  5  1  0  0  0  0
 21 22  1  0  0  0  0
 23 24  1  0  0  0  0
 23 21  2  0  0  0  0
 25 23  1  0  0  0  0
 26 25  2  0  0  0  0
 26 28  1  0  0  0  0
 27 26  1  0  0  0  0
 28 20  2  0  0  0  0
 29 28  1  0  0  0  0
 30 31  1  0  0  0  0
 32 33  2  0  0  0  0
 32 30  1  0  0  0  0
 33 34  1  0  0  0  0
 35 36  1  0  0  0  0
 35 33  1  0  0  0  0
 37 35  2  0  0  0  0
 38 39  1  0  0  0  0
 38 37  1  0  0  0  0
 40 38  1  0  0  0  0
 41 40  1  0  0  0  0
 42 40  2  0  0  0  0
 42 44  1  0  0  0  0
 43 42  1  0  0  0  0
 44 46  2  0  0  0  0
 45 44  1  0  0  0  0
 46 37  1  0  0  0  0
 46  7  1  0  0  0  0
M  END
$$$$
