CSD_code = YILQAO | q = 1 | S = 0 | Stoichiometry = C22H22BrClN3O2Ru(1+) | MND = 9
 OpenBabel04212202123D

 52 55  0  0  1  0  0  0  0  0999 V2000
    4.4664    7.2535    3.0852 Ru  0  0  2  0  0  0  0  0  0  0  0  0
    3.4033    6.8833    5.1005 Cl  0  0  0  0  0  0  0  0  0  0  0  0
   -1.3356    8.5114   -0.1662 N   0  0  0  0  0  0  0  0  0  0  0  0
   -1.9864    9.2360    0.5462 O   0  0  0  0  0  0  0  0  0  0  0  0
   -1.5590    8.2657   -1.3264 O   0  0  0  0  0  0  0  0  0  0  0  0
    5.1201    9.5655    3.9644 C   0  0  0  0  0  0  0  0  0  0  0  0
    6.2732    9.0181    3.3994 C   0  0  0  0  0  0  0  0  0  0  0  0
    7.2074    9.0608    3.9445 H   0  0  0  0  0  0  0  0  0  0  0  0
    6.2540    8.4425    2.1083 C   0  0  0  0  0  3  0  0  0  0  0  0
    7.1804    8.0534    1.7010 H   0  0  0  0  0  0  0  0  0  0  0  0
    5.1225    8.5671    1.2737 C   0  0  2  0  0  0  0  0  0  0  0  0
    3.9701    9.1787    1.8282 C   0  0  0  0  0  0  0  0  0  0  0  0
    3.1145    9.3720    1.1895 H   0  0  0  0  0  0  0  0  0  0  0  0
    3.9388    9.5821    3.1654 C   0  0  0  0  0  0  0  0  0  0  0  0
    3.0498   10.0628    3.5598 H   0  0  0  0  0  0  0  0  0  0  0  0
    5.1077   10.1521    5.3342 C   0  0  0  0  0  0  0  0  0  0  0  0
    6.1012   10.1490    5.7740 H   0  0  0  0  0  0  0  0  0  0  0  0
    4.4429    9.5742    5.9784 H   0  0  0  0  0  0  0  0  0  0  0  0
    4.7286   11.1728    5.3053 H   0  0  0  0  0  0  0  0  0  0  0  0
    5.1670    8.1814   -0.1854 C   0  0  0  0  0  0  0  0  0  0  0  0
    4.1388    8.1659   -0.5661 H   0  0  0  0  0  0  0  0  0  0  0  0
    5.7815    6.7939   -0.3877 C   0  0  0  0  0  0  0  0  0  0  0  0
    6.8547    6.8091   -0.2164 H   0  0  0  0  0  0  0  0  0  0  0  0
    5.6149    6.4623   -1.4087 H   0  0  0  0  0  0  0  0  0  0  0  0
    5.3303    6.0667    0.2920 H   0  0  0  0  0  0  0  0  0  0  0  0
    5.9516    9.2446   -0.9627 C   0  0  0  0  0  0  0  0  0  0  0  0
    5.4937   10.2235   -0.8443 H   0  0  0  0  0  0  0  0  0  0  0  0
    5.9603    8.9948   -2.0197 H   0  0  0  0  0  0  0  0  0  0  0  0
    6.9795    9.2993   -0.6129 H   0  0  0  0  0  0  0  0  0  0  0  0
   -0.1633    7.8827    0.4273 C   0  0  0  0  0  0  0  0  0  0  0  0
    0.1138    8.0940    1.7725 C   0  0  0  0  0  0  0  0  0  0  0  0
   -0.5556    8.7046    2.3596 H   0  0  0  0  0  0  0  0  0  0  0  0
    1.2357    7.5151    2.3291 C   0  0  0  0  0  0  0  0  0  0  0  0
    1.4660    7.6387    3.3789 H   0  0  0  0  0  0  0  0  0  0  0  0
    2.0687    6.7171    1.5391 C   0  0  0  0  0  0  0  0  0  0  0  0
    3.1998    6.1481    2.1323 N   0  0  0  0  0  0  0  0  0  0  0  0
    1.7678    6.4935    0.1934 C   0  0  0  0  0  0  0  0  0  0  0  0
    2.4175    5.8745   -0.4069 H   0  0  0  0  0  0  0  0  0  0  0  0
    0.6519    7.0852   -0.3647 C   0  0  0  0  0  0  0  0  0  0  0  0
    0.3975    6.9384   -1.4036 H   0  0  0  0  0  0  0  0  0  0  0  0
    3.4113    4.8645    2.0536 C   0  0  0  0  0  0  0  0  0  0  0  0
    2.7354    4.1952    1.5361 H   0  0  0  0  0  0  0  0  0  0  0  0
    4.5455    4.3953    2.7765 C   0  0  0  0  0  0  0  0  0  0  0  0
    4.9055    3.0526    2.9227 C   0  0  0  0  0  0  0  0  0  0  0  0
    4.3370    2.2968    2.4061 H   0  0  0  0  0  0  0  0  0  0  0  0
    5.9636    2.7261    3.7452 C   0  0  0  0  0  0  0  0  0  0  0  0
    6.2686    1.7012    3.8803 H   0  0  0  0  0  0  0  0  0  0  0  0
    6.6131    3.7459    4.4317 C   0  0  0  0  0  0  0  0  0  0  0  0
    7.4159    3.5389    5.1207 H   0  0  0  0  0  0  0  0  0  0  0  0
    6.2013    5.0525    4.2337 C   0  0  0  0  0  0  0  0  0  0  0  0
    7.0148    6.4215    5.2357 Br  0  0  0  0  0  0  0  0  0  0  0  0
    5.2287    5.4047    3.3930 N   0  0  0  0  0  0  0  0  0  0  0  0
  1 52  1  0  0  0  0
  1  2  1  1  0  0  0
  3 30  1  0  0  0  0
  3  4  2  0  0  0  0
  5  3  2  0  0  0  0
  6 16  1  0  0  0  0
  7  8  1  0  0  0  0
  7  6  2  0  0  0  0
  9  7  1  0  0  0  0
 10  9  1  0  0  0  0
 11 20  1  6  0  0  0
 11 12  1  0  0  0  0
 11  9  1  0  0  0  0
 11  1  1  0  0  0  0
 12 14  2  0  0  0  0
 13 12  1  0  0  0  0
 14 15  1  0  0  0  0
 14  6  1  0  0  0  0
 16 17  1  0  0  0  0
 16 18  1  0  0  0  0
 19 16  1  0  0  0  0
 21 20  1  0  0  0  0
 22 23  1  0  0  0  0
 22 20  1  0  0  0  0
 22 25  1  0  0  0  0
 24 22  1  0  0  0  0
 26 27  1  0  0  0  0
 26 29  1  0  0  0  0
 26 20  1  0  0  0  0
 28 26  1  0  0  0  0
 30 31  1  0  0  0  0
 31 33  2  0  0  0  0
 31 32  1  0  0  0  0
 33 34  1  0  0  0  0
 35 36  1  0  0  0  0
 35 33  1  0  0  0  0
 36  1  1  0  0  0  0
 37 35  2  0  0  0  0
 38 37  1  0  0  0  0
 39 37  1  0  0  0  0
 39 30  2  0  0  0  0
 40 39  1  0  0  0  0
 41 36  1  0  0  0  0
 41 43  2  0  0  0  0
 42 41  1  0  0  0  0
 43 44  1  0  0  0  0
 43 52  1  0  0  0  0
 44 46  2  0  0  0  0
 45 44  1  0  0  0  0
 46 47  1  0  0  0  0
 46 48  1  0  0  0  0
 48 49  1  0  0  0  0
 50 48  2  0  0  0  0
 50 51  1  0  0  0  0
 52 50  1  0  0  0  0
M  END
$$$$
