CSD_code = YILRIV | q = 0 | S = 0 | Stoichiometry = C15H17BrF5PPd | MND = 5
 OpenBabel04212202123D

 40 39  0  0  1  0  0  0  0  0999 V2000
   -0.6156    9.6343    8.9548 Pd  0  0  0  0  0  0  0  0  0  0  0  0
   -1.6105   10.6967   10.4846 C   0  0  0  0  0  3  0  0  0  0  0  0
   -1.6021   11.7849   10.5411 H   0  0  0  0  0  0  0  0  0  0  0  0
   -2.5455   10.0738    9.6527 C   0  0  2  0  0  0  0  0  0  0  0  0
   -3.1511   10.6622    8.9628 H   0  0  0  0  0  0  0  0  0  0  0  0
   -2.4279    8.6814    9.4933 C   0  0  0  0  0  3  0  0  0  0  0  0
   -3.0825    8.1892    8.7751 H   0  0  0  0  0  0  0  0  0  0  0  0
   -2.0574    7.8012   10.6671 C   0  0  0  0  0  0  0  0  0  0  0  0
   -1.3327    7.0488   10.3323 H   0  0  0  0  0  0  0  0  0  0  0  0
   -2.9507    7.2411   10.9676 H   0  0  0  0  0  0  0  0  0  0  0  0
   -1.5274    8.5496   11.9219 C   0  0  2  0  0  0  0  0  0  0  0  0
   -2.3437    8.5780   12.6475 H   0  0  0  0  0  0  0  0  0  0  0  0
   -1.0541   10.0134   11.7120 C   0  0  0  0  0  0  0  0  0  0  0  0
    0.0436   10.0687   11.6716 H   0  0  0  0  0  0  0  0  0  0  0  0
   -1.3471   10.5907   12.5957 H   0  0  0  0  0  0  0  0  0  0  0  0
    0.2775    8.3958    7.2723 P   0  0  0  0  0  0  0  0  0  0  0  0
    1.2636   11.1504    8.8895 Br  0  0  0  0  0 15  0  0  0  0  0  0
    0.3345    9.4134    5.7526 C   0  0  0  0  0  0  0  0  0  0  0  0
    0.7685    8.8509    4.9263 H   0  0  0  0  0  0  0  0  0  0  0  0
    0.9383   10.2992    5.9534 H   0  0  0  0  0  0  0  0  0  0  0  0
   -0.6763    9.7313    5.4912 H   0  0  0  0  0  0  0  0  0  0  0  0
   -0.5043    6.8489    6.6556 C   0  0  0  0  0  0  0  0  0  0  0  0
   -1.5317    7.0526    6.3574 H   0  0  0  0  0  0  0  0  0  0  0  0
   -0.5114    6.0998    7.4460 H   0  0  0  0  0  0  0  0  0  0  0  0
    0.0504    6.4636    5.8013 H   0  0  0  0  0  0  0  0  0  0  0  0
    2.0231    7.8821    7.4417 C   0  0  0  0  0  0  0  0  0  0  0  0
    2.3850    7.4739    6.4986 H   0  0  0  0  0  0  0  0  0  0  0  0
    2.1151    7.1317    8.2251 H   0  0  0  0  0  0  0  0  0  0  0  0
    2.6164    8.7518    7.7217 H   0  0  0  0  0  0  0  0  0  0  0  0
   -0.3881    7.7611   12.5168 C   0  0  0  0  0  0  0  0  0  0  0  0
   -0.4336    7.2117   13.7924 C   0  0  0  0  0  0  0  0  0  0  0  0
    0.6315    6.4848   14.3184 C   0  0  0  0  0  0  0  0  0  0  0  0
    1.7788    6.2892   13.5562 C   0  0  0  0  0  0  0  0  0  0  0  0
    1.8522    6.8291   12.2740 C   0  0  0  0  0  0  0  0  0  0  0  0
    0.7781    7.5575   11.7810 C   0  0  0  0  0  0  0  0  0  0  0  0
   -1.5301    7.3762   14.5402 F   0  0  0  0  0  0  0  0  0  0  0  0
    0.5513    5.9693   15.5450 F   0  0  0  0  0  0  0  0  0  0  0  0
    2.7971    5.5844   14.0458 F   0  0  0  0  0  0  0  0  0  0  0  0
    2.9364    6.6356   11.5238 F   0  0  0  0  0  0  0  0  0  0  0  0
    0.8612    8.0773   10.5373 F   0  0  0  0  0  0  0  0  0  0  0  0
  1  4  1  0  0  0  0
  2  3  1  0  0  0  0
  2 13  1  0  0  0  0
  4  5  1  6  0  0  0
  4  2  1  0  0  0  0
  6  4  1  0  0  0  0
  6  8  1  0  0  0  0
  7  6  1  0  0  0  0
  8 10  1  0  0  0  0
  8 11  1  0  0  0  0
  9  8  1  0  0  0  0
 11 30  1  0  0  0  0
 11 12  1  1  0  0  0
 13 11  1  0  0  0  0
 13 15  1  0  0  0  0
 14 13  1  0  0  0  0
 16 26  1  0  0  0  0
 18 20  1  0  0  0  0
 18 16  1  0  0  0  0
 19 18  1  0  0  0  0
 21 18  1  0  0  0  0
 22 16  1  0  0  0  0
 22 24  1  0  0  0  0
 23 22  1  0  0  0  0
 25 22  1  0  0  0  0
 26 29  1  0  0  0  0
 26 28  1  0  0  0  0
 27 26  1  0  0  0  0
 30 31  1  0  0  0  0
 31 32  2  0  0  0  0
 31 36  1  0  0  0  0
 32 37  1  0  0  0  0
 33 38  1  0  0  0  0
 33 32  1  0  0  0  0
 34 33  2  0  0  0  0
 35 34  1  0  0  0  0
 35 30  2  0  0  0  0
 39 34  1  0  0  0  0
 40 35  1  0  0  0  0
M  END
$$$$
