CSD_code = YILXOH | q = 0 | S = 0 | Stoichiometry = C11H16Cl2N2OZn | MND = 4
 OpenBabel04212202123D

 33 34  0  0  1  0  0  0  0  0999 V2000
    3.1971    3.6376    3.8432 Zn  0  0  0  0  0  0  0  0  0  0  0  0
    1.7568    3.8849    2.2090 Cl  0  0  0  0  0  0  0  0  0  0  0  0
    3.3691    3.5853    6.0424 Cl  0  0  0  0  0  0  0  0  0  0  0  0
    4.4550    2.1879    3.1056 O   0  0  0  0  0  0  0  0  0  0  0  0
    4.5575    5.3101    3.4719 N   0  0  0  0  0  0  0  0  0  0  0  0
    6.4743    3.1521    2.9178 N   0  0  0  0  0  0  0  0  0  0  0  0
    7.2633    3.3436    2.3208 H   0  0  0  0  0  0  0  0  0  0  0  0
    4.0058    6.4834    3.1877 C   0  0  0  0  0  3  0  0  0  0  0  0
    2.9950    6.4457    2.8059 H   0  0  0  0  0  0  0  0  0  0  0  0
    4.6733    7.6843    3.3580 C   0  0  0  0  0  0  0  0  0  0  0  0
    4.1841    8.6150    3.1208 H   0  0  0  0  0  0  0  0  0  0  0  0
    5.9691    7.6571    3.8475 C   0  0  0  0  0  0  0  0  0  0  0  0
    6.5196    8.5719    4.0078 H   0  0  0  0  0  0  0  0  0  0  0  0
    6.5515    6.4298    4.1203 C   0  0  0  0  0  0  0  0  0  0  0  0
    7.5623    6.3678    4.4928 H   0  0  0  0  0  0  0  0  0  0  0  0
    5.8124    5.2715    3.9206 C   0  0  0  0  0  0  0  0  0  0  0  0
    6.3902    3.9013    4.1595 C   0  0  0  0  0  0  0  0  0  0  0  0
    7.3866    3.9721    4.5982 H   0  0  0  0  0  0  0  0  0  0  0  0
    5.7284    3.3603    4.8450 H   0  0  0  0  0  0  0  0  0  0  0  0
    5.4775    2.3882    2.4524 C   0  0  2  0  0  3  0  0  0  0  0  0
    5.6306    1.8014    1.0524 C   0  0  0  0  0  0  0  0  0  0  0  0
    7.0860    1.6391    0.6080 C   0  0  0  0  0  0  0  0  0  0  0  0
    7.6637    1.0894    1.3483 H   0  0  0  0  0  0  0  0  0  0  0  0
    7.5662    2.5974    0.4147 H   0  0  0  0  0  0  0  0  0  0  0  0
    7.1094    1.0753   -0.3218 H   0  0  0  0  0  0  0  0  0  0  0  0
    4.9195    0.4465    1.0135 C   0  0  0  0  0  0  0  0  0  0  0  0
    5.4492   -0.2796    1.6260 H   0  0  0  0  0  0  0  0  0  0  0  0
    4.8726    0.0773   -0.0075 H   0  0  0  0  0  0  0  0  0  0  0  0
    3.9083    0.5476    1.3968 H   0  0  0  0  0  0  0  0  0  0  0  0
    4.8992    2.7953    0.1349 C   0  0  0  0  0  0  0  0  0  0  0  0
    3.8668    2.9160    0.4552 H   0  0  0  0  0  0  0  0  0  0  0  0
    4.9059    2.4262   -0.8876 H   0  0  0  0  0  0  0  0  0  0  0  0
    5.3807    3.7720    0.1553 H   0  0  0  0  0  0  0  0  0  0  0  0
  1  3  1  0  0  0  0
  2  1  1  0  0  0  0
  4  1  1  0  0  0  0
  5  1  1  0  0  0  0
  5 16  1  0  0  0  0
  6 17  1  0  0  0  0
  7  6  1  0  0  0  0
  8 10  1  0  0  0  0
  8  5  1  0  0  0  0
  9  8  1  0  0  0  0
 10 12  2  0  0  0  0
 11 10  1  0  0  0  0
 12 13  1  0  0  0  0
 12 14  1  0  0  0  0
 14 15  1  0  0  0  0
 16 14  2  0  0  0  0
 16 17  1  0  0  0  0
 17 18  1  0  0  0  0
 17 19  1  0  0  0  0
 20 21  1  6  0  0  0
 20  6  1  0  0  0  0
 20  4  1  0  0  0  0
 22 21  1  0  0  0  0
 22 23  1  0  0  0  0
 24 22  1  0  0  0  0
 25 22  1  0  0  0  0
 26 21  1  0  0  0  0
 26 29  1  0  0  0  0
 26 27  1  0  0  0  0
 28 26  1  0  0  0  0
 30 33  1  0  0  0  0
 30 31  1  0  0  0  0
 30 21  1  0  0  0  0
 32 30  1  0  0  0  0
M  END
$$$$
