CSD_code = YIMDAZ | q = 0 | S = 0 | Stoichiometry = C12H24BrCuN4S2 | MND = 3
 OpenBabel04212202123D

 44 45  0  0  1  0  0  0  0  0999 V2000
    1.6290    5.2588    5.9472 Br  0  0  0  0  0  0  0  0  0  0  0  0
    1.5789    3.6043    7.5870 Cu  0  0  0  0  0  0  0  0  0  0  0  0
    0.0191    3.6060    9.3030 S   0  0  0  0  0  0  0  0  0  0  0  0
   -2.0509    5.2281    9.7442 N   0  0  0  0  0  0  0  0  0  0  0  0
   -1.1402    5.4777    7.7585 N   0  0  0  0  0  0  0  0  0  0  0  0
   -1.0764    4.8094    8.9157 C   0  0  2  0  0  3  0  0  0  0  0  0
   -2.8846    6.2303    9.1033 C   0  0  0  0  0  0  0  0  0  0  0  0
   -2.1348    6.5263    7.7941 C   0  0  0  0  0  0  0  0  0  0  0  0
   -2.3850    4.6056   11.0055 C   0  0  0  0  0  0  0  0  0  0  0  0
   -3.6379    3.7380   10.8795 C   0  0  0  0  0  0  0  0  0  0  0  0
   -2.5392    5.6555   12.1028 C   0  0  0  0  0  0  0  0  0  0  0  0
    3.0652    1.8241    7.6118 S   0  0  0  0  0  0  0  0  0  0  0  0
    5.0872    1.2432    5.9724 N   0  0  0  0  0  0  0  0  0  0  0  0
    4.2510    3.2519    5.6662 N   0  0  0  0  0  0  0  0  0  0  0  0
    4.1534    2.1234    6.3766 C   0  0  2  0  0  3  0  0  0  0  0  0
    5.9173    1.8063    4.9220 C   0  0  0  0  0  0  0  0  0  0  0  0
    5.2285    3.1445    4.6067 C   0  0  0  0  0  0  0  0  0  0  0  0
    5.3461   -0.0372    6.5905 C   0  0  0  0  0  0  0  0  0  0  0  0
    6.7010   -0.0461    7.2978 C   0  0  0  0  0  0  0  0  0  0  0  0
    5.2442   -1.1647    5.5649 C   0  0  0  0  0  0  0  0  0  0  0  0
   -0.3875    5.4760    7.0747 H   0  0  0  0  0  0  0  0  0  0  0  0
   -3.8865    5.8298    8.9138 H   0  0  0  0  0  0  0  0  0  0  0  0
   -2.9752    7.1156    9.7369 H   0  0  0  0  0  0  0  0  0  0  0  0
   -2.7800    6.4671    6.9144 H   0  0  0  0  0  0  0  0  0  0  0  0
   -1.6554    7.5114    7.8065 H   0  0  0  0  0  0  0  0  0  0  0  0
   -1.5320    3.9609   11.2425 H   0  0  0  0  0  0  0  0  0  0  0  0
   -3.7912    3.1822   11.7999 H   0  0  0  0  0  0  0  0  0  0  0  0
   -4.5194    4.3488   10.6961 H   0  0  0  0  0  0  0  0  0  0  0  0
   -3.5212    3.0289   10.0636 H   0  0  0  0  0  0  0  0  0  0  0  0
   -3.4298    6.2595   11.9438 H   0  0  0  0  0  0  0  0  0  0  0  0
   -2.6290    5.1620   13.0662 H   0  0  0  0  0  0  0  0  0  0  0  0
   -1.6687    6.3063   12.1289 H   0  0  0  0  0  0  0  0  0  0  0  0
    3.5408    3.9796    5.6723 H   0  0  0  0  0  0  0  0  0  0  0  0
    6.9407    1.9540    5.2831 H   0  0  0  0  0  0  0  0  0  0  0  0
    5.9443    1.1407    4.0559 H   0  0  0  0  0  0  0  0  0  0  0  0
    5.9178    3.9917    4.6396 H   0  0  0  0  0  0  0  0  0  0  0  0
    4.7360    3.1370    3.6282 H   0  0  0  0  0  0  0  0  0  0  0  0
    4.5546   -0.1606    7.3372 H   0  0  0  0  0  0  0  0  0  0  0  0
    6.8065   -0.9630    7.8703 H   0  0  0  0  0  0  0  0  0  0  0  0
    7.5167    0.0056    6.5798 H   0  0  0  0  0  0  0  0  0  0  0  0
    6.7746    0.7968    7.9806 H   0  0  0  0  0  0  0  0  0  0  0  0
    6.0630   -1.1182    4.8502 H   0  0  0  0  0  0  0  0  0  0  0  0
    5.2886   -2.1235    6.0733 H   0  0  0  0  0  0  0  0  0  0  0  0
    4.3009   -1.1023    5.0281 H   0  0  0  0  0  0  0  0  0  0  0  0
  1  2  1  0  0  0  0
  2 12  1  0  0  0  0
  2  3  1  0  0  0  0
  4  9  1  0  0  0  0
  5  8  1  0  0  0  0
  5  6  1  0  0  0  0
  6  3  1  6  0  0  0
  6  4  1  0  0  0  0
  7 23  1  0  0  0  0
  7  4  1  0  0  0  0
  8 25  1  0  0  0  0
  8  7  1  0  0  0  0
  9 26  1  0  0  0  0
  9 11  1  0  0  0  0
 10  9  1  0  0  0  0
 10 27  1  0  0  0  0
 11 32  1  0  0  0  0
 11 31  1  0  0  0  0
 13 15  1  0  0  0  0
 13 18  1  0  0  0  0
 14 33  1  0  0  0  0
 14 15  1  0  0  0  0
 15 12  1  1  0  0  0
 16 34  1  0  0  0  0
 16 13  1  0  0  0  0
 17 36  1  0  0  0  0
 17 16  1  0  0  0  0
 17 14  1  0  0  0  0
 18 19  1  0  0  0  0
 18 38  1  0  0  0  0
 19 39  1  0  0  0  0
 19 41  1  0  0  0  0
 20 43  1  0  0  0  0
 20 18  1  0  0  0  0
 21  5  1  0  0  0  0
 22  7  1  0  0  0  0
 24  8  1  0  0  0  0
 28 10  1  0  0  0  0
 29 10  1  0  0  0  0
 30 11  1  0  0  0  0
 35 16  1  0  0  0  0
 37 17  1  0  0  0  0
 40 19  1  0  0  0  0
 42 20  1  0  0  0  0
 44 20  1  0  0  0  0
M  END
$$$$
