CSD_code = YIMLIP | q = 0 | S = 0 | Stoichiometry = C5H7ClCuNS | MND = 2
 OpenBabel04212202123D

 16 16  0  0  1  0  0  0  0  0999 V2000
    3.7817    4.3334    0.5722 Cu  0  0  0  0  0  0  0  0  0  0  0  0
    5.9772    1.9960    0.5367 S   0  0  0  0  0  0  0  0  0  0  0  0
    1.8959    5.1577    0.5584 Cl  0  0  0  0  0  0  0  0  0  0  0  0
    6.6949    4.3827    0.6470 N   0  0  0  0  0  0  0  0  0  0  0  0
    5.5614    3.6696    0.5908 C   0  0  2  0  0  3  0  0  0  0  0  0
    7.8792    3.6767    0.6497 C   0  0  0  0  0  0  0  0  0  0  0  0
    7.6686    2.3448    0.5932 C   0  0  0  0  0  0  0  0  0  0  0  0
    6.6888    5.8237    0.7032 C   0  0  0  0  0  0  0  0  0  0  0  0
    9.1921    4.3721    0.7095 C   0  0  0  0  0  0  0  0  0  0  0  0
    8.3937    1.5587    0.5814 H   0  0  0  0  0  0  0  0  0  0  0  0
    7.2129    6.2388   -0.1586 H   0  0  0  0  0  0  0  0  0  0  0  0
    7.1740    6.1691    1.6169 H   0  0  0  0  0  0  0  0  0  0  0  0
    5.6547    6.1685    0.6938 H   0  0  0  0  0  0  0  0  0  0  0  0
    9.9940    3.6402    0.6972 H   0  0  0  0  0  0  0  0  0  0  0  0
    9.2747    4.9645    1.6198 H   0  0  0  0  0  0  0  0  0  0  0  0
    9.3156    5.0393   -0.1425 H   0  0  0  0  0  0  0  0  0  0  0  0
  2  5  1  0  0  0  0
  2  7  1  0  0  0  0
  3  1  1  0  0  0  0
  4  6  1  0  0  0  0
  4  8  1  0  0  0  0
  5  1  1  1  0  0  0
  5  4  1  0  0  0  0
  6  9  1  0  0  0  0
  7  6  2  0  0  0  0
  8 12  1  0  0  0  0
  9 15  1  0  0  0  0
 10  7  1  0  0  0  0
 11  8  1  0  0  0  0
 13  8  1  0  0  0  0
 14  9  1  0  0  0  0
 16  9  1  0  0  0  0
M  END
$$$$
