CSD_code = YIMNIU | q = 0 | S = 0 | Stoichiometry = C23H35BrHgN2O3 | MND = 4
 OpenBabel04212202123D

 65 68  0  0  1  0  0  0  0  0999 V2000
    1.2878    5.7752   14.2852 Hg  0  0  0  0  0  0  0  0  0  0  0  0
    0.3695    5.9769   16.4748 Br  0  0  0  0  0  0  0  0  0  0  0  0
   -0.5856    5.9907   11.0481 O   0  0  0  0  0  1  0  0  0  0  0  0
    0.4053    6.9542   12.6643 O   0  0  0  0  0  0  0  0  0  0  0  0
    3.4613    5.5192   13.6179 C   0  0  1  0  0  3  0  0  0  0  0  0
    3.9789    5.2802   12.2268 C   0  0  0  0  0  0  0  0  0  0  0  0
   -0.0643    5.9369   12.1199 N   0  0  0  0  0  0  0  0  0  0  0  0
    4.4462    5.6049   14.4477 N   0  0  0  0  0  0  0  0  0  0  0  0
    0.0577    4.8568   12.7279 O   0  0  0  0  0  0  0  0  0  0  0  0
    3.6703    6.5363   11.3861 C   0  0  0  0  0  0  0  0  0  0  0  0
    2.6114    6.7846   11.4902 H   0  0  0  0  0  0  0  0  0  0  0  0
    4.2411    7.3830   11.7758 H   0  0  0  0  0  0  0  0  0  0  0  0
    3.7578    4.7725   17.9876 C   0  0  0  0  0  0  0  0  0  0  0  0
    3.5842    3.9031   18.6003 H   0  0  0  0  0  0  0  0  0  0  0  0
    4.0906    7.0449   16.4087 C   0  0  0  0  0  0  0  0  0  0  0  0
    6.6485    4.4508   14.6209 C   0  0  0  0  0  0  0  0  0  0  0  0
    6.6935    4.7041   15.6778 H   0  0  0  0  0  0  0  0  0  0  0  0
    7.6606    4.4576   14.2231 H   0  0  0  0  0  0  0  0  0  0  0  0
    6.2545    3.4449   14.5149 H   0  0  0  0  0  0  0  0  0  0  0  0
    3.2305    5.1290    9.3566 C   0  0  0  0  0  0  0  0  0  0  0  0
    3.4661    4.9939    8.2998 H   0  0  0  0  0  0  0  0  0  0  0  0
    2.1554    5.2991    9.4421 H   0  0  0  0  0  0  0  0  0  0  0  0
    6.5478    6.8128   13.9025 C   0  0  0  0  0  0  0  0  0  0  0  0
    6.0289    7.5765   13.3294 H   0  0  0  0  0  0  0  0  0  0  0  0
    7.5364    6.6823   13.4681 H   0  0  0  0  0  0  0  0  0  0  0  0
    6.6691    7.1536   14.9268 H   0  0  0  0  0  0  0  0  0  0  0  0
    2.7440    8.9644   15.5491 C   0  0  0  0  0  0  0  0  0  0  0  0
    2.0421    8.3495   14.9769 H   0  0  0  0  0  0  0  0  0  0  0  0
    2.8037    9.9352   15.0624 H   0  0  0  0  0  0  0  0  0  0  0  0
    2.3420    9.0965   16.5496 H   0  0  0  0  0  0  0  0  0  0  0  0
    3.2699    4.0585   11.6170 C   0  0  0  0  0  0  0  0  0  0  0  0
    3.5456    3.1627   12.1802 H   0  0  0  0  0  0  0  0  0  0  0  0
    2.1882    4.1810   11.7116 H   0  0  0  0  0  0  0  0  0  0  0  0
    3.7152    6.0255   18.5637 C   0  0  0  0  0  0  0  0  0  0  0  0
    3.5292    6.1280   19.6210 H   0  0  0  0  0  0  0  0  0  0  0  0
    3.9840    6.3336    9.9074 C   0  0  0  0  0  0  0  0  0  0  0  0
    3.6997    7.2352    9.3626 H   0  0  0  0  0  0  0  0  0  0  0  0
    5.0576    6.1841    9.7668 H   0  0  0  0  0  0  0  0  0  0  0  0
    4.2067    5.7637   15.8533 C   0  0  0  0  0  0  0  0  0  0  0  0
    5.4933    5.0481   12.4201 C   0  0  0  0  0  0  0  0  0  0  0  0
    6.0804    5.6237   11.7082 H   0  0  0  0  0  0  0  0  0  0  0  0
    5.7308    3.9935   12.2778 H   0  0  0  0  0  0  0  0  0  0  0  0
    4.8482    2.2492   16.7834 C   0  0  0  0  0  0  0  0  0  0  0  0
    5.8500    2.6595   16.8865 H   0  0  0  0  0  0  0  0  0  0  0  0
    4.9136    1.3103   16.2378 H   0  0  0  0  0  0  0  0  0  0  0  0
    4.4651    2.0320   17.7762 H   0  0  0  0  0  0  0  0  0  0  0  0
    3.9886    4.6135   16.6276 C   0  0  0  0  0  0  0  0  0  0  0  0
    3.6137    3.8805   10.1424 C   0  0  0  0  0  0  0  0  0  0  0  0
    4.6838    3.6903   10.0275 H   0  0  0  0  0  0  0  0  0  0  0  0
    3.0754    3.0142    9.7553 H   0  0  0  0  0  0  0  0  0  0  0  0
    4.1315    8.3153   15.5881 C   0  0  0  0  0  0  0  0  0  0  0  0
    4.3999    8.0760   14.5578 H   0  0  0  0  0  0  0  0  0  0  0  0
    5.1536    9.3132   16.1423 C   0  0  0  0  0  0  0  0  0  0  0  0
    4.8068    9.7434   17.0773 H   0  0  0  0  0  0  0  0  0  0  0  0
    5.3006   10.1245   15.4332 H   0  0  0  0  0  0  0  0  0  0  0  0
    6.1150    8.8375   16.3248 H   0  0  0  0  0  0  0  0  0  0  0  0
    3.8597    7.1477   17.7753 C   0  0  0  0  0  0  0  0  0  0  0  0
    3.7664    8.1236   18.2230 H   0  0  0  0  0  0  0  0  0  0  0  0
    5.8087    5.4748   13.8630 C   0  0  0  0  0  0  0  0  0  0  0  0
    2.4831    2.6973   16.0858 C   0  0  0  0  0  0  0  0  0  0  0  0
    2.4558    1.6557   15.7733 H   0  0  0  0  0  0  0  0  0  0  0  0
    1.8413    3.2665   15.4062 H   0  0  0  0  0  0  0  0  0  0  0  0
    2.0679    2.7753   17.0865 H   0  0  0  0  0  0  0  0  0  0  0  0
    3.9230    3.2192   16.0415 C   0  0  0  0  0  0  0  0  0  0  0  0
    4.2200    3.2476   14.9899 H   0  0  0  0  0  0  0  0  0  0  0  0
  1  2  1  0  0  0  0
  3  7  1  0  0  0  0
  4  1  1  0  0  0  0
  5  1  1  6  0  0  0
  5  8  1  0  0  0  0
  6 40  1  0  0  0  0
  6  5  1  0  0  0  0
  7  4  1  0  0  0  0
  7  9  1  0  0  0  0
  8 39  1  0  0  0  0
  9  1  1  0  0  0  0
 10 11  1  0  0  0  0
 10 12  1  0  0  0  0
 10  6  1  0  0  0  0
 13 34  1  0  0  0  0
 13 14  1  0  0  0  0
 15 57  1  0  0  0  0
 16 17  1  0  0  0  0
 18 16  1  0  0  0  0
 19 16  1  0  0  0  0
 20 22  1  0  0  0  0
 20 36  1  0  0  0  0
 20 48  1  0  0  0  0
 21 20  1  0  0  0  0
 23 26  1  0  0  0  0
 24 23  1  0  0  0  0
 25 23  1  0  0  0  0
 27 51  1  0  0  0  0
 27 30  1  0  0  0  0
 28 27  1  0  0  0  0
 29 27  1  0  0  0  0
 31 33  1  0  0  0  0
 31 32  1  0  0  0  0
 31  6  1  0  0  0  0
 34 35  1  0  0  0  0
 36 10  1  0  0  0  0
 37 36  1  0  0  0  0
 38 36  1  0  0  0  0
 39 15  2  0  0  0  0
 39 47  1  0  0  0  0
 40 59  1  0  0  0  0
 41 40  1  0  0  0  0
 42 40  1  0  0  0  0
 43 44  1  0  0  0  0
 43 46  1  0  0  0  0
 45 43  1  0  0  0  0
 47 13  2  0  0  0  0
 48 31  1  0  0  0  0
 49 48  1  0  0  0  0
 50 48  1  0  0  0  0
 51 53  1  0  0  0  0
 51 15  1  0  0  0  0
 52 51  1  0  0  0  0
 53 56  1  0  0  0  0
 53 54  1  0  0  0  0
 55 53  1  0  0  0  0
 57 58  1  0  0  0  0
 57 34  2  0  0  0  0
 59 23  1  0  0  0  0
 59  8  1  0  0  0  0
 59 16  1  0  0  0  0
 60 63  1  0  0  0  0
 61 60  1  0  0  0  0
 62 60  1  0  0  0  0
 64 60  1  0  0  0  0
 64 47  1  0  0  0  0
 64 43  1  0  0  0  0
 65 64  1  0  0  0  0
M  END
$$$$
