CSD_code = YIPROH | q = 0 | S = 0 | Stoichiometry = C10H16Cl2N4Pt | MND = 4
 OpenBabel04212202123D

 33 34  0  0  0  0  0  0  0  0999 V2000
    2.9829    7.9917    2.5612 Pt  0  0  0  0  0  0  0  0  0  0  0  0
    1.9797    8.1737    4.6362 Cl  0  0  0  0  0  0  0  0  0  0  0  0
    3.9877    7.8158    0.4831 Cl  0  0  0  0  0  0  0  0  0  0  0  0
    1.4198    7.2239    1.8709 N   0  0  0  0  0  2  0  0  0  0  0  0
    4.5512    8.7581    3.2421 N   0  0  0  0  0  2  0  0  0  0  0  0
   -0.6225    6.2375    0.9511 N   0  0  0  0  0  0  0  0  0  0  0  0
    0.4520    6.7580    1.4346 C   0  0  0  0  0  2  0  0  0  0  0  0
    8.2017   10.7797    5.4465 C   0  0  0  0  0  0  0  0  0  0  0  0
    8.4564   11.7071    5.9539 H   0  0  0  0  0  0  0  0  0  0  0  0
    8.5698    9.9427    6.0406 H   0  0  0  0  0  0  0  0  0  0  0  0
   -2.5337    4.9118    0.7499 C   0  0  0  0  0  0  0  0  0  0  0  0
   -2.1282    3.9163    0.5666 H   0  0  0  0  0  0  0  0  0  0  0  0
   -3.5660    4.8141    1.0771 H   0  0  0  0  0  0  0  0  0  0  0  0
    5.5312    9.2502    3.6181 C   0  0  0  0  0  2  0  0  0  0  0  0
   -1.6738    5.6509    1.7718 C   0  0  0  0  0  0  0  0  0  0  0  0
   -2.2436    6.4423    2.2731 H   0  0  0  0  0  0  0  0  0  0  0  0
   -1.2497    4.9939    2.5341 H   0  0  0  0  0  0  0  0  0  0  0  0
    6.6983   10.6434    5.2190 C   0  0  0  0  0  0  0  0  0  0  0  0
    6.1742   10.1874    6.0616 H   0  0  0  0  0  0  0  0  0  0  0  0
    6.2392   11.6167    5.0089 H   0  0  0  0  0  0  0  0  0  0  0  0
    7.9076    9.6292    3.3745 C   0  0  0  0  0  0  0  0  0  0  0  0
    7.8042    9.7542    2.2947 H   0  0  0  0  0  0  0  0  0  0  0  0
    8.3070    8.6273    3.5728 H   0  0  0  0  0  0  0  0  0  0  0  0
   -2.3891    5.7749   -0.5035 C   0  0  0  0  0  0  0  0  0  0  0  0
   -3.0182    6.6619   -0.4209 H   0  0  0  0  0  0  0  0  0  0  0  0
   -2.6528    5.2427   -1.4143 H   0  0  0  0  0  0  0  0  0  0  0  0
   -0.9150    6.1702   -0.4747 C   0  0  0  0  0  0  0  0  0  0  0  0
   -0.2889    5.4058   -0.9501 H   0  0  0  0  0  0  0  0  0  0  0  0
   -0.7163    7.1295   -0.9571 H   0  0  0  0  0  0  0  0  0  0  0  0
    8.7692   10.7058    4.0288 C   0  0  0  0  0  0  0  0  0  0  0  0
    9.8262   10.4512    4.0115 H   0  0  0  0  0  0  0  0  0  0  0  0
    8.6300   11.6600    3.5197 H   0  0  0  0  0  0  0  0  0  0  0  0
    6.6214    9.7916    4.0395 N   0  0  0  0  0  0  0  0  0  0  0  0
  1  5  1  0  0  0  0
  1  2  1  0  0  0  0
  3  1  1  0  0  0  0
  4  1  1  0  0  0  0
  5 14  1  0  0  0  0
  6  7  1  0  0  0  0
  6 15  1  0  0  0  0
  7  4  1  0  0  0  0
  8  9  1  0  0  0  0
  8 10  1  0  0  0  0
 11 13  1  0  0  0  0
 11 15  1  0  0  0  0
 12 11  1  0  0  0  0
 14 33  1  0  0  0  0
 15 16  1  0  0  0  0
 15 17  1  0  0  0  0
 18  8  1  0  0  0  0
 18 19  1  0  0  0  0
 20 18  1  0  0  0  0
 21 23  1  0  0  0  0
 21 30  1  0  0  0  0
 21 33  1  0  0  0  0
 22 21  1  0  0  0  0
 24 27  1  0  0  0  0
 24 25  1  0  0  0  0
 24 11  1  0  0  0  0
 26 24  1  0  0  0  0
 27  6  1  0  0  0  0
 28 27  1  0  0  0  0
 29 27  1  0  0  0  0
 30  8  1  0  0  0  0
 31 30  1  0  0  0  0
 32 30  1  0  0  0  0
 33 18  1  0  0  0  0
M  END
$$$$
