CSD_code = YIQLOZ | q = 0 | S = 0 | Stoichiometry = C26H38ClO4V | MND = 5
 OpenBabel04212202123D

 70 71  0  0  0  0  0  0  0  0999 V2000
   14.1292    8.2605    4.6861 V   0  0  0  0  0  0  0  0  0  0  0  0
   14.0718    6.2871    5.8372 Cl  0  0  0  0  0  0  0  0  0  0  0  0
   15.7175    8.5009    4.7055 O   0  0  0  0  0  0  0  0  0  0  0  0
   12.5441    8.4241    4.4421 O   0  0  0  0  0  0  0  0  0  0  0  0
   14.0020    9.5322    6.5170 O   0  0  0  0  0  0  0  0  0  0  0  0
   14.3155    7.0610    2.7543 O   0  0  0  0  0  0  0  0  0  0  0  0
   16.9301    8.9870    4.6886 C   0  0  0  0  0  0  0  0  0  0  0  0
   18.0106    8.2878    5.2557 C   0  0  0  0  0  0  0  0  0  0  0  0
   19.2725    8.8579    5.2154 C   0  0  0  0  0  0  0  0  0  0  0  0
   19.5014   10.0967    4.6337 C   0  0  0  0  0  0  0  0  0  0  0  0
   18.4245   10.7783    4.0798 C   0  0  0  0  0  0  0  0  0  0  0  0
   17.1488   10.2476    4.0964 C   0  0  0  0  0  0  0  0  0  0  0  0
   17.7882    6.9415    5.8808 C   0  0  0  0  0  0  0  0  0  0  0  0
   20.8753   10.6984    4.6280 C   0  0  0  0  0  0  0  0  0  0  0  0
   15.9739   10.9610    3.4958 C   0  0  0  0  0  0  0  0  0  0  0  0
   11.3221    8.7048    4.0681 C   0  0  0  0  0  0  0  0  0  0  0  0
   10.2153    8.0944    4.6880 C   0  0  0  0  0  0  0  0  0  0  0  0
    8.9398    8.4201    4.2595 C   0  0  0  0  0  0  0  0  0  0  0  0
    8.7192    9.3277    3.2328 C   0  0  0  0  0  0  0  0  0  0  0  0
    9.8196    9.9170    2.6242 C   0  0  0  0  0  0  0  0  0  0  0  0
   11.1121    9.6232    3.0194 C   0  0  0  0  0  0  0  0  0  0  0  0
   10.4292    7.1125    5.8031 C   0  0  0  0  0  0  0  0  0  0  0  0
    7.3250    9.6765    2.8044 C   0  0  0  0  0  0  0  0  0  0  0  0
   12.3001   10.2618    2.3596 C   0  0  0  0  0  0  0  0  0  0  0  0
   14.2165    8.8882    7.7639 C   0  0  0  0  0  0  0  0  0  0  0  0
   13.9922    9.9815    8.8190 C   0  0  0  0  0  0  0  0  0  0  0  0
   13.0889   10.9973    8.0969 C   0  0  0  0  0  0  0  0  0  0  0  0
   12.8756   10.3614    6.7149 C   0  0  0  0  0  0  0  0  0  0  0  0
   15.4734    6.2400    2.7189 C   0  0  0  0  0  0  0  0  0  0  0  0
   15.2486    5.2888    1.5351 C   0  0  0  0  0  0  0  0  0  0  0  0
   13.7158    5.2173    1.4252 C   0  0  0  0  0  0  0  0  0  0  0  0
   13.2329    6.1684    2.5314 C   0  0  0  0  0  0  0  0  0  0  0  0
   20.0999    8.3156    5.6524 H   0  0  0  0  0  0  0  0  0  0  0  0
   18.5849   11.7464    3.6248 H   0  0  0  0  0  0  0  0  0  0  0  0
   18.2871    6.8810    6.8469 H   0  0  0  0  0  0  0  0  0  0  0  0
   18.1969    6.1566    5.2429 H   0  0  0  0  0  0  0  0  0  0  0  0
   16.7236    6.7513    6.0171 H   0  0  0  0  0  0  0  0  0  0  0  0
   20.9921   11.3909    3.7975 H   0  0  0  0  0  0  0  0  0  0  0  0
   21.6361    9.9247    4.5519 H   0  0  0  0  0  0  0  0  0  0  0  0
   21.0479   11.2490    5.5538 H   0  0  0  0  0  0  0  0  0  0  0  0
   15.1036   10.8584    4.1527 H   0  0  0  0  0  0  0  0  0  0  0  0
   16.1918   12.0161    3.3464 H   0  0  0  0  0  0  0  0  0  0  0  0
   15.7198   10.5175    2.5293 H   0  0  0  0  0  0  0  0  0  0  0  0
    8.0949    7.9469    4.7407 H   0  0  0  0  0  0  0  0  0  0  0  0
    9.6676   10.6214    1.8176 H   0  0  0  0  0  0  0  0  0  0  0  0
    9.8032    6.2333    5.6619 H   0  0  0  0  0  0  0  0  0  0  0  0
   10.1616    7.5613    6.7617 H   0  0  0  0  0  0  0  0  0  0  0  0
   11.4725    6.7986    5.8457 H   0  0  0  0  0  0  0  0  0  0  0  0
    7.3083   10.0037    1.7674 H   0  0  0  0  0  0  0  0  0  0  0  0
    6.9344   10.4875    3.4207 H   0  0  0  0  0  0  0  0  0  0  0  0
    6.6613    8.8220    2.9156 H   0  0  0  0  0  0  0  0  0  0  0  0
   12.0876   10.4833    1.3155 H   0  0  0  0  0  0  0  0  0  0  0  0
   13.1668    9.5961    2.4184 H   0  0  0  0  0  0  0  0  0  0  0  0
   12.5540   11.1997    2.8597 H   0  0  0  0  0  0  0  0  0  0  0  0
   15.2293    8.4809    7.7545 H   0  0  0  0  0  0  0  0  0  0  0  0
   13.4974    8.0670    7.8887 H   0  0  0  0  0  0  0  0  0  0  0  0
   13.5238    9.5747    9.7125 H   0  0  0  0  0  0  0  0  0  0  0  0
   14.9377   10.4399    9.1051 H   0  0  0  0  0  0  0  0  0  0  0  0
   12.1426   11.1519    8.6107 H   0  0  0  0  0  0  0  0  0  0  0  0
   13.5892   11.9601    8.0009 H   0  0  0  0  0  0  0  0  0  0  0  0
   12.8348   11.0876    5.8995 H   0  0  0  0  0  0  0  0  0  0  0  0
   11.9559    9.7570    6.7076 H   0  0  0  0  0  0  0  0  0  0  0  0
   16.3431    6.8906    2.6012 H   0  0  0  0  0  0  0  0  0  0  0  0
   15.5553    5.6770    3.6586 H   0  0  0  0  0  0  0  0  0  0  0  0
   15.6967    4.3158    1.7223 H   0  0  0  0  0  0  0  0  0  0  0  0
   15.6836    5.6995    0.6244 H   0  0  0  0  0  0  0  0  0  0  0  0
   13.3797    5.5598    0.4472 H   0  0  0  0  0  0  0  0  0  0  0  0
   13.3375    4.2103    1.5851 H   0  0  0  0  0  0  0  0  0  0  0  0
   12.3597    6.7603    2.2470 H   0  0  0  0  0  0  0  0  0  0  0  0
   13.0172    5.6128    3.4543 H   0  0  0  0  0  0  0  0  0  0  0  0
  1  3  1  0  0  0  0
  1  2  1  0  0  0  0
  4  1  1  0  0  0  0
  5 28  1  0  0  0  0
  5 25  1  0  0  0  0
  7  3  1  0  0  0  0
  7  8  1  0  0  0  0
  8 13  1  0  0  0  0
  9  8  2  0  0  0  0
  9 33  1  0  0  0  0
 10  9  1  0  0  0  0
 11 12  1  0  0  0  0
 11 10  2  0  0  0  0
 12  7  2  0  0  0  0
 13 37  1  0  0  0  0
 13 35  1  0  0  0  0
 14 10  1  0  0  0  0
 14 40  1  0  0  0  0
 15 12  1  0  0  0  0
 15 41  1  0  0  0  0
 16  4  1  0  0  0  0
 16 17  1  0  0  0  0
 17 22  1  0  0  0  0
 18 17  2  0  0  0  0
 18 44  1  0  0  0  0
 19 18  1  0  0  0  0
 20 21  1  0  0  0  0
 20 19  2  0  0  0  0
 21 16  2  0  0  0  0
 22 48  1  0  0  0  0
 22 47  1  0  0  0  0
 23 51  1  0  0  0  0
 23 19  1  0  0  0  0
 23 50  1  0  0  0  0
 24 53  1  0  0  0  0
 24 54  1  0  0  0  0
 24 21  1  0  0  0  0
 25 56  1  0  0  0  0
 25 26  1  0  0  0  0
 26 58  1  0  0  0  0
 26 57  1  0  0  0  0
 27 59  1  0  0  0  0
 27 26  1  0  0  0  0
 28 27  1  0  0  0  0
 29  6  1  0  0  0  0
 29 64  1  0  0  0  0
 30 65  1  0  0  0  0
 30 29  1  0  0  0  0
 31 30  1  0  0  0  0
 31 68  1  0  0  0  0
 31 32  1  0  0  0  0
 32  6  1  0  0  0  0
 32 70  1  0  0  0  0
 34 11  1  0  0  0  0
 36 13  1  0  0  0  0
 38 14  1  0  0  0  0
 39 14  1  0  0  0  0
 42 15  1  0  0  0  0
 43 15  1  0  0  0  0
 45 20  1  0  0  0  0
 46 22  1  0  0  0  0
 49 23  1  0  0  0  0
 52 24  1  0  0  0  0
 55 25  1  0  0  0  0
 60 27  1  0  0  0  0
 61 28  1  0  0  0  0
 62 28  1  0  0  0  0
 63 29  1  0  0  0  0
 66 30  1  0  0  0  0
 67 31  1  0  0  0  0
 69 32  1  0  0  0  0
M  END
$$$$
