CSD_code = YIQRAR | q = 0 | S = 0 | Stoichiometry = C19H24ClN2O3Rh | MND = 4
 OpenBabel04212202123D

 50 51  0  0  1  0  0  0  0  0999 V2000
    6.8761    3.5519    1.7269 Rh  0  0  0  0  0  0  0  0  0  0  0  0
    7.7645    1.6155    2.3593 Cl  0  0  0  0  0  0  0  0  0  0  0  0
    8.6561    4.4478    2.1725 N   0  0  0  0  0  0  0  0  0  0  0  0
    9.6854    3.7302    2.6322 N   0  0  0  0  0  0  0  0  0  0  0  0
    9.5168    2.7260    2.7594 H   0  0  0  0  0  0  0  0  0  0  0  0
    5.5874    6.1007    0.8410 O   0  0  0  0  0  1  0  0  0  0  0  0
    4.4143    1.9638    1.1761 O   0  0  0  0  0  1  0  0  0  0  0  0
   15.6742    2.5427    4.7559 O   0  0  0  0  0  0  0  0  0  0  0  0
    6.1078    5.1421    1.1890 C   0  0  0  0  0  2  0  0  0  0  0  0
    5.3340    2.6092    1.3717 C   0  0  0  0  0  2  0  0  0  0  0  0
   10.7752    4.4831    2.8534 C   0  0  2  0  0  3  0  0  0  0  0  0
   10.4116    5.7852    2.5088 C   0  0  0  0  0  0  0  0  0  0  0  0
   11.0192    6.6647    2.5433 H   0  0  0  0  0  0  0  0  0  0  0  0
    9.0900    5.7071    2.0925 C   0  0  0  0  0  0  0  0  0  0  0  0
    8.4558    6.5013    1.7466 H   0  0  0  0  0  0  0  0  0  0  0  0
   12.0288    3.9484    3.3461 C   0  0  0  0  0  0  0  0  0  0  0  0
   12.2392    2.5737    3.4501 C   0  0  0  0  0  0  0  0  0  0  0  0
   11.4663    1.8794    3.1574 H   0  0  0  0  0  0  0  0  0  0  0  0
   13.4365    2.0659    3.9150 C   0  0  0  0  0  0  0  0  0  0  0  0
   13.5589    0.9965    3.9778 H   0  0  0  0  0  0  0  0  0  0  0  0
   14.4651    2.9270    4.2923 C   0  0  0  0  0  0  0  0  0  0  0  0
   14.2586    4.3070    4.1913 C   0  0  0  0  0  0  0  0  0  0  0  0
   15.0600    4.9653    4.4868 H   0  0  0  0  0  0  0  0  0  0  0  0
   13.0655    4.8062    3.7270 C   0  0  0  0  0  0  0  0  0  0  0  0
   12.9276    5.8738    3.6634 H   0  0  0  0  0  0  0  0  0  0  0  0
   15.9611    1.1620    4.8788 C   0  0  0  0  0  0  0  0  0  0  0  0
   15.8788    0.6749    3.8974 H   0  0  0  0  0  0  0  0  0  0  0  0
   15.2495    0.6897    5.5696 H   0  0  0  0  0  0  0  0  0  0  0  0
   17.3816    1.0207    5.4151 C   0  0  0  0  0  0  0  0  0  0  0  0
   17.6638   -0.0328    5.3713 H   0  0  0  0  0  0  0  0  0  0  0  0
   18.0547    1.5831    4.7661 H   0  0  0  0  0  0  0  0  0  0  0  0
   17.5057    1.5336    6.8477 C   0  0  0  0  0  0  0  0  0  0  0  0
   16.8150    0.9811    7.4895 H   0  0  0  0  0  0  0  0  0  0  0  0
   17.2156    2.5852    6.8730 H   0  0  0  0  0  0  0  0  0  0  0  0
   18.9255    1.3791    7.3854 C   0  0  0  0  0  0  0  0  0  0  0  0
   19.2147    0.3261    7.3422 H   0  0  0  0  0  0  0  0  0  0  0  0
   19.6168    1.9366    6.7493 H   0  0  0  0  0  0  0  0  0  0  0  0
   19.0505    1.8763    8.8234 C   0  0  0  0  0  0  0  0  0  0  0  0
   18.3467    1.3305    9.4566 H   0  0  0  0  0  0  0  0  0  0  0  0
   18.7786    2.9337    8.8650 H   0  0  0  0  0  0  0  0  0  0  0  0
   20.4643    1.6954    9.3703 C   0  0  0  0  0  0  0  0  0  0  0  0
   20.7331    0.6369    9.3313 H   0  0  0  0  0  0  0  0  0  0  0  0
   21.1693    2.2376    8.7354 H   0  0  0  0  0  0  0  0  0  0  0  0
   20.5954    2.1941   10.8073 C   0  0  0  0  0  0  0  0  0  0  0  0
   20.3344    3.2544   10.8463 H   0  0  0  0  0  0  0  0  0  0  0  0
   19.8865    1.6565   11.4415 H   0  0  0  0  0  0  0  0  0  0  0  0
   22.0070    1.9992   11.3473 C   0  0  0  0  0  0  0  0  0  0  0  0
   22.0810    2.3619   12.3699 H   0  0  0  0  0  0  0  0  0  0  0  0
   22.7269    2.5415   10.7375 H   0  0  0  0  0  0  0  0  0  0  0  0
   22.2767    0.9448   11.3365 H   0  0  0  0  0  0  0  0  0  0  0  0
  1  3  1  0  0  0  0
  1  2  1  0  0  0  0
  3  4  1  0  0  0  0
  4  5  1  0  0  0  0
  4 11  1  0  0  0  0
  6  9  1  0  0  0  0
  7 10  1  0  0  0  0
  8 26  1  0  0  0  0
  9  1  1  0  0  0  0
 10  1  1  0  0  0  0
 11 16  1  6  0  0  0
 12 13  1  0  0  0  0
 12 11  1  0  0  0  0
 14  3  1  0  0  0  0
 14 12  2  0  0  0  0
 15 14  1  0  0  0  0
 16 17  2  0  0  0  0
 16 24  1  0  0  0  0
 17 19  1  0  0  0  0
 18 17  1  0  0  0  0
 19 20  1  0  0  0  0
 19 21  2  0  0  0  0
 21  8  1  0  0  0  0
 22 21  1  0  0  0  0
 22 23  1  0  0  0  0
 24 22  2  0  0  0  0
 25 24  1  0  0  0  0
 26 29  1  0  0  0  0
 26 28  1  0  0  0  0
 27 26  1  0  0  0  0
 29 32  1  0  0  0  0
 30 29  1  0  0  0  0
 31 29  1  0  0  0  0
 32 34  1  0  0  0  0
 32 35  1  0  0  0  0
 32 33  1  0  0  0  0
 35 38  1  0  0  0  0
 36 35  1  0  0  0  0
 37 35  1  0  0  0  0
 38 40  1  0  0  0  0
 38 41  1  0  0  0  0
 38 39  1  0  0  0  0
 41 44  1  0  0  0  0
 42 41  1  0  0  0  0
 43 41  1  0  0  0  0
 44 45  1  0  0  0  0
 44 47  1  0  0  0  0
 44 46  1  0  0  0  0
 47 48  1  0  0  0  0
 49 47  1  0  0  0  0
 50 47  1  0  0  0  0
M  END
$$$$
