CSD_code = YIQRIZ | q = 0 | S = 0 | Stoichiometry = C21H28ClN2O3Rh | MND = 4
 OpenBabel04212202123D

 56 57  0  0  1  0  0  0  0  0999 V2000
    8.1328    9.2291    8.6220 Rh  0  0  0  0  0  0  0  0  0  0  0  0
   10.0646   10.2405    8.1983 Cl  0  0  0  0  0  0  0  0  0  0  0  0
    8.7342    7.7023    7.4078 N   0  0  0  0  0  0  0  0  0  0  0  0
    5.4978    7.9633    9.2518 O   0  0  0  0  0  1  0  0  0  0  0  0
    6.5155    8.4191    8.9914 C   0  0  0  0  0  2  0  0  0  0  0  0
    9.9183    7.7430    6.7894 N   0  0  0  0  0  0  0  0  0  0  0  0
   10.5019    8.5652    6.9790 H   0  0  0  0  0  0  0  0  0  0  0  0
    7.7233   10.6744    9.6879 C   0  0  0  0  0  2  0  0  0  0  0  0
    7.5333   11.5968   10.3312 O   0  0  0  0  0  1  0  0  0  0  0  0
   14.7398    5.7395    2.9751 O   0  0  0  0  0  0  0  0  0  0  0  0
   10.1356    6.6561    6.0310 C   0  0  1  0  0  3  0  0  0  0  0  0
    9.0002    5.8593    6.1764 C   0  0  0  0  0  0  0  0  0  0  0  0
    8.8003    4.9159    5.7137 H   0  0  0  0  0  0  0  0  0  0  0  0
    8.1631    6.5546    7.0378 C   0  0  0  0  0  0  0  0  0  0  0  0
    7.1908    6.2682    7.3917 H   0  0  0  0  0  0  0  0  0  0  0  0
   11.3391    6.4532    5.2493 C   0  0  0  0  0  0  0  0  0  0  0  0
   12.2399    7.4927    5.0216 C   0  0  0  0  0  0  0  0  0  0  0  0
   12.0485    8.4768    5.4219 H   0  0  0  0  0  0  0  0  0  0  0  0
   13.3825    7.2972    4.2702 C   0  0  0  0  0  0  0  0  0  0  0  0
   14.0522    8.1279    4.1140 H   0  0  0  0  0  0  0  0  0  0  0  0
   13.6573    6.0451    3.7245 C   0  0  0  0  0  0  0  0  0  0  0  0
   12.7575    4.9982    3.9519 C   0  0  0  0  0  0  0  0  0  0  0  0
   12.9816    4.0329    3.5269 H   0  0  0  0  0  0  0  0  0  0  0  0
   11.6213    5.1995    4.6978 C   0  0  0  0  0  0  0  0  0  0  0  0
   10.9452    4.3765    4.8672 H   0  0  0  0  0  0  0  0  0  0  0  0
   15.6960    6.7441    2.6931 C   0  0  0  0  0  0  0  0  0  0  0  0
   16.1265    7.1305    3.6271 H   0  0  0  0  0  0  0  0  0  0  0  0
   15.2226    7.5761    2.1538 H   0  0  0  0  0  0  0  0  0  0  0  0
   16.7859    6.1147    1.8326 C   0  0  0  0  0  0  0  0  0  0  0  0
   16.3243    5.7064    0.9321 H   0  0  0  0  0  0  0  0  0  0  0  0
   17.2293    5.2841    2.3842 H   0  0  0  0  0  0  0  0  0  0  0  0
   17.8648    7.1247    1.4530 C   0  0  0  0  0  0  0  0  0  0  0  0
   18.3172    7.5322    2.3600 H   0  0  0  0  0  0  0  0  0  0  0  0
   17.4089    7.9555    0.9093 H   0  0  0  0  0  0  0  0  0  0  0  0
   18.9503    6.4898    0.5871 C   0  0  0  0  0  0  0  0  0  0  0  0
   19.4113    5.6648    1.1346 H   0  0  0  0  0  0  0  0  0  0  0  0
   18.4940    6.0733   -0.3136 H   0  0  0  0  0  0  0  0  0  0  0  0
   20.0282    7.4940    0.1865 C   0  0  0  0  0  0  0  0  0  0  0  0
   19.5673    8.3200   -0.3603 H   0  0  0  0  0  0  0  0  0  0  0  0
   20.4879    7.9102    1.0859 H   0  0  0  0  0  0  0  0  0  0  0  0
   21.1078    6.8540   -0.6829 C   0  0  0  0  0  0  0  0  0  0  0  0
   20.6452    6.4309   -1.5778 H   0  0  0  0  0  0  0  0  0  0  0  0
   21.5730    6.0323   -0.1333 H   0  0  0  0  0  0  0  0  0  0  0  0
   22.1832    7.8549   -1.0983 C   0  0  0  0  0  0  0  0  0  0  0  0
   21.7183    8.6774   -1.6471 H   0  0  0  0  0  0  0  0  0  0  0  0
   22.6486    8.2773   -0.2045 H   0  0  0  0  0  0  0  0  0  0  0  0
   23.2576    7.2101   -1.9704 C   0  0  0  0  0  0  0  0  0  0  0  0
   23.7243    6.3896   -1.4200 H   0  0  0  0  0  0  0  0  0  0  0  0
   22.7907    6.7848   -2.8621 H   0  0  0  0  0  0  0  0  0  0  0  0
   24.3334    8.2072   -2.3940 C   0  0  0  0  0  0  0  0  0  0  0  0
   24.8011    8.6330   -1.5032 H   0  0  0  0  0  0  0  0  0  0  0  0
   23.8678    9.0269   -2.9460 H   0  0  0  0  0  0  0  0  0  0  0  0
   25.4008    7.5537   -3.2631 C   0  0  0  0  0  0  0  0  0  0  0  0
   26.1568    8.2794   -3.5536 H   0  0  0  0  0  0  0  0  0  0  0  0
   24.9567    7.1404   -4.1662 H   0  0  0  0  0  0  0  0  0  0  0  0
   25.8900    6.7458   -2.7231 H   0  0  0  0  0  0  0  0  0  0  0  0
  1  5  1  0  0  0  0
  1  8  1  0  0  0  0
  2  1  1  0  0  0  0
  3  1  1  0  0  0  0
  5  4  1  0  0  0  0
  6  7  1  0  0  0  0
  6  3  1  0  0  0  0
  8  9  1  0  0  0  0
 10 21  1  0  0  0  0
 11 16  1  6  0  0  0
 11 12  1  0  0  0  0
 11  6  1  0  0  0  0
 12 14  2  0  0  0  0
 13 12  1  0  0  0  0
 14 15  1  0  0  0  0
 14  3  1  0  0  0  0
 17 16  1  0  0  0  0
 17 18  1  0  0  0  0
 19 17  2  0  0  0  0
 20 19  1  0  0  0  0
 21 22  2  0  0  0  0
 21 19  1  0  0  0  0
 22 24  1  0  0  0  0
 23 22  1  0  0  0  0
 24 25  1  0  0  0  0
 24 16  2  0  0  0  0
 26 10  1  0  0  0  0
 26 27  1  0  0  0  0
 28 26  1  0  0  0  0
 29 31  1  0  0  0  0
 29 26  1  0  0  0  0
 30 29  1  0  0  0  0
 32 29  1  0  0  0  0
 32 33  1  0  0  0  0
 34 32  1  0  0  0  0
 35 36  1  0  0  0  0
 35 32  1  0  0  0  0
 37 35  1  0  0  0  0
 38 35  1  0  0  0  0
 38 40  1  0  0  0  0
 39 38  1  0  0  0  0
 41 43  1  0  0  0  0
 41 38  1  0  0  0  0
 42 41  1  0  0  0  0
 44 41  1  0  0  0  0
 44 46  1  0  0  0  0
 45 44  1  0  0  0  0
 47 48  1  0  0  0  0
 47 44  1  0  0  0  0
 49 47  1  0  0  0  0
 50 47  1  0  0  0  0
 50 51  1  0  0  0  0
 52 50  1  0  0  0  0
 53 56  1  0  0  0  0
 53 50  1  0  0  0  0
 54 53  1  0  0  0  0
 55 53  1  0  0  0  0
M  END
$$$$
