CSD_code = YIQSIB | q = 0 | S = 0 | Stoichiometry = C14H15Cl2MnN4O2 | MND = 6
 OpenBabel04212202123D

 38 38  0  0  1  0  0  0  0  0999 V2000
    1.6785    2.9348    2.6124 Mn  0  0  0  0  0  0  0  0  0  0  0  0
    1.1617    1.4714    4.1620 Cl  0  0  0  0  0 15  0  0  0  0  0  0
   -0.1604    2.3432    1.3792 Cl  0  0  0  0  0 15  0  0  0  0  0  0
    3.3369    3.2230    3.5104 N   0  0  0  0  0  0  0  0  0  0  0  0
    2.6214    1.4308    1.9272 N   0  0  0  0  0  0  0  0  0  0  0  0
    2.3293    3.8349    0.7199 N   0  0  0  0  0  0  0  0  0  0  0  0
    1.1496    4.5847    2.6089 N   0  0  0  0  0  0  0  0  0  0  0  0
    2.1174    0.5861    0.9864 O   0  0  0  0  0  0  0  0  0  0  0  0
    1.1607    0.8780    0.8828 H   0  0  0  0  0  0  0  0  0  0  0  0
    0.6878    4.3832    3.7443 O   0  0  0  0  0  1  0  0  0  0  0  0
    4.5722   -0.0537    2.1335 C   0  0  0  0  0  0  0  0  0  0  0  0
    4.0157   -0.6719    1.4340 H   0  0  0  0  0  0  0  0  0  0  0  0
    4.7561   -0.6234    3.0425 H   0  0  0  0  0  0  0  0  0  0  0  0
    5.5307    0.2172    1.6931 H   0  0  0  0  0  0  0  0  0  0  0  0
    3.7758    1.1666    2.4545 C   0  0  0  0  0  0  0  0  0  0  0  0
    4.2115    2.1860    3.3785 C   0  0  0  0  0  0  0  0  0  0  0  0
    5.4261    2.1533    4.0662 C   0  0  0  0  0  0  0  0  0  0  0  0
    6.0853    1.3101    3.9389 H   0  0  0  0  0  0  0  0  0  0  0  0
    5.7568    3.1916    4.9097 C   0  0  0  0  0  0  0  0  0  0  0  0
    6.6829    3.1831    5.4622 H   0  0  0  0  0  0  0  0  0  0  0  0
    4.8591    4.2498    5.0400 C   0  0  0  0  0  0  0  0  0  0  0  0
    5.0692    5.0776    5.6977 H   0  0  0  0  0  0  0  0  0  0  0  0
    3.6791    4.2217    4.3285 C   0  0  0  0  0  0  0  0  0  0  0  0
    2.9604    5.0237    4.4408 H   0  0  0  0  0  0  0  0  0  0  0  0
    0.5003    6.8858    1.9677 C   0  0  0  0  0  0  0  0  0  0  0  0
    0.0382    6.8982    2.9527 H   0  0  0  0  0  0  0  0  0  0  0  0
   -0.2714    7.0540    1.2177 H   0  0  0  0  0  0  0  0  0  0  0  0
    1.2296    7.6930    1.9045 H   0  0  0  0  0  0  0  0  0  0  0  0
    1.1554    5.5571    1.7550 C   0  0  2  0  0  3  0  0  0  0  0  0
    1.8613    5.1090    0.5913 C   0  0  0  0  0  0  0  0  0  0  0  0
    2.0587    5.8607   -0.5727 C   0  0  0  0  0  0  0  0  0  0  0  0
    1.6645    6.8626   -0.6228 H   0  0  0  0  0  0  0  0  0  0  0  0
    2.7378    5.2995   -1.6281 C   0  0  0  0  0  0  0  0  0  0  0  0
    2.8972    5.8528   -2.5408 H   0  0  0  0  0  0  0  0  0  0  0  0
    3.2119    3.9964   -1.4954 C   0  0  0  0  0  0  0  0  0  0  0  0
    3.7448    3.5141   -2.2981 H   0  0  0  0  0  0  0  0  0  0  0  0
    2.9851    3.3143   -0.3170 C   0  0  0  0  0  0  0  0  0  0  0  0
    3.3490    2.3018   -0.2165 H   0  0  0  0  0  0  0  0  0  0  0  0
  1  4  1  0  0  0  0
  4 23  1  0  0  0  0
  5 15  1  0  0  0  0
  5  1  1  0  0  0  0
  7  1  1  0  0  0  0
  7 10  1  0  0  0  0
  8  5  1  0  0  0  0
  9  8  1  0  0  0  0
 11 15  1  0  0  0  0
 11 13  1  0  0  0  0
 12 11  1  0  0  0  0
 14 11  1  0  0  0  0
 15 16  2  0  0  0  0
 16  4  1  0  0  0  0
 16 17  1  0  0  0  0
 17 19  2  0  0  0  0
 18 17  1  0  0  0  0
 19 21  1  0  0  0  0
 19 20  1  0  0  0  0
 21 22  1  0  0  0  0
 23 24  1  0  0  0  0
 23 21  2  0  0  0  0
 25 26  1  0  0  0  0
 27 25  1  0  0  0  0
 28 25  1  0  0  0  0
 29 25  1  6  0  0  0
 29  7  1  0  0  0  0
 30  6  1  0  0  0  0
 30 29  1  0  0  0  0
 31 30  2  0  0  0  0
 32 31  1  0  0  0  0
 33 35  2  0  0  0  0
 33 31  1  0  0  0  0
 34 33  1  0  0  0  0
 35 37  1  0  0  0  0
 36 35  1  0  0  0  0
 37 38  1  0  0  0  0
 37  6  2  0  0  0  0
M  END
$$$$
