CSD_code = YIRCUX | q = 0 | S = 0 | Stoichiometry = C43H16BrO6P3Pd | MND = 4
 OpenBabel04212202123D

 70 81  0  0  1  0  0  0  0  0999 V2000
    2.8447    1.6844    2.9380 Pd  0  0  0  0  0  0  0  0  0  0  0  0
    0.9862    0.4423    1.9342 Br  0  0  0  0  0  0  0  0  0  0  0  0
    2.1142    3.7087    2.6672 P   0  0  1  0  0  4  0  0  0  0  0  0
    3.5710   -0.7565    5.1006 P   0  0  1  0  0  0  0  0  0  0  0  0
    6.9562    2.7413    2.1762 P   0  0  0  0  0  0  0  0  0  0  0  0
    4.4404    0.1029    2.7589 O   0  0  0  0  0  0  0  0  0  0  0  0
    6.6628    0.0625    2.7859 O   0  0  0  0  0  0  0  0  0  0  0  0
    6.7922    2.4906    3.7503 O   0  0  0  0  0  0  0  0  0  0  0  0
    5.8274    2.2549    1.3870 O   0  0  0  0  0  0  0  0  0  0  0  0
    8.3557    2.0928    1.7998 O   0  0  0  0  0  0  0  0  0  0  0  0
    7.2228    4.3159    2.0731 O   0  0  0  0  0  0  0  0  0  0  0  0
    2.4534    3.6412    0.9303 C   0  0  0  0  0  0  0  0  0  0  0  0
    3.2090    2.3842    0.8762 C   0  0  0  0  0  0  0  0  0  0  0  0
    3.6337    1.9788   -0.3290 C   0  0  0  0  0  3  0  0  0  0  0  0
    3.3822    2.7945   -1.3273 C   0  0  0  0  0  3  0  0  0  0  0  0
    2.7287    3.9141   -1.3094 C   0  0  0  0  0  3  0  0  0  0  0  0
    2.2491    4.4165   -0.1782 C   0  0  0  0  0  3  0  0  0  0  0  0
    0.4830    4.0603    3.2620 C   0  0  0  0  0  0  0  0  0  0  0  0
   -0.0672    3.2986    4.3803 C   0  0  0  0  0  0  0  0  0  0  0  0
   -1.3318    3.6817    4.7392 C   0  0  0  0  0  3  0  0  0  0  0  0
   -1.9579    4.6313    4.1035 C   0  0  0  0  0  3  0  0  0  0  0  0
   -1.3977    5.2621    3.1205 C   0  0  0  0  0  3  0  0  0  0  0  0
   -0.2054    5.0578    2.6136 C   0  0  0  0  0  3  0  0  0  0  0  0
    3.3454    4.7683    3.4240 C   0  0  0  0  0  0  0  0  0  0  0  0
    3.2931    6.1338    3.3600 C   0  0  0  0  0  3  0  0  0  0  0  0
    4.4058    6.6964    3.7773 C   0  0  0  0  0  3  0  0  0  0  0  0
    5.4836    6.1252    4.2061 C   0  0  0  0  0  3  0  0  0  0  0  0
    5.5661    4.8209    4.2962 C   0  0  0  0  0  3  0  0  0  0  0  0
    4.5168    4.0415    3.9207 C   0  0  0  0  0  0  0  0  0  0  0  0
    2.1989    0.3804    5.5365 C   0  0  0  0  0  0  0  0  0  0  0  0
    1.5104   -0.1132    6.7027 C   0  0  0  0  0  0  0  0  0  0  0  0
    0.4647    0.7149    6.9695 C   0  0  0  0  0  3  0  0  0  0  0  0
    0.1053    1.7010    6.2540 C   0  0  0  0  0  3  0  0  0  0  0  0
    0.6128    2.2248    5.0911 C   0  0  0  0  0  0  0  0  0  0  0  0
    1.7758    1.4550    4.7646 C   0  0  0  0  0  0  0  0  0  0  0  0
    4.9925    0.0748    5.9566 C   0  0  0  0  0  0  0  0  0  0  0  0
    5.2431   -0.4357    7.2056 C   0  0  0  0  0  3  0  0  0  0  0  0
    6.2902    0.0435    7.8249 C   0  0  0  0  0  3  0  0  0  0  0  0
    7.1000    0.9453    7.3706 C   0  0  0  0  0  3  0  0  0  0  0  0
    6.9344    1.4995    6.1933 C   0  0  0  0  0  3  0  0  0  0  0  0
    5.8793    1.0912    5.4271 C   0  0  0  0  0  0  0  0  0  0  0  0
    3.1089   -1.8351    6.5062 C   0  0  0  0  0  0  0  0  0  0  0  0
    2.0158   -1.3482    7.2372 C   0  0  0  0  0  0  0  0  0  0  0  0
    1.5262   -2.0609    8.3236 C   0  0  0  0  0  0  0  0  0  0  0  0
    2.1263   -3.2596    8.6650 C   0  0  0  0  0  0  0  0  0  0  0  0
    3.1954   -3.7510    7.9280 C   0  0  0  0  0  0  0  0  0  0  0  0
    3.6854   -3.0474    6.8389 C   0  0  0  0  0  0  0  0  0  0  0  0
    4.3488    2.5897    4.1380 C   0  0  2  0  0  0  0  0  0  0  0  0
    5.6371    1.7421    4.0813 C   0  0  1  0  0  0  0  0  0  0  0  0
    5.5089    0.5887    3.0922 C   0  0  2  0  0  3  0  0  0  0  0  0
    6.6305   -0.9824    1.7957 C   0  0  0  0  0  0  0  0  0  0  0  0
    8.0583   -1.3158    1.4164 C   0  0  0  0  0  0  0  0  0  0  0  0
    9.4987    2.4299    2.5783 C   0  0  0  0  0  0  0  0  0  0  0  0
    6.5500    5.0688    1.0728 C   0  0  0  0  0  0  0  0  0  0  0  0
    0.6841   -1.6794    8.8816 H   0  0  0  0  0  0  0  0  0  0  0  0
    1.7544   -3.8243    9.5070 H   0  0  0  0  0  0  0  0  0  0  0  0
    3.6438   -4.6951    8.2004 H   0  0  0  0  0  0  0  0  0  0  0  0
    4.5132   -3.4335    6.2613 H   0  0  0  0  0  0  0  0  0  0  0  0
    3.9441    2.4940    5.1621 H   0  0  0  0  0  0  0  0  0  0  0  0
    6.1044   -1.8427    2.2234 H   0  0  0  0  0  0  0  0  0  0  0  0
    6.0607   -0.6112    0.9381 H   0  0  0  0  0  0  0  0  0  0  0  0
    8.0577   -2.0898    0.6546 H   0  0  0  0  0  0  0  0  0  0  0  0
    8.6078   -1.6699    2.2847 H   0  0  0  0  0  0  0  0  0  0  0  0
    8.5469   -0.4271    1.0274 H   0  0  0  0  0  0  0  0  0  0  0  0
   10.3514    1.9674    2.0836 H   0  0  0  0  0  0  0  0  0  0  0  0
    9.3926    2.0411    3.5911 H   0  0  0  0  0  0  0  0  0  0  0  0
    9.6272    3.5117    2.6194 H   0  0  0  0  0  0  0  0  0  0  0  0
    7.2749    5.3879    0.3233 H   0  0  0  0  0  0  0  0  0  0  0  0
    6.1010    5.9400    1.5498 H   0  0  0  0  0  0  0  0  0  0  0  0
    5.7714    4.4704    0.5974 H   0  0  0  0  0  0  0  0  0  0  0  0
  1 48  1  0  0  0  0
  1 35  1  0  0  0  0
  2  1  1  0  0  0  0
  3 12  1  6  0  0  0
  3  1  1  0  0  0  0
  3 18  1  0  0  0  0
  3 24  1  0  0  0  0
  4 30  1  1  0  0  0
  4 36  1  0  0  0  0
  4 42  1  0  0  0  0
  5  8  1  0  0  0  0
  6  1  1  0  0  0  0
  6 50  1  0  0  0  0
  9  5  2  0  0  0  0
 10  5  1  0  0  0  0
 10 53  1  0  0  0  0
 11  5  1  0  0  0  0
 13 12  1  0  0  0  0
 13  1  1  0  0  0  0
 14 13  2  0  0  0  0
 15 16  2  0  0  0  0
 15 14  1  0  0  0  0
 16 17  1  0  0  0  0
 17 12  2  0  0  0  0
 18 19  1  0  0  0  0
 19 20  2  0  0  0  0
 19 34  1  0  0  0  0
 21 20  1  0  0  0  0
 22 21  2  0  0  0  0
 23 22  1  0  0  0  0
 23 18  2  0  0  0  0
 24 29  1  0  0  0  0
 25 24  2  0  0  0  0
 25 26  1  0  0  0  0
 26 27  2  0  0  0  0
 27 28  1  0  0  0  0
 29 48  1  0  0  0  0
 29 28  2  0  0  0  0
 30 31  1  0  0  0  0
 31 32  2  0  0  0  0
 31 43  1  0  0  0  0
 33 32  1  0  0  0  0
 34 33  2  0  0  0  0
 35 34  1  0  0  0  0
 35 30  2  0  0  0  0
 36 37  1  0  0  0  0
 37 38  2  0  0  0  0
 39 38  1  0  0  0  0
 40 39  2  0  0  0  0
 41 36  2  0  0  0  0
 41 40  1  0  0  0  0
 42 47  2  0  0  0  0
 42 43  1  0  0  0  0
 43 44  2  0  0  0  0
 44 45  1  0  0  0  0
 44 55  1  0  0  0  0
 45 56  1  0  0  0  0
 46 57  1  0  0  0  0
 46 45  2  0  0  0  0
 47 46  1  0  0  0  0
 48 59  1  1  0  0  0
 49  8  1  6  0  0  0
 49 48  1  0  0  0  0
 49 41  1  0  0  0  0
 50  7  1  1  0  0  0
 50 49  1  0  0  0  0
 51 60  1  0  0  0  0
 51  7  1  0  0  0  0
 52 51  1  0  0  0  0
 52 63  1  0  0  0  0
 53 67  1  0  0  0  0
 53 66  1  0  0  0  0
 54 69  1  0  0  0  0
 54 11  1  0  0  0  0
 58 47  1  0  0  0  0
 61 51  1  0  0  0  0
 62 52  1  0  0  0  0
 64 52  1  0  0  0  0
 65 53  1  0  0  0  0
 68 54  1  0  0  0  0
 70 54  1  0  0  0  0
M  END
$$$$
