CSD_code = YIRKOZ | q = 1 | S = 0 | Stoichiometry = C2H9ClN3Pt(1+) | MND = 4
 OpenBabel04212202123D

 16 15  0  0  0  0  0  0  0  0999 V2000
    0.8851    0.8341    1.4470 Pt  0  0  0  0  0  0  0  0  0  0  0  0
    0.0449    2.8176    0.8399 Cl  0  0  0  0  0  0  0  0  0  0  0  0
    4.4121    2.6032   -0.5639 C   0  0  0  0  0  0  0  0  0  0  0  0
    3.3679    1.9179    0.1047 C   0  0  0  0  0  2  0  0  0  0  0  0
   -0.9668    0.4839    2.2426 N   0  0  0  0  0  4  0  0  0  0  0  0
    1.6737   -1.1241    2.0671 N   0  0  0  0  0  4  0  0  0  0  0  0
    2.5405    1.3337    0.6531 N   0  0  0  0  0  2  0  0  0  0  0  0
   -0.9886    0.3443    3.2543 H   0  0  0  0  0  0  0  0  0  0  0  0
   -1.4912   -0.2744    1.8025 H   0  0  0  0  0  0  0  0  0  0  0  0
   -1.4677    1.3604    2.0405 H   0  0  0  0  0  0  0  0  0  0  0  0
    3.9872    3.4269   -1.1399 H   0  0  0  0  0  0  0  0  0  0  0  0
    4.9356    1.9273   -1.2408 H   0  0  0  0  0  0  0  0  0  0  0  0
    5.1184    3.0054    0.1633 H   0  0  0  0  0  0  0  0  0  0  0  0
    1.0590   -1.8896    1.7990 H   0  0  0  0  0  0  0  0  0  0  0  0
    1.8035   -1.1559    3.0766 H   0  0  0  0  0  0  0  0  0  0  0  0
    2.5800   -1.2925    1.6350 H   0  0  0  0  0  0  0  0  0  0  0  0
  1  6  1  0  0  0  0
  1  5  1  0  0  0  0
  2  1  1  0  0  0  0
  3  4  1  0  0  0  0
  3 13  1  0  0  0  0
  4  7  1  0  0  0  0
  5  8  1  0  0  0  0
  6 15  1  0  0  0  0
  7  1  1  0  0  0  0
  9  5  1  0  0  0  0
 10  5  1  0  0  0  0
 11  3  1  0  0  0  0
 12  3  1  0  0  0  0
 14  6  1  0  0  0  0
 16  6  1  0  0  0  0
M  END
$$$$
