CSD_code = YISNOF | q = 0 | S = 0 | Stoichiometry = C20H26ClNOOs | MND = 9
 OpenBabel04212202123D

 50 51  0  0  1  0  0  0  0  0999 V2000
    5.4817   12.3239    9.0241 Cl  0  0  0  0  0 15  0  0  0  0  0  0
    4.6981    9.7113   10.7287 O   0  0  0  0  0  0  0  0  0  0  0  0
    3.5135   10.2004    8.1728 N   0  0  0  0  0  0  0  0  0  0  0  0
    5.3507    8.8024   10.0819 C   0  0  0  0  0  0  0  0  0  0  0  0
    6.3073    8.0442   10.7981 C   0  0  0  0  0  0  0  0  0  0  0  0
    6.4640    8.3076   11.8330 H   0  0  0  0  0  0  0  0  0  0  0  0
    7.0074    7.0233   10.2126 C   0  0  0  0  0  0  0  0  0  0  0  0
    7.7348    6.4720   10.7904 H   0  0  0  0  0  0  0  0  0  0  0  0
    6.7902    6.6925    8.8730 C   0  0  0  0  0  0  0  0  0  0  0  0
    7.3463    5.8886    8.4158 H   0  0  0  0  0  0  0  0  0  0  0  0
    5.8661    7.3993    8.1493 C   0  0  0  0  0  3  0  0  0  0  0  0
    5.6923    7.1517    7.1113 H   0  0  0  0  0  0  0  0  0  0  0  0
    5.1306    8.4602    8.7107 C   0  0  0  0  0  0  0  0  0  0  0  0
    4.1815    9.1251    7.8813 C   0  0  0  0  0  0  0  0  0  0  0  0
    4.0128    8.6602    6.9097 H   0  0  0  0  0  0  0  0  0  0  0  0
    2.5697   10.7078    7.1881 C   0  0  0  0  0  0  0  0  0  0  0  0
    1.5959   10.8381    7.6803 H   0  0  0  0  0  0  0  0  0  0  0  0
    2.4432    9.9794    6.3775 H   0  0  0  0  0  0  0  0  0  0  0  0
    3.0187   12.0487    6.5925 C   0  0  0  0  0  0  0  0  0  0  0  0
    3.2313   12.7477    7.4079 H   0  0  0  0  0  0  0  0  0  0  0  0
    2.1960   12.4516    5.9976 H   0  0  0  0  0  0  0  0  0  0  0  0
    4.2654   11.8946    5.7324 C   0  0  0  0  0  0  0  0  0  0  0  0
    5.0955   11.5533    6.3450 H   0  0  0  0  0  0  0  0  0  0  0  0
    4.5389   12.8508    5.2953 H   0  0  0  0  0  0  0  0  0  0  0  0
    4.0959   11.1810    4.9284 H   0  0  0  0  0  0  0  0  0  0  0  0
    2.8873   14.9812    9.8048 C   0  0  0  0  0  0  0  0  0  0  0  0
    2.1716   15.3486    9.0732 H   0  0  0  0  0  0  0  0  0  0  0  0
    3.8610   14.8685    9.3283 H   0  0  0  0  0  0  0  0  0  0  0  0
    2.9878   15.7232   10.5967 H   0  0  0  0  0  0  0  0  0  0  0  0
    2.4475   13.6709   10.3825 C   0  0  0  0  0  0  0  0  0  0  0  0
    1.2071   13.1222   10.1037 C   0  0  0  0  0  0  0  0  0  0  0  0
    0.5307   13.6377    9.4359 H   0  0  0  0  0  0  0  0  0  0  0  0
    0.7872   11.9300   10.7113 C   0  0  0  0  0  0  0  0  0  0  0  0
   -0.2013   11.5564   10.4873 H   0  0  0  0  0  0  0  0  0  0  0  0
    1.5978   11.2576   11.6105 C   0  0  0  0  0  0  0  0  0  0  0  0
    2.8956   11.7679   11.8619 C   0  0  2  0  0  0  0  0  0  0  0  0
    3.4825   11.3415   12.6705 H   0  0  0  0  0  0  0  0  0  0  0  0
    3.3187   12.9657   11.2472 C   0  0  0  0  0  3  0  0  0  0  0  0
    4.2303   13.4541   11.5786 H   0  0  0  0  0  0  0  0  0  0  0  0
    1.1652    9.9705   12.2712 C   0  0  0  0  0  0  0  0  0  0  0  0
    1.8712    9.7521   13.0799 H   0  0  0  0  0  0  0  0  0  0  0  0
   -0.2380   10.0591   12.8716 C   0  0  0  0  0  0  0  0  0  0  0  0
   -0.9935   10.1707   12.0977 H   0  0  0  0  0  0  0  0  0  0  0  0
   -0.3100   10.9069   13.5495 H   0  0  0  0  0  0  0  0  0  0  0  0
   -0.4593    9.1519   13.4291 H   0  0  0  0  0  0  0  0  0  0  0  0
    1.2558    8.8332   11.2470 C   0  0  0  0  0  0  0  0  0  0  0  0
    1.0358    7.8777   11.7178 H   0  0  0  0  0  0  0  0  0  0  0  0
    2.2629    8.7870   10.8273 H   0  0  0  0  0  0  0  0  0  0  0  0
    0.5463    8.9894   10.4360 H   0  0  0  0  0  0  0  0  0  0  0  0
    3.6561   11.2224    9.8314 Os  0  0  0  0  0  0  0  0  0  0  0  0
  3 50  1  0  0  0  0
  4  2  1  0  0  0  0
  4  5  2  0  0  0  0
  5  6  1  0  0  0  0
  7  8  1  0  0  0  0
  7  5  1  0  0  0  0
  9  7  2  0  0  0  0
 10  9  1  0  0  0  0
 11 13  1  0  0  0  0
 11  9  1  0  0  0  0
 12 11  1  0  0  0  0
 13  4  1  0  0  0  0
 14  3  1  0  0  0  0
 14 13  2  0  0  0  0
 15 14  1  0  0  0  0
 16 17  1  0  0  0  0
 16  3  1  0  0  0  0
 18 16  1  0  0  0  0
 19 16  1  0  0  0  0
 19 20  1  0  0  0  0
 21 19  1  0  0  0  0
 22 23  1  0  0  0  0
 22 19  1  0  0  0  0
 24 22  1  0  0  0  0
 25 22  1  0  0  0  0
 26 30  1  0  0  0  0
 26 29  1  0  0  0  0
 27 26  1  0  0  0  0
 28 26  1  0  0  0  0
 30 38  1  0  0  0  0
 31 30  2  0  0  0  0
 31 33  1  0  0  0  0
 32 31  1  0  0  0  0
 33 35  2  0  0  0  0
 34 33  1  0  0  0  0
 35 36  1  0  0  0  0
 35 40  1  0  0  0  0
 36 37  1  1  0  0  0
 38 39  1  0  0  0  0
 38 36  1  0  0  0  0
 40 42  1  0  0  0  0
 40 41  1  0  0  0  0
 42 45  1  0  0  0  0
 42 44  1  0  0  0  0
 43 42  1  0  0  0  0
 46 47  1  0  0  0  0
 46 40  1  0  0  0  0
 48 46  1  0  0  0  0
 49 46  1  0  0  0  0
 50  2  1  0  0  0  0
 50 36  1  0  0  0  0
M  END
$$$$
