CSD_code = YISNAR | q = 1 | S = 0 | Stoichiometry = C19H26ClN2Os(1+) | MND = 9
 OpenBabel04212202123D

 49 51  0  0  1  0  0  0  0  0999 V2000
   -0.1267    5.8138    3.0771 C   0  0  0  0  0  3  0  0  0  0  0  0
    0.6390    5.0755    3.2733 H   0  0  0  0  0  0  0  0  0  0  0  0
   -1.4151    5.4248    2.7716 C   0  0  0  0  0  0  0  0  0  0  0  0
   -1.6589    4.3771    2.7127 H   0  0  0  0  0  0  0  0  0  0  0  0
   -2.3895    6.3994    2.5600 C   0  0  0  0  0  0  0  0  0  0  0  0
   -3.4037    6.1159    2.3305 H   0  0  0  0  0  0  0  0  0  0  0  0
   -2.0343    7.7273    2.6636 C   0  0  0  0  0  0  0  0  0  0  0  0
   -2.7552    8.5162    2.5238 H   0  0  0  0  0  0  0  0  0  0  0  0
   -0.7121    8.0576    2.9736 C   0  0  0  0  0  0  0  0  0  0  0  0
   -0.1769    9.3720    3.1206 C   0  0  0  0  0  3  0  0  0  0  0  0
   -0.7836   10.2586    3.0024 H   0  0  0  0  0  0  0  0  0  0  0  0
    1.7313   10.7157    3.5487 C   0  0  0  0  0  0  0  0  0  0  0  0
    2.7510   10.5538    3.9070 H   0  0  0  0  0  0  0  0  0  0  0  0
    1.1922   11.2954    4.3051 H   0  0  0  0  0  0  0  0  0  0  0  0
    1.7677   11.4998    2.2290 C   0  0  0  0  0  0  0  0  0  0  0  0
    0.7487   11.6770    1.8840 H   0  0  0  0  0  0  0  0  0  0  0  0
    2.2289   12.4687    2.4198 H   0  0  0  0  0  0  0  0  0  0  0  0
    2.5473   10.7587    1.1516 C   0  0  0  0  0  0  0  0  0  0  0  0
    3.5935   10.6658    1.4322 H   0  0  0  0  0  0  0  0  0  0  0  0
    2.4964   11.3012    0.2119 H   0  0  0  0  0  0  0  0  0  0  0  0
    2.1278    9.7639    0.9964 H   0  0  0  0  0  0  0  0  0  0  0  0
    4.5011    7.5487    4.6913 C   0  0  0  0  0  0  0  0  0  0  0  0
    4.5670    8.2325    3.4714 C   0  0  0  0  0  0  0  0  0  0  0  0
    5.0560    9.1955    3.4216 H   0  0  0  0  0  0  0  0  0  0  0  0
    4.0808    7.6541    2.2879 C   0  0  1  0  0  0  0  0  0  0  0  0
    4.2157    8.1717    1.3469 H   0  0  0  0  0  0  0  0  0  0  0  0
    3.5516    6.3503    2.2809 C   0  0  2  0  0  3  0  0  0  0  0  0
    3.5122    5.6496    3.5065 C   0  0  0  0  0  0  0  0  0  0  0  0
    3.1950    4.6149    3.5159 H   0  0  0  0  0  0  0  0  0  0  0  0
    3.9557    6.2443    4.6840 C   0  0  0  0  0  0  0  0  0  0  0  0
    3.9545    5.6721    5.6029 H   0  0  0  0  0  0  0  0  0  0  0  0
    5.0862    8.1243    5.9556 C   0  0  0  0  0  0  0  0  0  0  0  0
    4.8052    7.4716    6.7879 H   0  0  0  0  0  0  0  0  0  0  0  0
    6.6150    8.1407    5.8482 C   0  0  0  0  0  0  0  0  0  0  0  0
    6.9991    7.1417    5.6545 H   0  0  0  0  0  0  0  0  0  0  0  0
    7.0431    8.4978    6.7804 H   0  0  0  0  0  0  0  0  0  0  0  0
    6.9428    8.7984    5.0465 H   0  0  0  0  0  0  0  0  0  0  0  0
    4.5400    9.5231    6.2484 C   0  0  0  0  0  0  0  0  0  0  0  0
    4.8788   10.2458    5.5094 H   0  0  0  0  0  0  0  0  0  0  0  0
    4.8897    9.8538    7.2221 H   0  0  0  0  0  0  0  0  0  0  0  0
    3.4508    9.5068    6.2651 H   0  0  0  0  0  0  0  0  0  0  0  0
    3.1889    5.6735    0.9955 C   0  0  0  0  0  0  0  0  0  0  0  0
    2.8846    6.3937    0.2396 H   0  0  0  0  0  0  0  0  0  0  0  0
    2.3908    4.9479    1.1356 H   0  0  0  0  0  0  0  0  0  0  0  0
    4.0600    5.1382    0.6151 H   0  0  0  0  0  0  0  0  0  0  0  0
    1.1984    7.7693    5.8729 Cl  0  0  0  0  0  0  0  0  0  0  0  0
    0.2371    7.0940    3.1666 N   0  0  0  0  0  0  0  0  0  0  0  0
    1.0996    9.4218    3.4020 N   0  0  0  0  0  0  0  0  0  0  0  0
    1.9921    7.7535    3.7541 Os  0  0  2  0  0  0  0  0  0  0  0  0
  1 47  1  0  0  0  0
  1  2  1  0  0  0  0
  3  1  1  0  0  0  0
  4  3  1  0  0  0  0
  5  7  1  0  0  0  0
  5  3  2  0  0  0  0
  6  5  1  0  0  0  0
  7  9  2  0  0  0  0
  8  7  1  0  0  0  0
  9 10  1  0  0  0  0
  9 47  1  0  0  0  0
 10 48  1  0  0  0  0
 11 10  1  0  0  0  0
 12 13  1  0  0  0  0
 12 14  1  0  0  0  0
 15 17  1  0  0  0  0
 15 12  1  0  0  0  0
 16 15  1  0  0  0  0
 18 19  1  0  0  0  0
 18 15  1  0  0  0  0
 20 18  1  0  0  0  0
 21 18  1  0  0  0  0
 22 32  1  0  0  0  0
 23 22  2  0  0  0  0
 24 23  1  0  0  0  0
 25 26  1  6  0  0  0
 25 23  1  0  0  0  0
 25 49  1  0  0  0  0
 27 42  1  6  0  0  0
 27 25  1  0  0  0  0
 27 28  1  0  0  0  0
 28 29  1  0  0  0  0
 28 30  2  0  0  0  0
 30 22  1  0  0  0  0
 30 31  1  0  0  0  0
 32 38  1  0  0  0  0
 32 33  1  0  0  0  0
 34 32  1  0  0  0  0
 34 36  1  0  0  0  0
 35 34  1  0  0  0  0
 37 34  1  0  0  0  0
 38 41  1  0  0  0  0
 38 40  1  0  0  0  0
 39 38  1  0  0  0  0
 42 44  1  0  0  0  0
 43 42  1  0  0  0  0
 45 42  1  0  0  0  0
 47 49  1  0  0  0  0
 48 12  1  0  0  0  0
 48 49  1  0  0  0  0
 49 46  1  1  0  0  0
M  END
$$$$
