CSD_code = YITLIX | q = 0 | S = 0 | Stoichiometry = C10H10F3N2O3V | MND = 6
 OpenBabel04212202123D

 29 30  0  0  0  0  0  0  0  0999 V2000
    1.8320    1.5399    9.0730 V   0  0  0  0  0  0  0  0  0  0  0  0
    0.4870    1.0781    8.1851 F   0  0  0  0  0  0  0  0  0  0  0  0
    3.1961    1.2639   10.0071 F   0  0  0  0  0  0  0  0  0  0  0  0
    0.9587    2.2193   10.3473 F   0  0  0  0  0  0  0  0  0  0  0  0
    2.8331    0.2403    7.7390 O   0  0  0  0  0  0  0  0  0  0  0  0
    1.2770   -0.5313   10.0346 O   0  0  0  0  0  0  0  0  0  0  0  0
    2.2648    2.7542    8.2482 O   0  0  0  0  0  1  0  0  0  0  0  0
    2.5532    0.5683    6.5300 N   0  0  0  0  0  0  0  0  0  0  0  0
    1.7721   -0.6003   11.2033 N   0  0  0  0  0  0  0  0  0  0  0  0
    3.2401    1.5535    5.9267 C   0  0  0  0  0  3  0  0  0  0  0  0
    3.9838    2.0427    6.5425 H   0  0  0  0  0  0  0  0  0  0  0  0
    2.9556    1.9236    4.6319 C   0  0  0  0  0  0  0  0  0  0  0  0
    3.5150    2.7259    4.1780 H   0  0  0  0  0  0  0  0  0  0  0  0
    1.9501    1.2699    3.9331 C   0  0  0  0  0  0  0  0  0  0  0  0
    1.7051    1.5540    2.9225 H   0  0  0  0  0  0  0  0  0  0  0  0
    1.2616    0.2495    4.5712 C   0  0  0  0  0  0  0  0  0  0  0  0
    0.4692   -0.2840    4.0709 H   0  0  0  0  0  0  0  0  0  0  0  0
    1.5852   -0.0855    5.8677 C   0  0  0  0  0  0  0  0  0  0  0  0
    1.0705   -0.8495    6.4341 H   0  0  0  0  0  0  0  0  0  0  0  0
    2.9654   -1.1954   11.3975 C   0  0  0  0  0  3  0  0  0  0  0  0
    3.4501   -1.5544   10.5006 H   0  0  0  0  0  0  0  0  0  0  0  0
    3.5266   -1.2802   12.6503 C   0  0  0  0  0  0  0  0  0  0  0  0
    4.4900   -1.7512   12.7644 H   0  0  0  0  0  0  0  0  0  0  0  0
    2.8556   -0.7543   13.7445 C   0  0  0  0  0  0  0  0  0  0  0  0
    3.2829   -0.8038   14.7326 H   0  0  0  0  0  0  0  0  0  0  0  0
    1.6246   -0.1523   13.5290 C   0  0  0  0  0  0  0  0  0  0  0  0
    1.0672    0.2781   14.3459 H   0  0  0  0  0  0  0  0  0  0  0  0
    1.1037   -0.0920   12.2573 C   0  0  0  0  0  0  0  0  0  0  0  0
    0.1618    0.3851   12.0235 H   0  0  0  0  0  0  0  0  0  0  0  0
  1  3  1  0  0  0  0
  1  6  1  0  0  0  0
  1  4  1  0  0  0  0
  2  1  1  0  0  0  0
  5  1  1  0  0  0  0
  6  9  1  0  0  0  0
  7  1  1  0  0  0  0
  8  5  1  0  0  0  0
  9 20  1  0  0  0  0
  9 28  1  0  0  0  0
 10  8  1  0  0  0  0
 10 11  1  0  0  0  0
 12 10  1  0  0  0  0
 13 12  1  0  0  0  0
 14 16  1  0  0  0  0
 14 12  2  0  0  0  0
 15 14  1  0  0  0  0
 16 18  2  0  0  0  0
 17 16  1  0  0  0  0
 18 19  1  0  0  0  0
 18  8  1  0  0  0  0
 20 22  1  0  0  0  0
 21 20  1  0  0  0  0
 22 23  1  0  0  0  0
 22 24  2  0  0  0  0
 24 25  1  0  0  0  0
 26 24  1  0  0  0  0
 26 27  1  0  0  0  0
 28 26  2  0  0  0  0
 29 28  1  0  0  0  0
M  END
$$$$
