CSD_code = YIVFOY | q = 1 | S = 0 | Stoichiometry = C16H11ClF3N4O3OsS(1+) | MND = 6
 OpenBabel04212202123D

 40 44  0  0  1  0  0  0  0  0999 V2000
    2.2327    1.2346    4.6725 Os  0  0  0  0  0  0  0  0  0  0  0  0
    3.3840   -0.6312    5.2719 Cl  0  0  0  0  0  0  0  0  0  0  0  0
   -0.4452    1.0228    6.5919 S   0  0  0  0  0  0  0  0  0  0  0  0
   -2.1163    0.0585    8.4009 F   0  0  0  0  0  0  0  0  0  0  0  0
   -1.0219   -1.4261    7.2755 F   0  0  0  0  0  0  0  0  0  0  0  0
   -0.0211   -0.2780    8.8092 F   0  0  0  0  0  0  0  0  0  0  0  0
    0.8562    0.4889    6.1433 O   0  0  0  0  0  0  0  0  0  0  0  0
   -0.2837    2.2814    7.2678 O   0  0  0  0  0  1  0  0  0  0  0  0
   -1.4137    0.9861    5.5300 O   0  0  0  0  0  1  0  0  0  0  0  0
    0.9039    0.3206    3.3564 N   0  0  0  0  0  0  0  0  0  0  0  0
    0.8360    2.6266    4.5790 N   0  0  0  0  0  0  0  0  0  0  0  0
    2.8270    2.4450    6.2591 N   0  0  0  0  0  0  0  0  0  0  0  0
    3.3927    1.6828    3.5793 N   0  0  0  0  0  1  0  0  0  0  0  0
    0.9655   -0.9146    2.8755 C   0  0  0  0  0  3  0  0  0  0  0  0
   -0.0450   -1.4488    2.0898 C   0  0  0  0  0  0  0  0  0  0  0  0
   -1.1466   -0.6603    1.7975 C   0  0  0  0  0  0  0  0  0  0  0  0
   -1.2048    0.6322    2.2985 C   0  0  0  0  0  0  0  0  0  0  0  0
   -0.1666    1.1078    3.0909 C   0  0  0  0  0  0  0  0  0  0  0  0
   -0.1937    2.4234    3.7546 C   0  0  1  0  0  3  0  0  0  0  0  0
   -1.1897    3.3925    3.6636 C   0  0  0  0  0  0  0  0  0  0  0  0
   -1.0914    4.5161    4.4732 C   0  0  0  0  0  0  0  0  0  0  0  0
   -0.0500    4.6514    5.3812 C   0  0  0  0  0  0  0  0  0  0  0  0
    0.9170    3.6504    5.4313 C   0  0  0  0  0  0  0  0  0  0  0  0
    2.0213    3.5255    6.3993 C   0  0  1  0  0  3  0  0  0  0  0  0
    2.2034    4.3999    7.4643 C   0  0  0  0  0  0  0  0  0  0  0  0
    3.2032    4.1485    8.3929 C   0  0  0  0  0  0  0  0  0  0  0  0
    4.0095    3.0330    8.2317 C   0  0  0  0  0  0  0  0  0  0  0  0
    3.7875    2.2039    7.1421 C   0  0  0  0  0  0  0  0  0  0  0  0
   -0.9454   -0.2344    7.8564 C   0  0  0  0  0  0  0  0  0  0  0  0
    1.8522   -1.4850    3.1276 H   0  0  0  0  0  0  0  0  0  0  0  0
    0.0377   -2.4593    1.7232 H   0  0  0  0  0  0  0  0  0  0  0  0
   -1.9547   -1.0440    1.1934 H   0  0  0  0  0  0  0  0  0  0  0  0
   -2.0587    1.2564    2.0947 H   0  0  0  0  0  0  0  0  0  0  0  0
   -2.0309    3.2678    3.0031 H   0  0  0  0  0  0  0  0  0  0  0  0
   -1.8535    5.2789    4.4198 H   0  0  0  0  0  0  0  0  0  0  0  0
   -0.0116    5.4982    6.0452 H   0  0  0  0  0  0  0  0  0  0  0  0
    1.5568    5.2537    7.5792 H   0  0  0  0  0  0  0  0  0  0  0  0
    3.3426    4.8132    9.2320 H   0  0  0  0  0  0  0  0  0  0  0  0
    4.7953    2.7999    8.9322 H   0  0  0  0  0  0  0  0  0  0  0  0
    4.3936    1.3227    6.9645 H   0  0  0  0  0  0  0  0  0  0  0  0
  1  2  1  0  0  0  0
  1  7  1  0  0  0  0
  1 12  1  0  0  0  0
  3  8  1  0  0  0  0
  3 29  1  0  0  0  0
  5 29  1  0  0  0  0
  7  3  1  0  0  0  0
  9  3  1  0  0  0  0
 10  1  1  0  0  0  0
 11  1  1  0  0  0  0
 11 23  1  0  0  0  0
 12 24  1  0  0  0  0
 12 28  1  0  0  0  0
 13  1  1  0  0  0  0
 14 30  1  0  0  0  0
 14 10  1  0  0  0  0
 15 14  1  0  0  0  0
 16 15  2  0  0  0  0
 16 17  1  0  0  0  0
 17 18  2  0  0  0  0
 18 10  1  0  0  0  0
 19 18  1  1  0  0  0
 19 11  1  0  0  0  0
 20 19  1  0  0  0  0
 20 21  2  0  0  0  0
 21 22  1  0  0  0  0
 22 23  2  0  0  0  0
 22 36  1  0  0  0  0
 24 23  1  1  0  0  0
 24 25  1  0  0  0  0
 25 37  1  0  0  0  0
 25 26  2  0  0  0  0
 26 38  1  0  0  0  0
 27 26  1  0  0  0  0
 27 39  1  0  0  0  0
 28 27  2  0  0  0  0
 29  4  1  0  0  0  0
 29  6  1  0  0  0  0
 31 15  1  0  0  0  0
 32 16  1  0  0  0  0
 33 17  1  0  0  0  0
 34 20  1  0  0  0  0
 35 21  1  0  0  0  0
 40 28  1  0  0  0  0
M  END
$$$$
