CSD_code = YIVHEQ | q = 0 | S = 0 | Stoichiometry = C18H32I2N4Ni | MND = 4
 OpenBabel04212202123D

 57 58  0  0  1  0  0  0  0  0999 V2000
   32.0520    4.5794    0.0001 Ni  0  0  0  0  0  0  0  0  0  0  0  0
   31.8947    3.1794   -2.0502 I   0  0  0  0  0  0  0  0  0  0  0  0
   32.4650    6.0897   -1.0629 C   0  0  2  0  0  3  0  0  0  0  0  0
   33.6862    6.5031   -1.4409 N   0  0  0  0  0  0  0  0  0  0  0  0
   34.9137    5.8249   -1.0752 C   0  0  0  0  0  0  0  0  0  0  0  0
   35.6324    5.3185   -2.3212 C   0  0  0  0  0  0  0  0  0  0  0  0
   35.7898    6.7360   -0.2218 C   0  0  0  0  0  0  0  0  0  0  0  0
   33.5807    7.6353   -2.2037 C   0  0  0  0  0  0  0  0  0  0  0  0
   32.2635    7.9254   -2.2978 C   0  0  0  0  0  0  0  0  0  0  0  0
   31.5921    6.9645   -1.5901 N   0  0  0  0  0  0  0  0  0  0  0  0
   30.1564    6.8711   -1.4157 C   0  0  0  0  0  0  0  0  0  0  0  0
   29.4709    6.6588   -2.7613 C   0  0  0  0  0  0  0  0  0  0  0  0
   29.6300    8.0959   -0.6752 C   0  0  0  0  0  0  0  0  0  0  0  0
   34.6023    4.9579   -0.4664 H   0  0  0  0  0  0  0  0  0  0  0  0
   36.5052    4.7382   -2.0339 H   0  0  0  0  0  0  0  0  0  0  0  0
   35.9586    6.1490   -2.9432 H   0  0  0  0  0  0  0  0  0  0  0  0
   34.9711    4.6820   -2.9059 H   0  0  0  0  0  0  0  0  0  0  0  0
   36.6668    6.1921    0.1187 H   0  0  0  0  0  0  0  0  0  0  0  0
   35.2376    7.0822    0.6497 H   0  0  0  0  0  0  0  0  0  0  0  0
   36.1190    7.6009   -0.7933 H   0  0  0  0  0  0  0  0  0  0  0  0
   34.4315    8.1382   -2.6131 H   0  0  0  0  0  0  0  0  0  0  0  0
   31.7649    8.7255   -2.8035 H   0  0  0  0  0  0  0  0  0  0  0  0
   29.9927    5.9774   -0.7877 H   0  0  0  0  0  0  0  0  0  0  0  0
   28.4053    6.5052   -2.6130 H   0  0  0  0  0  0  0  0  0  0  0  0
   29.8806    5.7824   -3.2595 H   0  0  0  0  0  0  0  0  0  0  0  0
   29.6095    7.5240   -3.4058 H   0  0  0  0  0  0  0  0  0  0  0  0
   28.5686    7.9778   -0.4741 H   0  0  0  0  0  0  0  0  0  0  0  0
   29.7717    8.9964   -1.2686 H   0  0  0  0  0  0  0  0  0  0  0  0
   30.1503    8.2162    0.2730 H   0  0  0  0  0  0  0  0  0  0  0  0
   32.2091    5.9796    2.0500 I   0  0  0  0  0  0  0  0  0  0  0  0
   31.6390    3.0690    1.0628 C   0  0  0  0  0  0  0  0  0  0  0  0
   30.4178    2.6556    1.4409 N   0  0  0  0  0  0  0  0  0  0  0  0
   29.1904    3.3338    1.0752 C   0  0  0  0  0  0  0  0  0  0  0  0
   28.4716    3.8402    2.3212 C   0  0  0  0  0  0  0  0  0  0  0  0
   27.5988    4.4205    2.0340 H   0  0  0  0  0  0  0  0  0  0  0  0
   28.1454    3.0097    2.9433 H   0  0  0  0  0  0  0  0  0  0  0  0
   29.1329    4.4766    2.9059 H   0  0  0  0  0  0  0  0  0  0  0  0
   28.3143    2.4227    0.2218 C   0  0  0  0  0  0  0  0  0  0  0  0
   27.4372    2.9667   -0.1187 H   0  0  0  0  0  0  0  0  0  0  0  0
   28.8664    2.0765   -0.6497 H   0  0  0  0  0  0  0  0  0  0  0  0
   27.9850    1.5578    0.7933 H   0  0  0  0  0  0  0  0  0  0  0  0
   29.5017    4.2008    0.4664 H   0  0  0  0  0  0  0  0  0  0  0  0
   30.5233    1.5234    2.2037 C   0  0  0  0  0  0  0  0  0  0  0  0
   31.8405    1.2332    2.2977 C   0  0  0  0  0  0  0  0  0  0  0  0
   32.5119    2.1941    1.5901 N   0  0  0  0  0  0  0  0  0  0  0  0
   33.9476    2.2876    1.4156 C   0  0  0  0  0  0  0  0  0  0  0  0
   34.6332    2.4999    2.7613 C   0  0  0  0  0  0  0  0  0  0  0  0
   35.6987    2.6535    2.6129 H   0  0  0  0  0  0  0  0  0  0  0  0
   34.2234    3.3764    3.2594 H   0  0  0  0  0  0  0  0  0  0  0  0
   34.4945    1.6347    3.4058 H   0  0  0  0  0  0  0  0  0  0  0  0
   34.4740    1.0627    0.6752 C   0  0  0  0  0  0  0  0  0  0  0  0
   35.5354    1.1808    0.4741 H   0  0  0  0  0  0  0  0  0  0  0  0
   34.3323    0.1623    1.2687 H   0  0  0  0  0  0  0  0  0  0  0  0
   33.9536    0.9424   -0.2730 H   0  0  0  0  0  0  0  0  0  0  0  0
   34.1113    3.1812    0.7876 H   0  0  0  0  0  0  0  0  0  0  0  0
   32.3391    0.4332    2.8035 H   0  0  0  0  0  0  0  0  0  0  0  0
   29.6725    1.0205    2.6131 H   0  0  0  0  0  0  0  0  0  0  0  0
  1 31  2  0  0  0  0
  1 30  1  0  0  0  0
  2  1  1  0  0  0  0
  3  1  1  1  0  0  0
  4  5  1  0  0  0  0
  4  3  1  0  0  0  0
  5 14  1  0  0  0  0
  5  7  1  0  0  0  0
  6 15  1  0  0  0  0
  6  5  1  0  0  0  0
  7 18  1  0  0  0  0
  7 19  1  0  0  0  0
  8  4  1  0  0  0  0
  9  8  2  0  0  0  0
  9 10  1  0  0  0  0
 10 11  1  0  0  0  0
 10  3  1  0  0  0  0
 11 23  1  0  0  0  0
 11 13  1  0  0  0  0
 12 24  1  0  0  0  0
 12 11  1  0  0  0  0
 13 27  1  0  0  0  0
 13 29  1  0  0  0  0
 16  6  1  0  0  0  0
 17  6  1  0  0  0  0
 20  7  1  0  0  0  0
 21  8  1  0  0  0  0
 22  9  1  0  0  0  0
 25 12  1  0  0  0  0
 26 12  1  0  0  0  0
 28 13  1  0  0  0  0
 31 32  1  0  0  0  0
 31 45  1  0  0  0  0
 32 43  1  0  0  0  0
 33 32  1  0  0  0  0
 33 34  1  0  0  0  0
 34 37  1  0  0  0  0
 34 36  1  0  0  0  0
 35 34  1  0  0  0  0
 38 41  1  0  0  0  0
 38 33  1  0  0  0  0
 39 38  1  0  0  0  0
 40 38  1  0  0  0  0
 42 33  1  0  0  0  0
 43 44  2  0  0  0  0
 43 57  1  0  0  0  0
 44 56  1  0  0  0  0
 45 44  1  0  0  0  0
 46 45  1  0  0  0  0
 46 47  1  0  0  0  0
 47 49  1  0  0  0  0
 47 50  1  0  0  0  0
 48 47  1  0  0  0  0
 51 53  1  0  0  0  0
 51 46  1  0  0  0  0
 52 51  1  0  0  0  0
 54 51  1  0  0  0  0
 55 46  1  0  0  0  0
M  END
$$$$
