CSD_code = YIVRAZ | q = 0 | S = 0 | Stoichiometry = C23H26ClNO3P2PtS | MND = 4
 OpenBabel04212202123D

 58 61  0  0  0  0  0  0  0  0999 V2000
    3.7286    9.8648    3.5342 Pt  0  0  0  0  0  0  0  0  0  0  0  0
    5.5254    9.3774    2.2040 Cl  0  0  0  0  0  0  0  0  0  0  0  0
    4.9889    9.3453    5.9677 S   0  0  0  0  0  0  0  0  0  0  0  0
    2.6161    8.7962    1.8863 P   0  0  0  0  0  4  0  0  0  0  0  0
    2.0230   10.6428    4.8713 P   0  0  0  0  0  4  0  0  0  0  0  0
    6.4436   12.2873    4.3095 O   0  0  0  0  0  0  0  0  0  0  0  0
    4.0810    9.6449    7.0521 O   0  0  0  0  0  0  0  0  0  0  0  0
    4.7071    8.1050    5.2858 O   0  0  0  0  0  0  0  0  0  0  0  0
    5.0309   10.6084    4.9367 N   0  0  0  0  0  0  0  0  0  0  0  0
    2.4977   12.1418    5.8041 C   0  0  0  0  0  0  0  0  0  0  0  0
    3.1129   11.8265    6.6456 H   0  0  0  0  0  0  0  0  0  0  0  0
    1.6057   12.6591    6.1596 H   0  0  0  0  0  0  0  0  0  0  0  0
    3.0808   12.8007    5.1622 H   0  0  0  0  0  0  0  0  0  0  0  0
    1.1324    9.6833    6.1450 C   0  0  0  0  0  0  0  0  0  0  0  0
    0.5559    8.8809    5.6927 H   0  0  0  0  0  0  0  0  0  0  0  0
    0.4783   10.3479    6.7091 H   0  0  0  0  0  0  0  0  0  0  0  0
    1.8856    9.2681    6.8132 H   0  0  0  0  0  0  0  0  0  0  0  0
    2.7796    9.4982    0.2114 C   0  0  0  0  0  0  0  0  0  0  0  0
    2.3394   10.4922    0.1732 H   0  0  0  0  0  0  0  0  0  0  0  0
    2.3015    8.8438   -0.5168 H   0  0  0  0  0  0  0  0  0  0  0  0
    3.8464    9.5746    0.0043 H   0  0  0  0  0  0  0  0  0  0  0  0
    3.2165    7.0864    1.6629 C   0  0  0  0  0  0  0  0  0  0  0  0
    4.2336    7.1424    1.2791 H   0  0  0  0  0  0  0  0  0  0  0  0
    2.5708    6.5457    0.9710 H   0  0  0  0  0  0  0  0  0  0  0  0
    3.2392    6.5820    2.6272 H   0  0  0  0  0  0  0  0  0  0  0  0
    0.7342   11.3101    3.7695 C   0  0  0  0  0  0  0  0  0  0  0  0
   -0.6309   11.2260    3.9982 C   0  0  0  0  0  0  0  0  0  0  0  0
   -1.0082   10.7280    4.8782 H   0  0  0  0  0  0  0  0  0  0  0  0
   -1.5204   11.7735    3.0886 C   0  0  0  0  0  0  0  0  0  0  0  0
   -2.5828   11.6998    3.2685 H   0  0  0  0  0  0  0  0  0  0  0  0
   -1.0541   12.4142    1.9543 C   0  0  0  0  0  0  0  0  0  0  0  0
   -1.7520   12.8415    1.2498 H   0  0  0  0  0  0  0  0  0  0  0  0
    0.3100   12.5048    1.7219 C   0  0  0  0  0  0  0  0  0  0  0  0
    0.6751   13.0080    0.8385 H   0  0  0  0  0  0  0  0  0  0  0  0
    1.1979   11.9492    2.6224 C   0  0  0  0  0  0  0  0  0  0  0  0
    2.2714   12.0008    2.4549 H   0  0  0  0  0  0  0  0  0  0  0  0
    0.8309    8.5303    2.1291 C   0  0  0  0  0  0  0  0  0  0  0  0
   -0.1576    9.0323    1.2948 C   0  0  0  0  0  0  0  0  0  0  0  0
    0.1070    9.6118    0.4243 H   0  0  0  0  0  0  0  0  0  0  0  0
   -1.4916    8.7962    1.5805 C   0  0  0  0  0  0  0  0  0  0  0  0
   -2.2564    9.1912    0.9282 H   0  0  0  0  0  0  0  0  0  0  0  0
   -1.8476    8.0578    2.6953 C   0  0  0  0  0  0  0  0  0  0  0  0
   -2.8892    7.8752    2.9133 H   0  0  0  0  0  0  0  0  0  0  0  0
   -0.8647    7.5530    3.5326 C   0  0  0  0  0  0  0  0  0  0  0  0
   -1.1419    6.9728    4.4011 H   0  0  0  0  0  0  0  0  0  0  0  0
    0.4668    7.7933    3.2527 C   0  0  0  0  0  0  0  0  0  0  0  0
    1.2480    7.4130    3.8988 H   0  0  0  0  0  0  0  0  0  0  0  0
    6.1980   11.2780    4.9394 C   0  0  0  0  0  0  0  0  0  0  0  0
    7.1742   10.6298    5.8838 C   0  0  0  0  0  0  0  0  0  0  0  0
    8.4741   11.0484    6.1146 C   0  0  0  0  0  0  0  0  0  0  0  0
    8.8497   11.9254    5.6105 H   0  0  0  0  0  0  0  0  0  0  0  0
    9.2570   10.3120    6.9910 C   0  0  0  0  0  0  0  0  0  0  0  0
   10.2752   10.6167    7.1832 H   0  0  0  0  0  0  0  0  0  0  0  0
    8.7508    9.1852    7.6235 C   0  0  0  0  0  0  0  0  0  0  0  0
    9.3777    8.6239    8.3002 H   0  0  0  0  0  0  0  0  0  0  0  0
    7.4448    8.7676    7.3947 C   0  0  0  0  0  0  0  0  0  0  0  0
    7.0385    7.8936    7.8795 H   0  0  0  0  0  0  0  0  0  0  0  0
    6.6806    9.5027    6.5185 C   0  0  0  0  0  0  0  0  0  0  0  0
  1  5  1  0  0  0  0
  1  9  1  0  0  0  0
  2  1  1  0  0  0  0
  3 58  1  0  0  0  0
  3  7  2  0  0  0  0
  4 37  1  0  0  0  0
  4  1  1  0  0  0  0
  5 10  1  0  0  0  0
  5 14  1  0  0  0  0
  6 48  2  0  0  0  0
  8  3  2  0  0  0  0
  9 48  1  0  0  0  0
  9  3  1  0  0  0  0
 10 12  1  0  0  0  0
 10 11  1  0  0  0  0
 13 10  1  0  0  0  0
 14 16  1  0  0  0  0
 14 17  1  0  0  0  0
 15 14  1  0  0  0  0
 18  4  1  0  0  0  0
 19 18  1  0  0  0  0
 20 18  1  0  0  0  0
 21 18  1  0  0  0  0
 22  4  1  0  0  0  0
 22 25  1  0  0  0  0
 23 22  1  0  0  0  0
 24 22  1  0  0  0  0
 26 27  1  0  0  0  0
 26  5  1  0  0  0  0
 27 28  1  0  0  0  0
 29 30  1  0  0  0  0
 29 27  2  0  0  0  0
 31 29  1  0  0  0  0
 32 31  1  0  0  0  0
 33 31  2  0  0  0  0
 33 35  1  0  0  0  0
 34 33  1  0  0  0  0
 35 26  2  0  0  0  0
 36 35  1  0  0  0  0
 37 46  1  0  0  0  0
 38 40  1  0  0  0  0
 38 37  2  0  0  0  0
 39 38  1  0  0  0  0
 40 42  2  0  0  0  0
 41 40  1  0  0  0  0
 42 43  1  0  0  0  0
 42 44  1  0  0  0  0
 44 45  1  0  0  0  0
 46 44  2  0  0  0  0
 46 47  1  0  0  0  0
 48 49  1  0  0  0  0
 49 50  2  0  0  0  0
 49 58  1  0  0  0  0
 50 52  1  0  0  0  0
 51 50  1  0  0  0  0
 52 53  1  0  0  0  0
 52 54  2  0  0  0  0
 54 55  1  0  0  0  0
 56 54  1  0  0  0  0
 56 57  1  0  0  0  0
 58 56  2  0  0  0  0
M  END
$$$$
