CSD_code = YIWZAI | q = 0 | S = 0 | Stoichiometry = C23H29ClN4OPd | MND = 4
 OpenBabel04212202123D

 59 62  0  0  0  0  0  0  0  0999 V2000
    5.9022    4.0952    5.2362 Pd  0  0  1  0  0  0  0  0  0  0  0  0
    7.1864    4.0733    7.1081 Cl  0  0  0  0  0  0  0  0  0  0  0  0
    3.6513    3.0005    1.8881 O   0  0  0  0  0  0  0  0  0  0  0  0
    3.9041    2.5709    7.0222 N   0  0  0  0  0  0  0  0  0  0  0  0
    4.1859    1.8097    5.0306 N   0  0  0  0  0  0  0  0  0  0  0  0
    4.8212    4.1322    3.4982 N   0  0  0  0  0  0  0  0  0  0  0  0
    7.2675    5.3400    4.4067 N   0  0  0  0  0  0  0  0  0  0  0  0
    1.7723    6.2618    9.5839 C   0  0  0  0  0  0  0  0  0  0  0  0
    1.6428    6.8265    8.6634 H   0  0  0  0  0  0  0  0  0  0  0  0
    1.9203    6.9647   10.3997 H   0  0  0  0  0  0  0  0  0  0  0  0
    0.8576    5.7044    9.7741 H   0  0  0  0  0  0  0  0  0  0  0  0
    2.9627    5.3180    9.4690 C   0  0  0  0  0  0  0  0  0  0  0  0
    3.0883    4.7733   10.4070 H   0  0  0  0  0  0  0  0  0  0  0  0
    3.8727    5.8957    9.2975 H   0  0  0  0  0  0  0  0  0  0  0  0
    2.7821    4.3244    8.3249 C   0  0  0  0  0  0  0  0  0  0  0  0
    2.6592    4.8710    7.3879 H   0  0  0  0  0  0  0  0  0  0  0  0
    1.8775    3.7338    8.4906 H   0  0  0  0  0  0  0  0  0  0  0  0
    3.9935    3.3985    8.2008 C   0  0  0  0  0  0  0  0  0  0  0  0
    4.9126    3.9902    8.1143 H   0  0  0  0  0  0  0  0  0  0  0  0
    4.0707    2.7550    9.0817 H   0  0  0  0  0  0  0  0  0  0  0  0
    4.5949    2.7624    5.8865 C   0  0  0  0  0  0  0  0  0  0  0  0
    3.2349    1.0255    5.6177 C   0  0  0  0  0  0  0  0  0  0  0  0
    2.7693    0.2050    5.1116 H   0  0  0  0  0  0  0  0  0  0  0  0
    3.0600    1.5034    6.8750 C   0  0  0  0  0  0  0  0  0  0  0  0
    2.4173    1.1674    7.6622 H   0  0  0  0  0  0  0  0  0  0  0  0
    4.6615    1.7377    3.6751 C   0  0  0  0  0  0  0  0  0  0  0  0
    4.1835    0.9055    3.1568 H   0  0  0  0  0  0  0  0  0  0  0  0
    5.7541    1.5989    3.6768 H   0  0  0  0  0  0  0  0  0  0  0  0
    4.3268    3.0598    2.9069 C   0  0  0  0  0  0  0  0  0  0  0  0
    4.7493    5.4117    2.9323 C   0  0  0  0  0  0  0  0  0  0  0  0
    4.1828    6.4551    3.6837 C   0  0  0  0  0  0  0  0  0  0  0  0
    4.2021    7.7455    3.1833 C   0  0  0  0  0  0  0  0  0  0  0  0
    3.7618    8.5438    3.7657 H   0  0  0  0  0  0  0  0  0  0  0  0
    4.7708    8.0379    1.9517 C   0  0  0  0  0  0  0  0  0  0  0  0
    5.3232    6.9987    1.2196 C   0  0  0  0  0  0  0  0  0  0  0  0
    5.7705    7.2094    0.2577 H   0  0  0  0  0  0  0  0  0  0  0  0
    5.3247    5.6925    1.6837 C   0  0  0  0  0  0  0  0  0  0  0  0
    5.9505    4.6061    0.8666 C   0  0  0  0  0  0  0  0  0  0  0  0
    6.5693    3.9602    1.4916 H   0  0  0  0  0  0  0  0  0  0  0  0
    6.5614    5.0236    0.0694 H   0  0  0  0  0  0  0  0  0  0  0  0
    5.1705    3.9821    0.4298 H   0  0  0  0  0  0  0  0  0  0  0  0
    3.5747    6.1687    5.0291 C   0  0  0  0  0  0  0  0  0  0  0  0
    2.8277    5.3781    4.9341 H   0  0  0  0  0  0  0  0  0  0  0  0
    3.0968    7.0604    5.4294 H   0  0  0  0  0  0  0  0  0  0  0  0
    4.3534    5.8281    5.7478 H   0  0  0  0  0  0  0  0  0  0  0  0
    4.7687    9.4402    1.4203 C   0  0  0  0  0  0  0  0  0  0  0  0
    5.6007    9.5980    0.7375 H   0  0  0  0  0  0  0  0  0  0  0  0
    4.8337   10.1633    2.2308 H   0  0  0  0  0  0  0  0  0  0  0  0
    3.8444    9.6311    0.8739 H   0  0  0  0  0  0  0  0  0  0  0  0
    7.2367    6.6665    4.4751 C   0  0  0  0  0  3  0  0  0  0  0  0
    6.5113    7.1024    5.1535 H   0  0  0  0  0  0  0  0  0  0  0  0
    8.0853    7.4661    3.7292 C   0  0  0  0  0  0  0  0  0  0  0  0
    8.0191    8.5395    3.8046 H   0  0  0  0  0  0  0  0  0  0  0  0
    9.0074    6.8629    2.8894 C   0  0  0  0  0  0  0  0  0  0  0  0
    9.6770    7.4572    2.2865 H   0  0  0  0  0  0  0  0  0  0  0  0
    9.0611    5.4783    2.8489 C   0  0  0  0  0  0  0  0  0  0  0  0
    9.7752    4.9666    2.2231 H   0  0  0  0  0  0  0  0  0  0  0  0
    8.1721    4.7548    3.6245 C   0  0  0  0  0  0  0  0  0  0  0  0
    8.1876    3.6635    3.6318 H   0  0  0  0  0  0  0  0  0  0  0  0
  1 21  2  0  0  0  0
  1  2  1  1  0  0  0
  3 29  2  0  0  0  0
  4 18  1  0  0  0  0
  5 22  1  0  0  0  0
  5 21  1  0  0  0  0
  6  1  1  0  0  0  0
  7 50  1  0  0  0  0
  7  1  1  0  0  0  0
  8 11  1  0  0  0  0
  8 10  1  0  0  0  0
  9  8  1  0  0  0  0
 12  8  1  0  0  0  0
 12 13  1  0  0  0  0
 14 12  1  0  0  0  0
 15 17  1  0  0  0  0
 15 12  1  0  0  0  0
 16 15  1  0  0  0  0
 18 15  1  0  0  0  0
 18 20  1  0  0  0  0
 19 18  1  0  0  0  0
 21  4  1  0  0  0  0
 22 24  2  0  0  0  0
 23 22  1  0  0  0  0
 24  4  1  0  0  0  0
 24 25  1  0  0  0  0
 26 28  1  0  0  0  0
 26  5  1  0  0  0  0
 27 26  1  0  0  0  0
 29  6  1  0  0  0  0
 29 26  1  0  0  0  0
 30  6  1  0  0  0  0
 30 31  1  0  0  0  0
 31 42  1  0  0  0  0
 32 31  2  0  0  0  0
 32 33  1  0  0  0  0
 34 32  1  0  0  0  0
 35 37  1  0  0  0  0
 35 34  2  0  0  0  0
 36 35  1  0  0  0  0
 37 30  2  0  0  0  0
 38 39  1  0  0  0  0
 38 37  1  0  0  0  0
 40 38  1  0  0  0  0
 41 38  1  0  0  0  0
 42 44  1  0  0  0  0
 42 45  1  0  0  0  0
 43 42  1  0  0  0  0
 46 34  1  0  0  0  0
 46 48  1  0  0  0  0
 47 46  1  0  0  0  0
 49 46  1  0  0  0  0
 50 51  1  0  0  0  0
 52 53  1  0  0  0  0
 52 50  1  0  0  0  0
 54 52  2  0  0  0  0
 55 54  1  0  0  0  0
 56 54  1  0  0  0  0
 56 58  2  0  0  0  0
 57 56  1  0  0  0  0
 58 59  1  0  0  0  0
 58  7  1  0  0  0  0
M  END
$$$$
