CSD_code = YIXRUU | q = 0 | S = 0 | Stoichiometry = C28H26ClN2OPPdS | MND = 4
 OpenBabel04212202123D

 61 65  0  0  1  0  0  0  0  0999 V2000
    0.9270    5.9784    7.3506 Pd  0  0  1  0  0  0  0  0  0  0  0  0
    0.0754    4.4798    5.8681 Cl  0  0  0  0  0  0  0  0  0  0  0  0
    1.7796    7.6046    8.7835 S   0  0  0  0  0  0  0  0  0  0  0  0
   -0.2190    7.3722    6.0833 P   0  0  0  0  0  4  0  0  0  0  0  0
    1.7456    4.4029    8.4291 O   0  0  0  0  0  0  0  0  0  0  0  0
    2.9176    5.5168   10.0600 N   0  0  0  0  0  0  0  0  0  0  0  0
    4.1633    7.4092    9.8951 N   0  0  0  0  0  0  0  0  0  0  0  0
    2.1743    4.5225    9.6009 C   0  0  0  0  0  0  0  0  0  0  0  0
    1.9604    3.4039   10.5516 C   0  0  0  0  0  0  0  0  0  0  0  0
    1.2105    2.3061   10.1369 C   0  0  0  0  0  0  0  0  0  0  0  0
    0.8118    2.2961    9.1327 H   0  0  0  0  0  0  0  0  0  0  0  0
    0.9866    1.2536   11.0037 C   0  0  0  0  0  0  0  0  0  0  0  0
    0.4063    0.4024   10.6792 H   0  0  0  0  0  0  0  0  0  0  0  0
    1.5054    1.2911   12.2881 C   0  0  0  0  0  0  0  0  0  0  0  0
    1.3304    0.4679   12.9656 H   0  0  0  0  0  0  0  0  0  0  0  0
    2.2473    2.3851   12.7064 C   0  0  0  0  0  0  0  0  0  0  0  0
    2.6478    2.4132   13.7095 H   0  0  0  0  0  0  0  0  0  0  0  0
    2.4758    3.4400   11.8439 C   0  0  0  0  0  0  0  0  0  0  0  0
    3.0483    4.2991   12.1582 H   0  0  0  0  0  0  0  0  0  0  0  0
    3.0395    6.7373    9.5942 C   0  0  2  0  0  3  0  0  0  0  0  0
    5.2215    6.7870   10.6537 C   0  0  0  0  0  0  0  0  0  0  0  0
    5.3919    7.3408   11.5802 H   0  0  0  0  0  0  0  0  0  0  0  0
    6.1458    6.7805   10.0710 H   0  0  0  0  0  0  0  0  0  0  0  0
    4.9352    5.7651   10.8874 H   0  0  0  0  0  0  0  0  0  0  0  0
    4.3497    8.8058    9.6005 C   0  0  0  0  0  0  0  0  0  0  0  0
    3.7137    9.0972    8.7662 H   0  0  0  0  0  0  0  0  0  0  0  0
    5.3944    8.9782    9.3394 H   0  0  0  0  0  0  0  0  0  0  0  0
    4.0924    9.4258   10.4646 H   0  0  0  0  0  0  0  0  0  0  0  0
   -0.3455    9.1296    6.5467 C   0  0  0  0  0  0  0  0  0  0  0  0
    0.8258    9.8810    6.4842 C   0  0  0  0  0  0  0  0  0  0  0  0
    1.7357    9.4056    6.1380 H   0  0  0  0  0  0  0  0  0  0  0  0
    0.8217   11.2075    6.8663 C   0  0  0  0  0  0  0  0  0  0  0  0
    1.7315   11.7878    6.8185 H   0  0  0  0  0  0  0  0  0  0  0  0
   -0.3519   11.7928    7.3171 C   0  0  0  0  0  0  0  0  0  0  0  0
   -0.3559   12.8296    7.6194 H   0  0  0  0  0  0  0  0  0  0  0  0
   -1.5169   11.0481    7.3858 C   0  0  0  0  0  0  0  0  0  0  0  0
   -2.4297   11.5040    7.7405 H   0  0  0  0  0  0  0  0  0  0  0  0
   -1.5174    9.7166    7.0064 C   0  0  0  0  0  0  0  0  0  0  0  0
   -2.4261    9.1337    7.0652 H   0  0  0  0  0  0  0  0  0  0  0  0
   -1.9420    6.8049    6.0810 C   0  0  0  0  0  0  0  0  0  0  0  0
   -2.3568    6.2659    7.3002 C   0  0  0  0  0  0  0  0  0  0  0  0
   -1.6359    6.1989    8.1267 H   0  0  0  0  0  0  0  0  0  0  0  0
   -3.6482    5.8007    7.4483 C   0  0  0  0  0  0  0  0  0  0  0  0
   -3.9699    5.3806    8.3898 H   0  0  0  0  0  0  0  0  0  0  0  0
   -4.5280    5.8610    6.3770 C   0  0  0  0  0  0  0  0  0  0  0  0
   -5.5362    5.4900    6.4881 H   0  0  0  0  0  0  0  0  0  0  0  0
   -4.1120    6.3775    5.1622 C   0  0  0  0  0  0  0  0  0  0  0  0
   -4.7947    6.4050    4.3256 H   0  0  0  0  0  0  0  0  0  0  0  0
   -2.8199    6.8535    5.0085 C   0  0  0  0  0  0  0  0  0  0  0  0
   -2.4920    7.2354    4.0536 H   0  0  0  0  0  0  0  0  0  0  0  0
    0.4756    7.5035    4.4144 C   0  0  0  0  0  0  0  0  0  0  0  0
   -0.0785    8.3214    3.4347 C   0  0  0  0  0  0  0  0  0  0  0  0
   -0.9704    8.8935    3.6508 H   0  0  0  0  0  0  0  0  0  0  0  0
    0.5289    8.4138    2.1954 C   0  0  0  0  0  0  0  0  0  0  0  0
    0.0937    9.0378    1.4285 H   0  0  0  0  0  0  0  0  0  0  0  0
    1.6977    7.7145    1.9390 C   0  0  0  0  0  0  0  0  0  0  0  0
    2.1659    7.7884    0.9686 H   0  0  0  0  0  0  0  0  0  0  0  0
    2.2748    6.9330    2.9275 C   0  0  0  0  0  0  0  0  0  0  0  0
    3.1959    6.4053    2.7299 H   0  0  0  0  0  0  0  0  0  0  0  0
    1.6684    6.8293    4.1661 C   0  0  0  0  0  0  0  0  0  0  0  0
    2.1106    6.2159    4.9588 H   0  0  0  0  0  0  0  0  0  0  0  0
  1  2  1  6  0  0  0
  1  5  1  0  0  0  0
  1  3  1  0  0  0  0
  3 20  1  0  0  0  0
  4 29  1  0  0  0  0
  4  1  1  0  0  0  0
  5  8  1  0  0  0  0
  7 21  1  0  0  0  0
  8  6  2  0  0  0  0
  8  9  1  0  0  0  0
  9 18  1  0  0  0  0
 10  9  2  0  0  0  0
 10 12  1  0  0  0  0
 11 10  1  0  0  0  0
 12 14  2  0  0  0  0
 13 12  1  0  0  0  0
 14 16  1  0  0  0  0
 14 15  1  0  0  0  0
 16 17  1  0  0  0  0
 18 19  1  0  0  0  0
 18 16  2  0  0  0  0
 20  7  1  1  0  0  0
 20  6  1  0  0  0  0
 21 24  1  0  0  0  0
 21 22  1  0  0  0  0
 23 21  1  0  0  0  0
 25  7  1  0  0  0  0
 25 28  1  0  0  0  0
 26 25  1  0  0  0  0
 27 25  1  0  0  0  0
 29 38  1  0  0  0  0
 30 29  2  0  0  0  0
 30 32  1  0  0  0  0
 31 30  1  0  0  0  0
 32 34  2  0  0  0  0
 33 32  1  0  0  0  0
 34 36  1  0  0  0  0
 34 35  1  0  0  0  0
 36 37  1  0  0  0  0
 38 39  1  0  0  0  0
 38 36  2  0  0  0  0
 40  4  1  0  0  0  0
 40 41  1  0  0  0  0
 41 43  2  0  0  0  0
 41 42  1  0  0  0  0
 43 44  1  0  0  0  0
 45 46  1  0  0  0  0
 45 43  1  0  0  0  0
 47 45  2  0  0  0  0
 48 47  1  0  0  0  0
 49 47  1  0  0  0  0
 49 40  2  0  0  0  0
 50 49  1  0  0  0  0
 51  4  1  0  0  0  0
 52 53  1  0  0  0  0
 52 51  2  0  0  0  0
 54 52  1  0  0  0  0
 55 54  1  0  0  0  0
 56 54  2  0  0  0  0
 56 58  1  0  0  0  0
 57 56  1  0  0  0  0
 58 60  2  0  0  0  0
 59 58  1  0  0  0  0
 60 51  1  0  0  0  0
 60 61  1  0  0  0  0
M  END
$$$$
