CSD_code = YIXSEF | q = 0 | S = 0 | Stoichiometry = C12H12Br2N4O2Zn | MND = 4
 OpenBabel04212202123D

 33 34  0  0  0  0  0  0  0  0999 V2000
    0.0001   12.8372    4.5753 Zn  0  0  0  0  0  0  0  0  0  0  0  0
    1.7774   13.5814    3.2163 Br  0  0  0  0  0  0  0  0  0  0  0  0
    0.9861   11.3657    5.8600 N   0  0  0  0  0  0  0  0  0  0  0  0
    3.0203    7.2270   10.1938 O   0  0  0  0  0  0  0  0  0  0  0  0
    2.2995    8.1029    9.4190 N   0  0  0  0  0  0  0  0  0  0  0  0
    0.3352   10.8313    6.8924 C   0  0  0  0  0  3  0  0  0  0  0  0
    0.9138    9.9278    7.7587 C   0  0  0  0  0  0  0  0  0  0  0  0
    2.2437    9.5490    7.5579 C   0  0  0  0  0  0  0  0  0  0  0  0
    2.9165   10.1126    6.4728 C   0  0  0  0  0  0  0  0  0  0  0  0
    2.2515   11.0078    5.6585 C   0  0  0  0  0  0  0  0  0  0  0  0
    2.9190    8.6112    8.4345 C   0  0  0  0  0  0  0  0  0  0  0  0
    2.4119    6.9453   10.8939 H   0  0  0  0  0  0  0  0  0  0  0  0
   -0.6875   11.1527    7.0327 H   0  0  0  0  0  0  0  0  0  0  0  0
    0.3582    9.5187    8.5856 H   0  0  0  0  0  0  0  0  0  0  0  0
    3.9455    9.8611    6.2682 H   0  0  0  0  0  0  0  0  0  0  0  0
    2.7531   11.4635    4.8159 H   0  0  0  0  0  0  0  0  0  0  0  0
    3.9601    8.3724    8.2163 H   0  0  0  0  0  0  0  0  0  0  0  0
   -1.7772   13.5815    5.9343 Br  0  0  0  0  0  0  0  0  0  0  0  0
   -0.9859   11.3656    3.2908 N   0  0  0  0  0  0  0  0  0  0  0  0
   -3.0209    7.2274   -1.0432 O   0  0  0  0  0  0  0  0  0  0  0  0
   -2.2998    8.1033   -0.2684 N   0  0  0  0  0  0  0  0  0  0  0  0
   -0.3353   10.8316    2.2580 C   0  0  0  0  0  3  0  0  0  0  0  0
   -0.9138    9.9279    1.3919 C   0  0  0  0  0  0  0  0  0  0  0  0
   -2.2436    9.5488    1.5931 C   0  0  0  0  0  0  0  0  0  0  0  0
   -2.9163   10.1121    2.6784 C   0  0  0  0  0  0  0  0  0  0  0  0
   -2.2512   11.0075    3.4925 C   0  0  0  0  0  0  0  0  0  0  0  0
   -2.9193    8.6119    0.7157 C   0  0  0  0  0  0  0  0  0  0  0  0
   -2.4123    6.9452   -1.7427 H   0  0  0  0  0  0  0  0  0  0  0  0
    0.6874   11.1529    2.1177 H   0  0  0  0  0  0  0  0  0  0  0  0
   -0.3585    9.5190    0.5647 H   0  0  0  0  0  0  0  0  0  0  0  0
   -3.9452    9.8607    2.8831 H   0  0  0  0  0  0  0  0  0  0  0  0
   -2.7527   11.4631    4.3352 H   0  0  0  0  0  0  0  0  0  0  0  0
   -3.9598    8.3715    0.9353 H   0  0  0  0  0  0  0  0  0  0  0  0
  1  3  1  0  0  0  0
  1 18  1  0  0  0  0
  2  1  1  0  0  0  0
  3  6  1  0  0  0  0
  4 12  1  0  0  0  0
  5  4  1  0  0  0  0
  6 13  1  0  0  0  0
  6  7  1  0  0  0  0
  7 14  1  0  0  0  0
  8  7  2  0  0  0  0
  8 11  1  0  0  0  0
  9  8  1  0  0  0  0
 10  3  1  0  0  0  0
 10  9  2  0  0  0  0
 11  5  2  0  0  0  0
 15  9  1  0  0  0  0
 16 10  1  0  0  0  0
 17 11  1  0  0  0  0
 19 26  1  0  0  0  0
 19  1  1  0  0  0  0
 20 21  1  0  0  0  0
 21 27  2  0  0  0  0
 22 19  1  0  0  0  0
 23 24  2  0  0  0  0
 23 22  1  0  0  0  0
 24 25  1  0  0  0  0
 25 31  1  0  0  0  0
 25 26  2  0  0  0  0
 26 32  1  0  0  0  0
 27 33  1  0  0  0  0
 27 24  1  0  0  0  0
 28 20  1  0  0  0  0
 29 22  1  0  0  0  0
 30 23  1  0  0  0  0
M  END
$$$$
