CSD_code = YIXWUY | q = 1 | S = 0 | Stoichiometry = C16H21ClN3Pd(1+) | MND = 4
 OpenBabel04212202123D

 42 45  0  0  1  0  0  0  0  0999 V2000
    6.1341    2.0822    1.0259 Pd  0  0  2  0  0  0  0  0  0  0  0  0
    4.2001    1.6198    0.0084 Cl  0  0  0  0  0  0  0  0  0  0  0  0
    7.9483    2.4025    1.9880 N   0  0  2  0  0  4  0  0  0  0  0  0
    7.1401    2.4157   -0.6486 N   0  0  0  0  0  0  0  0  0  0  0  0
    5.4744    1.5842    2.8285 N   0  0  0  0  0  0  0  0  0  0  0  0
    5.3098    4.9721    1.6882 C   0  0  0  0  0  0  0  0  0  0  0  0
    6.6120    5.7313    1.9294 C   0  0  0  0  0  0  0  0  0  0  0  0
    7.8673    4.9051    1.6328 C   0  0  0  0  0  0  0  0  0  0  0  0
    8.0961    3.7323    2.6044 C   0  0  0  0  0  0  0  0  0  0  0  0
    8.9736    2.1506    0.9601 C   0  0  0  0  0  0  0  0  0  0  0  0
    8.4689    2.4214   -0.4446 C   0  0  1  0  0  3  0  0  0  0  0  0
    9.3554    2.6306   -1.4914 C   0  0  0  0  0  0  0  0  0  0  0  0
    8.8615    2.8356   -2.7709 C   0  0  0  0  0  0  0  0  0  0  0  0
    7.4891    2.8323   -2.9642 C   0  0  0  0  0  0  0  0  0  0  0  0
    6.6616    2.6204   -1.8743 C   0  0  0  0  0  0  0  0  0  0  0  0
    7.8812    1.3685    3.0355 C   0  0  0  0  0  0  0  0  0  0  0  0
    6.5015    1.3363    3.6588 C   0  0  2  0  0  3  0  0  0  0  0  0
    6.2909    1.0234    4.9922 C   0  0  0  0  0  0  0  0  0  0  0  0
    4.9903    0.9517    5.4720 C   0  0  0  0  0  0  0  0  0  0  0  0
    3.9415    1.2063    4.6029 C   0  0  0  0  0  0  0  0  0  0  0  0
    4.2266    1.5266    3.2852 C   0  0  0  0  0  0  0  0  0  0  0  0
    4.4683    5.6563    1.7617 H   0  0  0  0  0  0  0  0  0  0  0  0
    5.1561    4.1928    2.4449 H   0  0  0  0  0  0  0  0  0  0  0  0
    5.2894    4.5328    0.6762 H   0  0  0  0  0  0  0  0  0  0  0  0
    6.6327    6.6078    1.2800 H   0  0  0  0  0  0  0  0  0  0  0  0
    6.6440    6.0891    2.9604 H   0  0  0  0  0  0  0  0  0  0  0  0
    7.7962    4.5404    0.6050 H   0  0  0  0  0  0  0  0  0  0  0  0
    8.7296    5.5718    1.6771 H   0  0  0  0  0  0  0  0  0  0  0  0
    7.3758    3.8010    3.4253 H   0  0  0  0  0  0  0  0  0  0  0  0
    9.1018    3.8021    3.0435 H   0  0  0  0  0  0  0  0  0  0  0  0
    9.8727    2.7508    1.1494 H   0  0  0  0  0  0  0  0  0  0  0  0
    9.2738    1.0955    0.9954 H   0  0  0  0  0  0  0  0  0  0  0  0
   10.4176    2.6290   -1.3041 H   0  0  0  0  0  0  0  0  0  0  0  0
    9.5368    2.9954   -3.5963 H   0  0  0  0  0  0  0  0  0  0  0  0
    7.0615    2.9886   -3.9405 H   0  0  0  0  0  0  0  0  0  0  0  0
    5.5827    2.6041   -1.9743 H   0  0  0  0  0  0  0  0  0  0  0  0
    8.6501    1.5239    3.8053 H   0  0  0  0  0  0  0  0  0  0  0  0
    8.0499    0.3834    2.5765 H   0  0  0  0  0  0  0  0  0  0  0  0
    7.1301    0.8307    5.6417 H   0  0  0  0  0  0  0  0  0  0  0  0
    4.8047    0.7014    6.5044 H   0  0  0  0  0  0  0  0  0  0  0  0
    2.9176    1.1578    4.9343 H   0  0  0  0  0  0  0  0  0  0  0  0
    3.4436    1.7348    2.5655 H   0  0  0  0  0  0  0  0  0  0  0  0
  1  2  1  1  0  0  0
  1  3  1  0  0  0  0
  1  5  1  0  0  0  0
  3  9  1  1  0  0  0
  3 16  1  0  0  0  0
  4 11  1  0  0  0  0
  4  1  1  0  0  0  0
  5 21  1  0  0  0  0
  5 17  1  0  0  0  0
  6 22  1  0  0  0  0
  6  7  1  0  0  0  0
  6 23  1  0  0  0  0
  7 26  1  0  0  0  0
  8 28  1  0  0  0  0
  8  7  1  0  0  0  0
  8  9  1  0  0  0  0
  9 30  1  0  0  0  0
  9 29  1  0  0  0  0
 10 32  1  0  0  0  0
 10 31  1  0  0  0  0
 10  3  1  0  0  0  0
 11 12  1  6  0  0  0
 11 10  1  0  0  0  0
 12 33  1  0  0  0  0
 13 12  2  0  0  0  0
 14 13  1  0  0  0  0
 14 15  2  0  0  0  0
 15  4  1  0  0  0  0
 16 17  1  0  0  0  0
 16 37  1  0  0  0  0
 17 18  1  6  0  0  0
 18 19  2  0  0  0  0
 18 39  1  0  0  0  0
 19 40  1  0  0  0  0
 20 41  1  0  0  0  0
 20 19  1  0  0  0  0
 21 20  2  0  0  0  0
 24  6  1  0  0  0  0
 25  7  1  0  0  0  0
 27  8  1  0  0  0  0
 34 13  1  0  0  0  0
 35 14  1  0  0  0  0
 36 15  1  0  0  0  0
 38 16  1  0  0  0  0
 42 21  1  0  0  0  0
M  END
$$$$
