CSD_code = YIYDEQ | q = 0 | S = 0 | Stoichiometry = C23H18ClN2PPd | MND = 4
 OpenBabel04212202123D

 46 51  0  0  0  0  0  0  0  0999 V2000
    2.0880    6.5471    8.1396 Pd  0  0  2  0  0  0  0  0  0  0  0  0
    1.7696    5.4627    6.2248 P   0  0  0  0  0  4  0  0  0  0  0  0
    4.3095    6.6604    8.0266 Cl  0  0  0  0  0  0  0  0  0  0  0  0
    1.9243    7.4185    9.9528 N   0  0  0  0  0  0  0  0  0  0  0  0
    0.0652    6.4941    8.2836 N   0  0  0  0  0  0  0  0  0  0  0  0
    2.6351    7.9405   10.9370 C   0  0  0  0  0  3  0  0  0  0  0  0
    3.7110    7.9636   10.9044 H   0  0  0  0  0  0  0  0  0  0  0  0
    1.7867    8.4245   11.9527 C   0  0  0  0  0  0  0  0  0  0  0  0
    2.1061    8.8970   12.8612 H   0  0  0  0  0  0  0  0  0  0  0  0
    0.4941    8.1779   11.5492 C   0  0  0  0  0  0  0  0  0  0  0  0
   -0.4142    8.4110   12.0707 H   0  0  0  0  0  0  0  0  0  0  0  0
    0.5854    7.5424   10.2887 C   0  0  0  0  0  0  0  0  0  0  0  0
   -0.3647    7.0478    9.3961 C   0  0  0  0  0  0  0  0  0  0  0  0
   -0.7180    5.9295    7.2992 C   0  0  0  0  0  0  0  0  0  0  0  0
   -2.1166    5.8610    7.3307 C   0  0  0  0  0  0  0  0  0  0  0  0
   -2.6640    6.2784    8.1620 H   0  0  0  0  0  0  0  0  0  0  0  0
   -2.8119    5.2585    6.3022 C   0  0  0  0  0  0  0  0  0  0  0  0
   -3.8903    5.2185    6.3458 H   0  0  0  0  0  0  0  0  0  0  0  0
   -2.1454    4.7020    5.2197 C   0  0  0  0  0  0  0  0  0  0  0  0
   -2.7010    4.2273    4.4257 H   0  0  0  0  0  0  0  0  0  0  0  0
   -0.7645    4.7593    5.1666 C   0  0  0  0  0  0  0  0  0  0  0  0
   -0.2316    4.3289    4.3306 H   0  0  0  0  0  0  0  0  0  0  0  0
   -0.0518    5.3749    6.1845 C   0  0  0  0  0  0  0  0  0  0  0  0
    2.2204    3.7165    6.4805 C   0  0  0  0  0  0  0  0  0  0  0  0
    2.4757    3.3325    7.7962 C   0  0  0  0  0  0  0  0  0  0  0  0
    2.4515    4.0912    8.5926 H   0  0  0  0  0  0  0  0  0  0  0  0
    2.7824    2.0155    8.0848 C   0  0  0  0  0  0  0  0  0  0  0  0
    2.9885    1.7182    9.1021 H   0  0  0  0  0  0  0  0  0  0  0  0
    2.8336    1.0788    7.0640 C   0  0  0  0  0  0  0  0  0  0  0  0
    3.0774    0.0510    7.2882 H   0  0  0  0  0  0  0  0  0  0  0  0
    2.5815    1.4584    5.7556 C   0  0  0  0  0  0  0  0  0  0  0  0
    2.6283    0.7265    4.9626 H   0  0  0  0  0  0  0  0  0  0  0  0
    2.2733    2.7742    5.4595 C   0  0  0  0  0  0  0  0  0  0  0  0
    2.0892    3.0741    4.4373 H   0  0  0  0  0  0  0  0  0  0  0  0
    2.3264    5.8469    4.5459 C   0  0  0  0  0  0  0  0  0  0  0  0
    1.5352    6.5470    3.6408 C   0  0  0  0  0  0  0  0  0  0  0  0
    0.5263    6.8281    3.9108 H   0  0  0  0  0  0  0  0  0  0  0  0
    2.0455    6.8809    2.3988 C   0  0  0  0  0  0  0  0  0  0  0  0
    1.4291    7.4170    1.6920 H   0  0  0  0  0  0  0  0  0  0  0  0
    3.3453    6.5373    2.0643 C   0  0  0  0  0  0  0  0  0  0  0  0
    3.7393    6.8025    1.0944 H   0  0  0  0  0  0  0  0  0  0  0  0
    4.1462    5.8682    2.9777 C   0  0  0  0  0  0  0  0  0  0  0  0
    5.1654    5.6192    2.7226 H   0  0  0  0  0  0  0  0  0  0  0  0
    3.6436    5.5283    4.2189 C   0  0  0  0  0  0  0  0  0  0  0  0
    4.2628    5.0264    4.9506 H   0  0  0  0  0  0  0  0  0  0  0  0
   -1.4228    7.1230    9.6341 H   0  0  0  0  0  0  0  0  0  0  0  0
  1  3  1  6  0  0  0
  1  5  1  0  0  0  0
  1  4  1  0  0  0  0
  2 24  1  0  0  0  0
  2  1  1  0  0  0  0
  4 12  1  0  0  0  0
  4  6  1  0  0  0  0
  5 13  1  0  0  0  0
  6  8  1  0  0  0  0
  7  6  1  0  0  0  0
  8  9  1  0  0  0  0
 10  8  2  0  0  0  0
 10 11  1  0  0  0  0
 12 10  1  0  0  0  0
 13 46  1  0  0  0  0
 13 12  2  0  0  0  0
 14 15  1  0  0  0  0
 14  5  1  0  0  0  0
 15 16  1  0  0  0  0
 17 18  1  0  0  0  0
 17 15  2  0  0  0  0
 19 17  1  0  0  0  0
 20 19  1  0  0  0  0
 21 19  2  0  0  0  0
 21 23  1  0  0  0  0
 22 21  1  0  0  0  0
 23  2  1  0  0  0  0
 23 14  2  0  0  0  0
 24 25  1  0  0  0  0
 25 27  2  0  0  0  0
 25 26  1  0  0  0  0
 27 28  1  0  0  0  0
 29 30  1  0  0  0  0
 29 27  1  0  0  0  0
 31 29  2  0  0  0  0
 32 31  1  0  0  0  0
 33 31  1  0  0  0  0
 33 24  2  0  0  0  0
 34 33  1  0  0  0  0
 35  2  1  0  0  0  0
 36 37  1  0  0  0  0
 36 35  2  0  0  0  0
 38 36  1  0  0  0  0
 39 38  1  0  0  0  0
 40 38  2  0  0  0  0
 40 42  1  0  0  0  0
 41 40  1  0  0  0  0
 42 44  2  0  0  0  0
 43 42  1  0  0  0  0
 44 35  1  0  0  0  0
 44 45  1  0  0  0  0
M  END
$$$$
