CSD_code = YIYDAM | q = 0 | S = 0 | Stoichiometry = C23H18BrN2NiP | MND = 4
 OpenBabel04212202123D

 46 51  0  0  0  0  0  0  0  0999 V2000
   16.8824    1.9666    1.8445 Ni  0  0  2  0  0  0  0  0  0  0  0  0
   14.7036    1.7437    1.9615 Br  0  0  0  0  0  0  0  0  0  0  0  0
   17.1653    0.8257    3.6086 P   0  0  0  0  0  4  0  0  0  0  0  0
   16.9485    3.0293    0.2728 N   0  0  0  0  0  0  0  0  0  0  0  0
   18.8286    2.0844    1.7864 N   0  0  0  0  0  0  0  0  0  0  0  0
   16.1669    3.6109   -0.6246 C   0  0  0  0  0  3  0  0  0  0  0  0
   15.0959    3.5119   -0.5939 H   0  0  0  0  0  0  0  0  0  0  0  0
   16.9387    4.3262   -1.5586 C   0  0  0  0  0  0  0  0  0  0  0  0
   16.5518    4.8858   -2.3881 H   0  0  0  0  0  0  0  0  0  0  0  0
   18.2587    4.1662   -1.2011 C   0  0  0  0  0  0  0  0  0  0  0  0
   19.1281    4.5704   -1.6833 H   0  0  0  0  0  0  0  0  0  0  0  0
   18.2590    3.3494   -0.0504 C   0  0  0  0  0  0  0  0  0  0  0  0
   19.2426    2.8243    0.7800 C   0  0  0  0  0  0  0  0  0  0  0  0
   20.2948    3.0233    0.6003 H   0  0  0  0  0  0  0  0  0  0  0  0
   19.6401    1.4588    2.7077 C   0  0  0  0  0  0  0  0  0  0  0  0
   21.0392    1.4577    2.6988 C   0  0  0  0  0  0  0  0  0  0  0  0
   21.5851    1.9848    1.9308 H   0  0  0  0  0  0  0  0  0  0  0  0
   21.7335    0.7706    3.6738 C   0  0  0  0  0  0  0  0  0  0  0  0
   22.8135    0.7771    3.6544 H   0  0  0  0  0  0  0  0  0  0  0  0
   21.0699    0.0697    4.6719 C   0  0  0  0  0  0  0  0  0  0  0  0
   21.6312   -0.4663    5.4219 H   0  0  0  0  0  0  0  0  0  0  0  0
   19.6867    0.0592    4.6989 C   0  0  0  0  0  0  0  0  0  0  0  0
   19.1535   -0.4834    5.4666 H   0  0  0  0  0  0  0  0  0  0  0  0
   18.9803    0.7535    3.7317 C   0  0  0  0  0  0  0  0  0  0  0  0
   16.5770    1.4076    5.2195 C   0  0  0  0  0  0  0  0  0  0  0  0
   17.4057    2.1233    6.0775 C   0  0  0  0  0  0  0  0  0  0  0  0
   18.4361    2.3089    5.8053 H   0  0  0  0  0  0  0  0  0  0  0  0
   16.9072    2.5931    7.2793 C   0  0  0  0  0  0  0  0  0  0  0  0
   17.5525    3.1434    7.9484 H   0  0  0  0  0  0  0  0  0  0  0  0
   15.5837    2.3657    7.6198 C   0  0  0  0  0  0  0  0  0  0  0  0
   15.1987    2.7382    8.5574 H   0  0  0  0  0  0  0  0  0  0  0  0
   14.7510    1.6728    6.7545 C   0  0  0  0  0  0  0  0  0  0  0  0
   13.7159    1.5091    7.0132 H   0  0  0  0  0  0  0  0  0  0  0  0
   15.2400    1.1970    5.5528 C   0  0  0  0  0  0  0  0  0  0  0  0
   14.5918    0.6751    4.8620 H   0  0  0  0  0  0  0  0  0  0  0  0
   16.6861   -0.9251    3.5583 C   0  0  0  0  0  0  0  0  0  0  0  0
   16.5678   -1.7030    4.7044 C   0  0  0  0  0  0  0  0  0  0  0  0
   16.6906   -1.2543    5.6804 H   0  0  0  0  0  0  0  0  0  0  0  0
   16.2726   -3.0488    4.5869 C   0  0  0  0  0  0  0  0  0  0  0  0
   16.1756   -3.6555    5.4754 H   0  0  0  0  0  0  0  0  0  0  0  0
   16.0953   -3.6188    3.3360 C   0  0  0  0  0  0  0  0  0  0  0  0
   15.8610   -4.6696    3.2531 H   0  0  0  0  0  0  0  0  0  0  0  0
   16.2082   -2.8435    2.1932 C   0  0  0  0  0  0  0  0  0  0  0  0
   16.0597   -3.2862    1.2198 H   0  0  0  0  0  0  0  0  0  0  0  0
   16.5050   -1.4984    2.3041 C   0  0  0  0  0  0  0  0  0  0  0  0
   16.5819   -0.8729    1.4186 H   0  0  0  0  0  0  0  0  0  0  0  0
  1  2  1  6  0  0  0
  1  3  1  0  0  0  0
  3 24  1  0  0  0  0
  3 25  1  0  0  0  0
  4  1  1  0  0  0  0
  5  1  1  0  0  0  0
  5 15  1  0  0  0  0
  6  7  1  0  0  0  0
  6  4  1  0  0  0  0
  8 10  2  0  0  0  0
  8  6  1  0  0  0  0
  9  8  1  0  0  0  0
 10 12  1  0  0  0  0
 11 10  1  0  0  0  0
 12  4  1  0  0  0  0
 12 13  2  0  0  0  0
 13  5  1  0  0  0  0
 14 13  1  0  0  0  0
 15 24  1  0  0  0  0
 16 15  2  0  0  0  0
 16 18  1  0  0  0  0
 17 16  1  0  0  0  0
 18 20  2  0  0  0  0
 19 18  1  0  0  0  0
 20 22  1  0  0  0  0
 20 21  1  0  0  0  0
 22 23  1  0  0  0  0
 24 22  2  0  0  0  0
 25 34  2  0  0  0  0
 25 26  1  0  0  0  0
 26 28  2  0  0  0  0
 27 26  1  0  0  0  0
 28 30  1  0  0  0  0
 28 29  1  0  0  0  0
 30 31  1  0  0  0  0
 32 33  1  0  0  0  0
 32 30  2  0  0  0  0
 34 32  1  0  0  0  0
 35 34  1  0  0  0  0
 36  3  1  0  0  0  0
 36 37  1  0  0  0  0
 37 38  1  0  0  0  0
 39 37  2  0  0  0  0
 39 40  1  0  0  0  0
 41 39  1  0  0  0  0
 42 41  1  0  0  0  0
 43 45  1  0  0  0  0
 43 41  2  0  0  0  0
 44 43  1  0  0  0  0
 45 36  2  0  0  0  0
 46 45  1  0  0  0  0
M  END
$$$$
