CSD_code = YIYHIX | q = 1 | S = 0 | Stoichiometry = C23H29ClN3O4Pd(1+) | MND = 4
 OpenBabel04212202123D

 61 64  0  0  1  0  0  0  0  0999 V2000
    3.2885    2.8321    4.3065 Pd  0  0  2  0  0  0  0  0  0  0  0  0
    5.4940    2.4121    4.5330 Cl  0  0  0  0  0  0  0  0  0  0  0  0
    2.5067    0.0026   -2.7288 O   0  0  0  0  0  0  0  0  0  0  0  0
    0.4612    0.5355   -1.8459 O   0  0  0  0  0  1  0  0  0  0  0  0
    1.6053    0.2504   -2.0009 C   0  0  0  0  0  0  0  0  0  0  0  0
    2.2223    0.0992   -0.3989 C   0  0  0  0  0  0  0  0  0  0  0  0
    2.1858   -1.1400    0.1790 C   0  0  0  0  0  0  0  0  0  0  0  0
    2.6127   -1.2237    1.5004 C   0  0  0  0  0  0  0  0  0  0  0  0
    3.0646   -0.0944    2.1727 C   0  0  0  0  0  0  0  0  0  0  0  0
    3.1113    1.1323    1.5154 C   0  0  0  0  0  0  0  0  0  0  0  0
    2.6656    1.2427    0.2033 C   0  0  0  0  0  0  0  0  0  0  0  0
    3.4869   -0.1878    3.6162 C   0  0  0  0  0  0  0  0  0  0  0  0
    2.8065    0.7976    4.4817 N   0  0  0  0  0  4  0  0  0  0  0  0
    3.1916    0.5315    5.8782 C   0  0  0  0  0  0  0  0  0  0  0  0
    1.3370    0.7011    4.3340 C   0  0  0  0  0  0  0  0  0  0  0  0
    0.6371    1.9761    4.8175 C   0  0  0  0  0  0  0  0  0  0  0  0
    1.2463    3.1651    4.1985 N   0  0  2  0  0  4  0  0  0  0  0  0
    0.7499    3.3566    2.8341 C   0  0  0  0  0  0  0  0  0  0  0  0
    1.0579    4.3833    5.0006 C   0  0  0  0  0  0  0  0  0  0  0  0
    2.1173    5.4247    4.6332 C   0  0  0  0  0  0  0  0  0  0  0  0
    3.4850    4.8690    4.7258 N   0  0  0  0  0  4  0  0  0  0  0  0
    3.9421    4.8762    6.1249 C   0  0  0  0  0  0  0  0  0  0  0  0
    4.4140    5.6788    3.9082 C   0  0  0  0  0  0  0  0  0  0  0  0
    4.1478    5.4805    2.4384 C   0  0  0  0  0  0  0  0  0  0  0  0
    4.6736    4.3580    1.8023 C   0  0  0  0  0  0  0  0  0  0  0  0
    4.4175    4.1294    0.4566 C   0  0  0  0  0  0  0  0  0  0  0  0
    3.6129    5.0223   -0.2154 C   0  0  0  0  0  0  0  0  0  0  0  0
    3.1086    6.1619    0.3690 C   0  0  0  0  0  0  0  0  0  0  0  0
    3.3884    6.3908    1.7095 C   0  0  0  0  0  0  0  0  0  0  0  0
    3.1870    4.6804   -1.7504 C   0  0  0  0  0  0  0  0  0  0  0  0
    2.5812    3.6307   -1.7519 O   0  0  0  0  0  1  0  0  0  0  0  0
    3.5610    5.5502   -2.4879 O   0  0  0  0  0  0  0  0  0  0  0  0
    1.8411   -2.0156   -0.3464 H   0  0  0  0  0  0  0  0  0  0  0  0
    2.5919   -2.1832    1.9947 H   0  0  0  0  0  0  0  0  0  0  0  0
    3.5091    2.0132    2.0332 H   0  0  0  0  0  0  0  0  0  0  0  0
    2.6662    2.1877   -0.3259 H   0  0  0  0  0  0  0  0  0  0  0  0
    4.5637    0.0030    3.6908 H   0  0  0  0  0  0  0  0  0  0  0  0
    3.2869   -1.2004    3.9897 H   0  0  0  0  0  0  0  0  0  0  0  0
    2.7632    1.2803    6.5541 H   0  0  0  0  0  0  0  0  0  0  0  0
    4.2788    0.5649    5.9703 H   0  0  0  0  0  0  0  0  0  0  0  0
    2.8459   -0.4608    6.1908 H   0  0  0  0  0  0  0  0  0  0  0  0
    1.1046    0.5339    3.2797 H   0  0  0  0  0  0  0  0  0  0  0  0
    0.9552   -0.1601    4.8984 H   0  0  0  0  0  0  0  0  0  0  0  0
   -0.4335    1.9151    4.5827 H   0  0  0  0  0  0  0  0  0  0  0  0
    0.7325    2.0554    5.9053 H   0  0  0  0  0  0  0  0  0  0  0  0
    0.8338    2.4330    2.2640 H   0  0  0  0  0  0  0  0  0  0  0  0
    1.3316    4.1204    2.3170 H   0  0  0  0  0  0  0  0  0  0  0  0
   -0.3028    3.6614    2.8436 H   0  0  0  0  0  0  0  0  0  0  0  0
    1.1462    4.1266    6.0618 H   0  0  0  0  0  0  0  0  0  0  0  0
    0.0575    4.8095    4.8444 H   0  0  0  0  0  0  0  0  0  0  0  0
    1.9489    5.7584    3.6072 H   0  0  0  0  0  0  0  0  0  0  0  0
    2.0187    6.2972    5.2925 H   0  0  0  0  0  0  0  0  0  0  0  0
    4.9487    4.4575    6.1833 H   0  0  0  0  0  0  0  0  0  0  0  0
    3.2794    4.2731    6.7555 H   0  0  0  0  0  0  0  0  0  0  0  0
    3.9643    5.8990    6.5174 H   0  0  0  0  0  0  0  0  0  0  0  0
    5.4304    5.3471    4.1345 H   0  0  0  0  0  0  0  0  0  0  0  0
    4.3169    6.7369    4.1811 H   0  0  0  0  0  0  0  0  0  0  0  0
    5.3427    3.6924    2.3363 H   0  0  0  0  0  0  0  0  0  0  0  0
    4.8498    3.2788   -0.0471 H   0  0  0  0  0  0  0  0  0  0  0  0
    2.5213    6.8647   -0.2000 H   0  0  0  0  0  0  0  0  0  0  0  0
    3.0273    7.2991    2.1708 H   0  0  0  0  0  0  0  0  0  0  0  0
  1 13  1  0  0  0  0
  1  2  1  6  0  0  0
  1 21  1  0  0  0  0
  3  5  2  0  0  0  0
  5  4  1  0  0  0  0
  5  6  1  0  0  0  0
  6  7  2  0  0  0  0
  6 11  1  0  0  0  0
  7  8  1  0  0  0  0
  8 34  1  0  0  0  0
  8  9  2  0  0  0  0
  9 12  1  0  0  0  0
 10 35  1  0  0  0  0
 10  9  1  0  0  0  0
 11 10  2  0  0  0  0
 12 37  1  0  0  0  0
 12 38  1  0  0  0  0
 12 13  1  0  0  0  0
 13 14  1  0  0  0  0
 14 40  1  0  0  0  0
 14 41  1  0  0  0  0
 14 39  1  0  0  0  0
 15 13  1  0  0  0  0
 15 16  1  0  0  0  0
 15 43  1  0  0  0  0
 16 45  1  0  0  0  0
 17 18  1  6  0  0  0
 17  1  1  0  0  0  0
 17 16  1  0  0  0  0
 17 19  1  0  0  0  0
 18 48  1  0  0  0  0
 19 49  1  0  0  0  0
 20 21  1  0  0  0  0
 20 19  1  0  0  0  0
 20 52  1  0  0  0  0
 21 22  1  0  0  0  0
 22 53  1  0  0  0  0
 22 55  1  0  0  0  0
 22 54  1  0  0  0  0
 23 56  1  0  0  0  0
 23 57  1  0  0  0  0
 23 21  1  0  0  0  0
 24 23  1  0  0  0  0
 25 58  1  0  0  0  0
 25 24  1  0  0  0  0
 26 25  2  0  0  0  0
 27 28  2  0  0  0  0
 27 26  1  0  0  0  0
 28 29  1  0  0  0  0
 29 61  1  0  0  0  0
 29 24  2  0  0  0  0
 30 27  1  0  0  0  0
 31 30  1  0  0  0  0
 32 30  2  0  0  0  0
 33  7  1  0  0  0  0
 36 11  1  0  0  0  0
 42 15  1  0  0  0  0
 44 16  1  0  0  0  0
 46 18  1  0  0  0  0
 47 18  1  0  0  0  0
 50 19  1  0  0  0  0
 51 20  1  0  0  0  0
 59 26  1  0  0  0  0
 60 28  1  0  0  0  0
M  END
$$$$
