CSD_code = YIYJIA | q = 0 | S = 0 | Stoichiometry = C12H8Cl2N2PdS | MND = 4
 OpenBabel04212202123D

 26 29  0  0  0  0  0  0  0  0999 V2000
    5.2972    5.5593    4.8293 C   0  0  0  0  0  0  0  0  0  0  0  0
    4.7594    6.4074    4.4293 H   0  0  0  0  0  0  0  0  0  0  0  0
    6.4642    5.6962    5.5477 C   0  0  0  0  0  0  0  0  0  0  0  0
    6.8636    6.6830    5.7221 H   0  0  0  0  0  0  0  0  0  0  0  0
    3.4562    2.6477    3.8936 C   0  0  0  0  0  0  0  0  0  0  0  0
    6.6606    3.3081    5.8508 C   0  0  0  0  0  0  0  0  0  0  0  0
    7.1758    2.4434    6.2380 H   0  0  0  0  0  0  0  0  0  0  0  0
    4.7927    4.2761    4.6108 C   0  0  0  0  0  0  0  0  0  0  0  0
    5.4878    3.1618    5.1284 C   0  0  0  0  0  0  0  0  0  0  0  0
    7.1409    4.5862    6.0545 C   0  0  0  0  0  0  0  0  0  0  0  0
    8.0532    4.7254    6.6139 H   0  0  0  0  0  0  0  0  0  0  0  0
    2.3177    2.0896    3.2184 C   0  0  0  0  0  0  0  0  0  0  0  0
    2.0591    0.7193    3.1454 C   0  0  0  0  0  0  0  0  0  0  0  0
    2.7386    0.0258    3.6163 H   0  0  0  0  0  0  0  0  0  0  0  0
    2.8254    6.9898    3.1945 Cl  0  0  0  0  0  0  0  0  0  0  0  0
    0.4138    5.7617    1.7847 Cl  0  0  0  0  0  0  0  0  0  0  0  0
    1.5024    3.0042    2.6467 N   0  0  0  0  0  0  0  0  0  0  0  0
    3.6556    3.9449    3.9239 N   0  0  0  0  0  0  0  0  0  0  0  0
    2.1223    4.9199    2.9021 Pd  0  0  0  0  0  0  0  0  0  0  0  0
    4.6585    1.6898    4.7177 S   0  0  0  0  0  0  0  0  0  0  0  0
    0.4202    2.5777    1.9962 C   0  0  0  0  0  0  0  0  0  0  0  0
   -0.2006    3.3508    1.5571 H   0  0  0  0  0  0  0  0  0  0  0  0
    0.1031    1.2363    1.8841 C   0  0  0  0  0  0  0  0  0  0  0  0
   -0.7829    0.9390    1.3474 H   0  0  0  0  0  0  0  0  0  0  0  0
    0.9369    0.2872    2.4686 C   0  0  0  0  0  0  0  0  0  0  0  0
    0.7126   -0.7654    2.3949 H   0  0  0  0  0  0  0  0  0  0  0  0
  1  3  1  0  0  0  0
  2  1  1  0  0  0  0
  3  4  1  0  0  0  0
  3 10  2  0  0  0  0
  5 18  1  0  0  0  0
  5 20  1  0  0  0  0
  6 10  1  0  0  0  0
  6  7  1  0  0  0  0
  8  1  2  0  0  0  0
  8  9  1  0  0  0  0
  9  6  2  0  0  0  0
 10 11  1  0  0  0  0
 12  5  2  0  0  0  0
 13 12  1  0  0  0  0
 13 14  1  0  0  0  0
 16 19  1  0  0  0  0
 17 19  1  0  0  0  0
 17 12  1  0  0  0  0
 18  8  1  0  0  0  0
 19 15  1  0  0  0  0
 19 18  1  0  0  0  0
 20  9  1  0  0  0  0
 21 17  1  0  0  0  0
 22 21  1  0  0  0  0
 23 21  2  0  0  0  0
 23 25  1  0  0  0  0
 24 23  1  0  0  0  0
 25 13  2  0  0  0  0
 26 25  1  0  0  0  0
M  END
$$$$
