CSD_code = YIYJUM | q = 0 | S = 0 | Stoichiometry = C12H8Cl2N2OPd | MND = 4
 OpenBabel04212202123D

 26 29  0  0  0  0  0  0  0  0999 V2000
    3.2508   14.2703   11.7790 C   0  0  0  0  0  0  0  0  0  0  0  0
    2.2473   14.2107   12.1667 H   0  0  0  0  0  0  0  0  0  0  0  0
    4.3636   14.1973   12.5975 C   0  0  0  0  0  0  0  0  0  0  0  0
    4.2220   14.0763   13.6604 H   0  0  0  0  0  0  0  0  0  0  0  0
    2.2468   15.0569    4.3279 C   0  0  0  0  0  0  0  0  0  0  0  0
    2.0227   15.1622    3.2789 H   0  0  0  0  0  0  0  0  0  0  0  0
    5.6635   14.2746   12.0913 C   0  0  0  0  0  0  0  0  0  0  0  0
    6.4938   14.2113   12.7773 H   0  0  0  0  0  0  0  0  0  0  0  0
    5.9137   14.4287   10.7434 C   0  0  0  0  0  0  0  0  0  0  0  0
    6.9068   14.4911   10.3255 H   0  0  0  0  0  0  0  0  0  0  0  0
    1.2256   14.9397    5.2670 C   0  0  0  0  0  0  0  0  0  0  0  0
    0.1914   14.9532    4.9600 H   0  0  0  0  0  0  0  0  0  0  0  0
    1.5602   14.8057    6.5998 C   0  0  0  0  0  0  0  0  0  0  0  0
    0.8131   14.7109    7.3715 H   0  0  0  0  0  0  0  0  0  0  0  0
    5.7769   14.8561    6.8463 Pd  0  0  0  0  0  0  0  0  0  0  0  0
    7.7328   14.7850    7.8594 Cl  0  0  0  0  0  0  0  0  0  0  0  0
    6.7979   15.0851    4.9094 Cl  0  0  0  0  0  0  0  0  0  0  0  0
    2.6179   14.5241    9.3877 O   0  0  0  0  0  0  0  0  0  0  0  0
    3.8995   14.9082    6.0320 N   0  0  0  0  0  0  0  0  0  0  0  0
    2.9106   14.7930    6.9505 C   0  0  0  0  0  0  0  0  0  0  0  0
    4.6866   14.6512    8.5485 N   0  0  0  0  0  0  0  0  0  0  0  0
    3.3947   14.6571    8.2948 C   0  0  0  0  0  0  0  0  0  0  0  0
    3.4949   14.4244   10.4268 C   0  0  0  0  0  0  0  0  0  0  0  0
    4.8039   14.5034    9.9095 C   0  0  0  0  0  0  0  0  0  0  0  0
    3.5647   15.0370    4.7497 C   0  0  0  0  0  0  0  0  0  0  0  0
    4.3934   15.1257    4.0556 H   0  0  0  0  0  0  0  0  0  0  0  0
  1  2  1  0  0  0  0
  1  3  1  0  0  0  0
  3  4  1  0  0  0  0
  5 25  2  0  0  0  0
  5 11  1  0  0  0  0
  6  5  1  0  0  0  0
  7  3  2  0  0  0  0
  7  8  1  0  0  0  0
  9  7  1  0  0  0  0
 10  9  1  0  0  0  0
 11 13  2  0  0  0  0
 12 11  1  0  0  0  0
 13 20  1  0  0  0  0
 13 14  1  0  0  0  0
 15 16  1  0  0  0  0
 15 21  1  0  0  0  0
 17 15  1  0  0  0  0
 18 23  1  0  0  0  0
 19 15  1  0  0  0  0
 19 20  1  0  0  0  0
 20 22  2  0  0  0  0
 21 24  1  0  0  0  0
 22 21  1  0  0  0  0
 22 18  1  0  0  0  0
 23  1  2  0  0  0  0
 24 23  1  0  0  0  0
 24  9  2  0  0  0  0
 25 19  1  0  0  0  0
 26 25  1  0  0  0  0
M  END
$$$$
