CSD_code = YIYKAT | q = 0 | S = 0 | Stoichiometry = C13H11Cl2N3Pd | MND = 4
 OpenBabel04212202123D

 30 33  0  0  0  0  0  0  0  0999 V2000
    0.2946   10.8021   11.6480 Pd  0  0  0  0  0  0  0  0  0  0  0  0
    0.2988   12.8119   10.7412 Cl  0  0  0  0  0  0  0  0  0  0  0  0
    0.3258   11.7699   13.6403 Cl  0  0  0  0  0  0  0  0  0  0  0  0
    0.2674    9.7504    9.9087 N   0  0  0  0  0  0  0  0  0  0  0  0
    0.2587    7.7650    8.8919 N   0  0  0  0  0  0  0  0  0  0  0  0
    0.2747    8.4307   10.0897 C   0  0  0  0  0  0  0  0  0  0  0  0
    0.2451    9.9766    8.5615 C   0  0  0  0  0  0  0  0  0  0  0  0
    0.2960    8.9138   12.3770 N   0  0  0  0  0  0  0  0  0  0  0  0
    0.2920    7.9251   11.4446 C   0  0  0  0  0  0  0  0  0  0  0  0
    0.3024    6.5829   11.8318 C   0  0  0  0  0  0  0  0  0  0  0  0
    0.3020    5.7957   11.0998 H   0  0  0  0  0  0  0  0  0  0  0  0
    0.2395    8.7245    7.9069 C   0  0  0  0  0  0  0  0  0  0  0  0
    0.3149    7.2847   14.1141 C   0  0  0  0  0  0  0  0  0  0  0  0
    0.3226    7.0740   15.1707 H   0  0  0  0  0  0  0  0  0  0  0  0
    0.2633    6.3499    8.6455 C   0  0  0  0  0  0  0  0  0  0  0  0
    0.2480    6.1888    7.5697 H   0  0  0  0  0  0  0  0  0  0  0  0
   -0.6210    5.8759    9.0765 H   0  0  0  0  0  0  0  0  0  0  0  0
    1.1660    5.8868    9.0494 H   0  0  0  0  0  0  0  0  0  0  0  0
    0.3064    8.5936   13.6695 C   0  0  0  0  0  0  0  0  0  0  0  0
    0.3085    9.4321   14.3586 H   0  0  0  0  0  0  0  0  0  0  0  0
    0.2168    8.6405    6.5201 C   0  0  0  0  0  0  0  0  0  0  0  0
    0.2121    7.6935    6.0021 H   0  0  0  0  0  0  0  0  0  0  0  0
    0.2276   11.1675    7.8370 C   0  0  0  0  0  0  0  0  0  0  0  0
    0.2327   12.1123    8.3591 H   0  0  0  0  0  0  0  0  0  0  0  0
    0.3141    6.2605   13.1755 C   0  0  0  0  0  0  0  0  0  0  0  0
    0.3225    5.2268   13.4847 H   0  0  0  0  0  0  0  0  0  0  0  0
    0.2051   11.0677    6.4646 C   0  0  0  0  0  0  0  0  0  0  0  0
    0.1906   11.9662    5.8678 H   0  0  0  0  0  0  0  0  0  0  0  0
    0.1998    9.8271    5.8181 C   0  0  0  0  0  0  0  0  0  0  0  0
    0.1817    9.7975    4.7392 H   0  0  0  0  0  0  0  0  0  0  0  0
  1  8  1  0  0  0  0
  1  3  1  0  0  0  0
  2  1  1  0  0  0  0
  4  6  1  0  0  0  0
  4  1  1  0  0  0  0
  5  6  1  0  0  0  0
  6  9  2  0  0  0  0
  7  4  1  0  0  0  0
  8 19  1  0  0  0  0
  9 10  1  0  0  0  0
  9  8  1  0  0  0  0
 10 25  2  0  0  0  0
 11 10  1  0  0  0  0
 12  7  1  0  0  0  0
 12  5  1  0  0  0  0
 13 14  1  0  0  0  0
 15  5  1  0  0  0  0
 15 18  1  0  0  0  0
 15 17  1  0  0  0  0
 16 15  1  0  0  0  0
 19 13  2  0  0  0  0
 19 20  1  0  0  0  0
 21 12  2  0  0  0  0
 22 21  1  0  0  0  0
 23 24  1  0  0  0  0
 23  7  2  0  0  0  0
 25 26  1  0  0  0  0
 25 13  1  0  0  0  0
 27 23  1  0  0  0  0
 28 27  1  0  0  0  0
 29 27  2  0  0  0  0
 29 21  1  0  0  0  0
 30 29  1  0  0  0  0
M  END
$$$$
