CSD_code = YIYNEA | q = 0 | S = 0 | Stoichiometry = C19H30BrNP2PdS | MND = 4
 OpenBabel04212202123D

 55 56  0  0  0  0  0  0  0  0999 V2000
   -0.3339    9.4096    3.5057 Pd  0  0  0  0  0  0  0  0  0  0  0  0
    0.0248    9.9748    5.8939 Br  0  0  0  0  0  0  0  0  0  0  0  0
   -2.7300    8.0749   -0.0304 S   0  0  0  0  0  0  0  0  0  0  0  0
    1.2443    7.7931    3.6931 P   0  0  0  0  0  4  0  0  0  0  0  0
   -2.0754   10.9207    3.5167 P   0  0  0  0  0  4  0  0  0  0  0  0
    0.0536    9.1928    0.5753 N   0  0  0  0  0  2  0  0  0  0  0  0
    1.7008    6.6505    2.3348 C   0  0  0  0  0  0  0  0  0  0  0  0
    0.8051    6.1785    1.9319 H   0  0  0  0  0  0  0  0  0  0  0  0
    2.3786    5.8842    2.7099 H   0  0  0  0  0  0  0  0  0  0  0  0
    2.1923    7.2109    1.5420 H   0  0  0  0  0  0  0  0  0  0  0  0
    0.8354    6.6037    5.0231 C   0  0  0  0  0  0  0  0  0  0  0  0
   -0.0774    6.0658    4.7602 H   0  0  0  0  0  0  0  0  0  0  0  0
    0.6719    7.1444    5.9554 H   0  0  0  0  0  0  0  0  0  0  0  0
    1.6518    5.8927    5.1508 H   0  0  0  0  0  0  0  0  0  0  0  0
    2.8847    8.4164    4.2038 C   0  0  0  0  0  0  0  0  0  0  0  0
    2.7751    9.0210    5.1047 H   0  0  0  0  0  0  0  0  0  0  0  0
    3.2981    9.0338    3.4048 H   0  0  0  0  0  0  0  0  0  0  0  0
    3.5543    7.5797    4.4031 H   0  0  0  0  0  0  0  0  0  0  0  0
   -3.0846   11.3427    2.0383 C   0  0  0  0  0  0  0  0  0  0  0  0
   -3.6376   10.4672    1.7033 H   0  0  0  0  0  0  0  0  0  0  0  0
   -2.4405   11.6754    1.2252 H   0  0  0  0  0  0  0  0  0  0  0  0
   -3.7875   12.1365    2.2889 H   0  0  0  0  0  0  0  0  0  0  0  0
   -1.6672   12.5950    4.1376 C   0  0  0  0  0  0  0  0  0  0  0  0
   -1.1384   12.5068    5.0865 H   0  0  0  0  0  0  0  0  0  0  0  0
   -2.5863   13.1624    4.2851 H   0  0  0  0  0  0  0  0  0  0  0  0
   -1.0299   13.1165    3.4242 H   0  0  0  0  0  0  0  0  0  0  0  0
   -3.3897   10.4263    4.6919 C   0  0  0  0  0  0  0  0  0  0  0  0
   -2.9447   10.2628    5.6740 H   0  0  0  0  0  0  0  0  0  0  0  0
   -3.8614    9.5031    4.3538 H   0  0  0  0  0  0  0  0  0  0  0  0
   -4.1408   11.2136    4.7581 H   0  0  0  0  0  0  0  0  0  0  0  0
    1.3663    9.6039    0.4761 C   0  0  0  0  0  0  0  0  0  0  0  0
    1.9743   10.6399    1.2063 C   0  0  0  0  0  0  0  0  0  0  0  0
    3.3287   10.8849    1.0131 C   0  0  0  0  0  0  0  0  0  0  0  0
    3.7993   11.6761    1.5804 H   0  0  0  0  0  0  0  0  0  0  0  0
    4.0782   10.1459    0.1190 C   0  0  0  0  0  0  0  0  0  0  0  0
    5.1319   10.3477   -0.0030 H   0  0  0  0  0  0  0  0  0  0  0  0
    3.4622    9.1671   -0.6424 C   0  0  0  0  0  0  0  0  0  0  0  0
    4.0334    8.6108   -1.3719 H   0  0  0  0  0  0  0  0  0  0  0  0
    2.1150    8.8968   -0.4878 C   0  0  0  0  0  0  0  0  0  0  0  0
    1.2121   11.5420    2.1365 C   0  0  0  0  0  0  0  0  0  0  0  0
    1.6736   12.5295    2.1491 H   0  0  0  0  0  0  0  0  0  0  0  0
    1.2366   11.1618    3.1790 H   0  0  0  0  0  0  0  0  0  0  0  0
    0.1756   11.6485    1.7973 H   0  0  0  0  0  0  0  0  0  0  0  0
    1.4437    7.8454   -1.3191 C   0  0  0  0  0  0  0  0  0  0  0  0
    0.4383    8.1669   -1.5828 H   0  0  0  0  0  0  0  0  0  0  0  0
    1.3517    6.9106   -0.7652 H   0  0  0  0  0  0  0  0  0  0  0  0
    2.0153    7.6516   -2.2236 H   0  0  0  0  0  0  0  0  0  0  0  0
   -0.6438    8.9713    1.5993 C   0  0  0  0  0  0  0  0  0  0  0  0
   -1.9070    8.2966    1.4933 C   0  0  0  0  0  0  0  0  0  0  0  0
   -2.5901    7.6713    2.5106 C   0  0  0  0  0  0  0  0  0  0  0  0
   -2.2379    7.6454    3.5440 H   0  0  0  0  0  0  0  0  0  0  0  0
   -3.7682    7.0346    2.0770 C   0  0  0  0  0  0  0  0  0  0  0  0
   -4.4332    6.4964    2.7295 H   0  0  0  0  0  0  0  0  0  0  0  0
   -3.9761    7.1794    0.7405 C   0  0  0  0  0  0  0  0  0  0  0  0
   -4.7945    6.8095    0.1548 H   0  0  0  0  0  0  0  0  0  0  0  0
  1  5  1  0  0  0  0
  1  4  1  0  0  0  0
  1  2  1  0  0  0  0
  3 54  1  0  0  0  0
  3 49  1  0  0  0  0
  4 15  1  0  0  0  0
  4 11  1  0  0  0  0
  5 23  1  0  0  0  0
  5 27  1  0  0  0  0
  6 48  1  0  0  0  0
  7  9  1  0  0  0  0
  7  4  1  0  0  0  0
  8  7  1  0  0  0  0
 10  7  1  0  0  0  0
 11 14  1  0  0  0  0
 11 13  1  0  0  0  0
 12 11  1  0  0  0  0
 15 18  1  0  0  0  0
 15 16  1  0  0  0  0
 17 15  1  0  0  0  0
 19 22  1  0  0  0  0
 19  5  1  0  0  0  0
 20 19  1  0  0  0  0
 21 19  1  0  0  0  0
 23 25  1  0  0  0  0
 23 24  1  0  0  0  0
 26 23  1  0  0  0  0
 27 30  1  0  0  0  0
 27 28  1  0  0  0  0
 29 27  1  0  0  0  0
 31  6  1  0  0  0  0
 31 32  1  0  0  0  0
 32 40  1  0  0  0  0
 33 32  2  0  0  0  0
 33 34  1  0  0  0  0
 35 33  1  0  0  0  0
 36 35  1  0  0  0  0
 37 39  1  0  0  0  0
 37 35  2  0  0  0  0
 38 37  1  0  0  0  0
 39 31  2  0  0  0  0
 40 41  1  0  0  0  0
 40 42  1  0  0  0  0
 43 40  1  0  0  0  0
 44 46  1  0  0  0  0
 44 39  1  0  0  0  0
 45 44  1  0  0  0  0
 47 44  1  0  0  0  0
 48  1  2  0  0  0  0
 49 48  1  0  0  0  0
 49 50  2  0  0  0  0
 50 51  1  0  0  0  0
 52 50  1  0  0  0  0
 52 53  1  0  0  0  0
 54 52  2  0  0  0  0
 55 54  1  0  0  0  0
M  END
$$$$
