CSD_code = YIYVEK | q = -1 | S = 0 | Stoichiometry = C11H8Cl2NPt(1-) | MND = 4
 OpenBabel04212202123D

 23 25  0  0  0  0  0  0  0  0999 V2000
    5.7843   11.3016    9.8528 Pt  0  0  0  0  0  0  0  0  0  0  0  0
    5.9131   10.2620   11.8347 Cl  0  0  0  0  0  0  0  0  0  0  0  0
    6.8260   13.2200   10.8085 Cl  0  0  0  0  0  0  0  0  0  0  0  0
    5.6209   12.1210    8.0658 N   0  0  0  0  0  0  0  0  0  0  0  0
    6.0293   13.3518    7.7530 C   0  0  0  0  0  0  0  0  0  0  0  0
    6.4750   13.9166    8.5630 H   0  0  0  0  0  0  0  0  0  0  0  0
    5.9019   13.8877    6.4876 C   0  0  0  0  0  0  0  0  0  0  0  0
    6.2500   14.8900    6.2903 H   0  0  0  0  0  0  0  0  0  0  0  0
    5.3231   13.1167    5.4862 C   0  0  0  0  0  0  0  0  0  0  0  0
    5.2085   13.5031    4.4830 H   0  0  0  0  0  0  0  0  0  0  0  0
    4.8965   11.8418    5.8039 C   0  0  0  0  0  0  0  0  0  0  0  0
    4.4428   11.2184    5.0489 H   0  0  0  0  0  0  0  0  0  0  0  0
    5.0491   11.3517    7.0996 C   0  0  0  0  0  0  0  0  0  0  0  0
    4.6408   10.0357    7.5541 C   0  0  0  0  0  0  0  0  0  0  0  0
    4.9097    9.7733    8.9186 C   0  0  0  0  0  0  0  0  0  0  0  0
    4.5388    8.5229    9.4132 C   0  0  0  0  0  0  0  0  0  0  0  0
    4.7306    8.2899   10.4508 H   0  0  0  0  0  0  0  0  0  0  0  0
    3.9322    7.5788    8.6053 C   0  0  0  0  0  0  0  0  0  0  0  0
    3.6534    6.6155    9.0144 H   0  0  0  0  0  0  0  0  0  0  0  0
    3.6749    7.8542    7.2683 C   0  0  0  0  0  0  0  0  0  0  0  0
    3.1989    7.1113    6.6405 H   0  0  0  0  0  0  0  0  0  0  0  0
    4.0284    9.0791    6.7431 C   0  0  0  0  0  0  0  0  0  0  0  0
    3.8257    9.2888    5.7006 H   0  0  0  0  0  0  0  0  0  0  0  0
  1  3  1  0  0  0  0
  1  2  1  0  0  0  0
  4  1  1  0  0  0  0
  5  4  1  0  0  0  0
  5  6  1  0  0  0  0
  7  5  2  0  0  0  0
  8  7  1  0  0  0  0
  9 11  2  0  0  0  0
  9  7  1  0  0  0  0
 10  9  1  0  0  0  0
 11 13  1  0  0  0  0
 12 11  1  0  0  0  0
 13 14  2  0  0  0  0
 13  4  1  0  0  0  0
 14 15  1  0  0  0  0
 15 16  1  0  0  0  0
 15  1  2  0  0  0  0
 16 17  1  0  0  0  0
 18 19  1  0  0  0  0
 18 16  2  0  0  0  0
 20 18  1  0  0  0  0
 21 20  1  0  0  0  0
 22 20  2  0  0  0  0
 22 14  1  0  0  0  0
 23 22  1  0  0  0  0
M  END
$$$$
