CSD_code = YIYWIN | q = 0 | S = 0 | Stoichiometry = C28H26Cl3HgO2PS | MND = 4
 OpenBabel04212202123D

 62 65  0  0  1  0  0  0  0  0999 V2000
    8.4068   12.7380   24.2456 C   0  0  0  0  0  0  0  0  0  0  0  0
    8.4885   12.5334   25.3028 H   0  0  0  0  0  0  0  0  0  0  0  0
    9.4330   12.4171   23.3820 C   0  0  0  0  0  0  0  0  0  0  0  0
   10.3368   11.9538   23.7457 H   0  0  0  0  0  0  0  0  0  0  0  0
    9.2948   12.7083   22.0322 C   0  0  0  0  0  0  0  0  0  0  0  0
    8.1431   13.3095   21.5441 C   0  0  0  0  0  0  0  0  0  0  0  0
    8.0596   13.5402   20.4937 H   0  0  0  0  0  0  0  0  0  0  0  0
    7.1165   13.6221   22.4122 C   0  0  0  0  0  0  0  0  0  0  0  0
    6.2305   14.1053   22.0269 H   0  0  0  0  0  0  0  0  0  0  0  0
    7.2394   13.3402   23.7736 C   0  0  0  0  0  0  0  0  0  0  0  0
    6.1894   13.6836   24.7391 C   0  0  0  0  0  0  0  0  0  0  0  0
    4.9059   14.2157   24.3623 C   0  0  2  0  0  0  0  0  0  0  0  0
    4.3538   13.9182   23.4734 H   0  0  0  0  0  0  0  0  0  0  0  0
    4.0774   12.5536   26.7636 C   0  0  0  0  0  0  0  0  0  0  0  0
    4.1077   11.3944   25.9956 C   0  0  0  0  0  0  0  0  0  0  0  0
    4.1294   11.4680   24.9158 H   0  0  0  0  0  0  0  0  0  0  0  0
    4.1262   10.1601   26.6176 C   0  0  0  0  0  0  0  0  0  0  0  0
    4.1538    9.2589   26.0228 H   0  0  0  0  0  0  0  0  0  0  0  0
    4.1143   10.0813   28.0014 C   0  0  0  0  0  0  0  0  0  0  0  0
    4.1310    9.1160   28.4850 H   0  0  0  0  0  0  0  0  0  0  0  0
    4.0918   11.2375   28.7636 C   0  0  0  0  0  0  0  0  0  0  0  0
    4.0931   11.1737   29.8416 H   0  0  0  0  0  0  0  0  0  0  0  0
    4.0756   12.4774   28.1491 C   0  0  0  0  0  0  0  0  0  0  0  0
    4.0747   13.3827   28.7388 H   0  0  0  0  0  0  0  0  0  0  0  0
    2.3089   14.4184   25.4665 C   0  0  0  0  0  0  0  0  0  0  0  0
    1.4270   13.3465   25.3779 C   0  0  0  0  0  0  0  0  0  0  0  0
    1.7565   12.3523   25.6464 H   0  0  0  0  0  0  0  0  0  0  0  0
    0.1253   13.5516   24.9551 C   0  0  0  0  0  0  0  0  0  0  0  0
   -0.5550   12.7151   24.8903 H   0  0  0  0  0  0  0  0  0  0  0  0
   -0.3037   14.8246   24.6187 C   0  0  0  0  0  0  0  0  0  0  0  0
   -1.3207   14.9822   24.2912 H   0  0  0  0  0  0  0  0  0  0  0  0
    0.5711   15.8955   24.7092 C   0  0  0  0  0  0  0  0  0  0  0  0
    0.2373   16.8918   24.4597 H   0  0  0  0  0  0  0  0  0  0  0  0
    1.8733   15.6973   25.1296 C   0  0  0  0  0  0  0  0  0  0  0  0
    2.5455   16.5401   25.2145 H   0  0  0  0  0  0  0  0  0  0  0  0
    4.4014   15.4917   27.0959 C   0  0  0  0  0  0  0  0  0  0  0  0
    3.3710   15.8738   27.9545 C   0  0  0  0  0  0  0  0  0  0  0  0
    2.4240   15.3499   27.9206 H   0  0  0  0  0  0  0  0  0  0  0  0
    3.5554   16.9271   28.8297 C   0  0  0  0  0  0  0  0  0  0  0  0
    2.7521   17.2259   29.4868 H   0  0  0  0  0  0  0  0  0  0  0  0
    4.7619   17.6086   28.8505 C   0  0  0  0  0  0  0  0  0  0  0  0
    4.8979   18.4441   29.5207 H   0  0  0  0  0  0  0  0  0  0  0  0
    5.7935   17.2203   28.0121 C   0  0  0  0  0  0  0  0  0  0  0  0
    6.7362   17.7461   28.0315 H   0  0  0  0  0  0  0  0  0  0  0  0
    5.6214   16.1605   27.1386 C   0  0  0  0  0  0  0  0  0  0  0  0
    6.4488   15.8335   26.5209 H   0  0  0  0  0  0  0  0  0  0  0  0
    4.6399   18.8356   21.1658 C   0  0  0  0  0  0  0  0  0  0  0  0
    4.7151   19.1857   22.1921 H   0  0  0  0  0  0  0  0  0  0  0  0
    5.5996   18.4433   20.8403 H   0  0  0  0  0  0  0  0  0  0  0  0
    4.3175   19.6338   20.5061 H   0  0  0  0  0  0  0  0  0  0  0  0
    2.1050   18.3228   22.0210 C   0  0  0  0  0  0  0  0  0  0  0  0
    1.2627   17.6418   22.0934 H   0  0  0  0  0  0  0  0  0  0  0  0
    2.4875   18.5553   23.0117 H   0  0  0  0  0  0  0  0  0  0  0  0
    1.8149   19.2213   21.4887 H   0  0  0  0  0  0  0  0  0  0  0  0
    5.3031   16.5281   23.8961 Hg  0  0  0  0  0  0  0  0  0  0  0  0
    6.3559   13.5832   25.9745 O   0  0  0  0  0  0  0  0  0  0  0  0
    3.9263   16.4058   21.9735 O   0  0  0  0  0  0  0  0  0  0  0  0
    4.0530   14.1578   25.9217 P   0  0  0  0  0  4  0  0  0  0  0  0
    4.2664   18.3988   24.8455 Cl  0  0  0  0  0  0  0  0  0  0  0  0
    7.3205   16.9328   22.9307 Cl  0  0  0  0  0  0  0  0  0  0  0  0
   10.5741   12.3186   20.9452 Cl  0  0  0  0  0  0  0  0  0  0  0  0
    3.4224   17.4782   21.0711 S   0  0  0  0  0  3  0  0  0  0  0  0
  1  2  1  0  0  0  0
  3  4  1  0  0  0  0
  3  1  2  0  0  0  0
  5  3  1  0  0  0  0
  6  5  2  0  0  0  0
  6  8  1  0  0  0  0
  7  6  1  0  0  0  0
  8 10  2  0  0  0  0
  9  8  1  0  0  0  0
 10  1  1  0  0  0  0
 10 11  1  0  0  0  0
 11 56  2  0  0  0  0
 12 13  1  6  0  0  0
 12 11  1  0  0  0  0
 12 58  1  0  0  0  0
 14 23  1  0  0  0  0
 15 17  1  0  0  0  0
 15 14  2  0  0  0  0
 16 15  1  0  0  0  0
 17 19  2  0  0  0  0
 18 17  1  0  0  0  0
 19 20  1  0  0  0  0
 19 21  1  0  0  0  0
 21 22  1  0  0  0  0
 23 24  1  0  0  0  0
 23 21  2  0  0  0  0
 25 58  1  0  0  0  0
 26 25  1  0  0  0  0
 26 27  1  0  0  0  0
 28 26  2  0  0  0  0
 29 28  1  0  0  0  0
 30 32  2  0  0  0  0
 30 28  1  0  0  0  0
 31 30  1  0  0  0  0
 32 34  1  0  0  0  0
 33 32  1  0  0  0  0
 34 35  1  0  0  0  0
 34 25  2  0  0  0  0
 36 45  2  0  0  0  0
 36 37  1  0  0  0  0
 37 39  2  0  0  0  0
 38 37  1  0  0  0  0
 39 41  1  0  0  0  0
 39 40  1  0  0  0  0
 41 42  1  0  0  0  0
 43 44  1  0  0  0  0
 43 41  2  0  0  0  0
 45 43  1  0  0  0  0
 46 45  1  0  0  0  0
 47 48  1  0  0  0  0
 49 47  1  0  0  0  0
 50 47  1  0  0  0  0
 51 52  1  0  0  0  0
 51 53  1  0  0  0  0
 54 51  1  0  0  0  0
 55 12  1  0  0  0  0
 55 59  1  0  0  0  0
 57 55  1  0  0  0  0
 58 14  1  0  0  0  0
 58 36  1  0  0  0  0
 60 55  1  0  0  0  0
 61  5  1  0  0  0  0
 62 47  1  0  0  0  0
 62 57  1  0  0  0  0
 62 51  1  0  0  0  0
M  END
$$$$
