CSD_code = YIYZUB | q = 0 | S = 0 | Stoichiometry = C8H20Cl4MoS2 | MND = 6
 OpenBabel04212202123D

 35 34  0  0  0  0  0  0  0  0999 V2000
    7.8274    5.4819    5.3233 Mo  0  0  0  0  0  0  0  0  0  0  0  0
    6.8522    3.5994    5.6215 Cl  0  0  0  0  0  0  0  0  0  0  0  0
    5.9384    6.2669    3.9126 Cl  0  0  0  0  0  0  0  0  0  0  0  0
    6.5832    6.4686    7.3546 S   0  0  0  0  0  3  0  0  0  0  0  0
    7.0755    5.4341    8.7887 C   0  0  0  0  0  0  0  0  0  0  0  0
    4.8700    5.8800    7.0913 C   0  0  0  0  0  0  0  0  0  0  0  0
    8.2441    6.0817    9.5027 C   0  0  0  0  0  0  0  0  0  0  0  0
    3.9041    6.5331    8.0598 C   0  0  0  0  0  0  0  0  0  0  0  0
    6.2022    5.3751    9.4372 H   0  0  0  0  0  0  0  0  0  0  0  0
    7.3369    4.4442    8.4117 H   0  0  0  0  0  0  0  0  0  0  0  0
    4.6332    6.1558    6.0624 H   0  0  0  0  0  0  0  0  0  0  0  0
    4.8816    4.7923    7.1835 H   0  0  0  0  0  0  0  0  0  0  0  0
    8.5140    5.4913   10.3749 H   0  0  0  0  0  0  0  0  0  0  0  0
    7.9859    7.0886    9.8220 H   0  0  0  0  0  0  0  0  0  0  0  0
    9.1058    6.1281    8.8409 H   0  0  0  0  0  0  0  0  0  0  0  0
    2.8928    6.1953    7.8459 H   0  0  0  0  0  0  0  0  0  0  0  0
    3.9388    7.6141    7.9526 H   0  0  0  0  0  0  0  0  0  0  0  0
    4.1384    6.2795    9.0912 H   0  0  0  0  0  0  0  0  0  0  0  0
    8.8025    7.3645    5.0253 Cl  0  0  0  0  0  0  0  0  0  0  0  0
    9.7190    4.6952    6.7324 Cl  0  0  0  0  0  0  0  0  0  0  0  0
    9.0728    4.4939    3.2923 S   0  0  0  0  0  3  0  0  0  0  0  0
    8.5803    5.5286    1.8583 C   0  0  0  0  0  0  0  0  0  0  0  0
   10.7859    5.0826    3.5555 C   0  0  0  0  0  0  0  0  0  0  0  0
    7.4115    4.8812    1.1445 C   0  0  0  0  0  0  0  0  0  0  0  0
    9.4536    5.5875    1.2097 H   0  0  0  0  0  0  0  0  0  0  0  0
    8.3190    6.5186    2.2353 H   0  0  0  0  0  0  0  0  0  0  0  0
   11.7516    4.4293    2.5869 C   0  0  0  0  0  0  0  0  0  0  0  0
   11.0225    4.8068    4.5844 H   0  0  0  0  0  0  0  0  0  0  0  0
   10.7743    6.1703    3.4633 H   0  0  0  0  0  0  0  0  0  0  0  0
    7.1417    5.4715    0.2722 H   0  0  0  0  0  0  0  0  0  0  0  0
    7.6696    3.8742    0.8252 H   0  0  0  0  0  0  0  0  0  0  0  0
    6.5498    4.8349    1.8063 H   0  0  0  0  0  0  0  0  0  0  0  0
   12.7629    4.7671    2.8007 H   0  0  0  0  0  0  0  0  0  0  0  0
   11.7168    3.3484    2.6941 H   0  0  0  0  0  0  0  0  0  0  0  0
   11.5173    4.6831    1.5555 H   0  0  0  0  0  0  0  0  0  0  0  0
  1  2  1  0  0  0  0
  1 20  1  0  0  0  0
  1  4  1  0  0  0  0
  3  1  1  0  0  0  0
  4  5  1  0  0  0  0
  5  9  1  0  0  0  0
  5  7  1  0  0  0  0
  6 12  1  0  0  0  0
  6  4  1  0  0  0  0
  6  8  1  0  0  0  0
  7 14  1  0  0  0  0
  7 13  1  0  0  0  0
  8 18  1  0  0  0  0
 10  5  1  0  0  0  0
 11  6  1  0  0  0  0
 15  7  1  0  0  0  0
 16  8  1  0  0  0  0
 17  8  1  0  0  0  0
 19  1  1  0  0  0  0
 21 23  1  0  0  0  0
 21  1  1  0  0  0  0
 22 26  1  0  0  0  0
 22 21  1  0  0  0  0
 23 28  1  0  0  0  0
 24 32  1  0  0  0  0
 24 22  1  0  0  0  0
 25 22  1  0  0  0  0
 27 34  1  0  0  0  0
 27 33  1  0  0  0  0
 27 23  1  0  0  0  0
 29 23  1  0  0  0  0
 30 24  1  0  0  0  0
 31 24  1  0  0  0  0
 35 27  1  0  0  0  0
M  END
$$$$
