CSD_code = YIZBIV | q = 0 | S = 0 | Stoichiometry = C23H30ClF3N4Pt | MND = 4
 OpenBabel04212202123D

 62 65  0  0  0  0  0  0  0  0999 V2000
   13.0189    8.3531    7.8594 Pt  0  0  2  0  0  0  0  0  0  0  0  0
   15.2362    7.7003    7.7738 Cl  0  0  0  0  0  0  0  0  0  0  0  0
   10.7786    9.4178    6.4783 N   0  0  0  0  0  0  0  0  0  0  0  0
   10.2177    9.0502    8.6501 N   0  0  0  0  0  0  0  0  0  0  0  0
   10.4888    8.7583    9.5753 H   0  0  0  0  0  0  0  0  0  0  0  0
   10.2897   10.2391   -0.6278 F   0  0  0  0  0  0  0  0  0  0  0  0
    8.8838   11.5470    0.3404 F   0  0  0  0  0  0  0  0  0  0  0  0
   12.9099    7.6735   10.8384 N   0  0  0  0  0  2  0  0  0  0  0  0
   10.8920   12.2152   -0.0307 F   0  0  0  0  0  0  0  0  0  0  0  0
    8.7682   10.9643    9.1482 C   0  0  0  0  0  0  0  0  0  0  0  0
    9.5261   11.6110    8.7039 H   0  0  0  0  0  0  0  0  0  0  0  0
    7.7868   11.3807    8.9144 H   0  0  0  0  0  0  0  0  0  0  0  0
   11.8470    8.1625   14.3862 C   0  0  0  0  0  0  0  0  0  0  0  0
   11.3149    8.9734   14.8862 H   0  0  0  0  0  0  0  0  0  0  0  0
   12.8272    8.0649   14.8576 H   0  0  0  0  0  0  0  0  0  0  0  0
   11.5331    8.9317    3.0953 C   0  0  0  0  0  0  0  0  0  0  0  0
   11.9420    7.9400    3.2105 H   0  0  0  0  0  0  0  0  0  0  0  0
   11.3834    9.7572    4.2049 C   0  0  0  0  0  0  0  0  0  0  0  0
   11.7610    9.3122    5.5655 C   0  0  0  0  0  0  0  0  0  0  0  0
   11.1378    9.3647    1.8427 C   0  0  0  0  0  0  0  0  0  0  0  0
   11.2527    8.7237    0.9822 H   0  0  0  0  0  0  0  0  0  0  0  0
   11.9824    6.0502   12.3435 C   0  0  0  0  0  0  0  0  0  0  0  0
   11.0063    6.1551   11.8635 H   0  0  0  0  0  0  0  0  0  0  0  0
   12.5220    5.2488   11.8366 H   0  0  0  0  0  0  0  0  0  0  0  0
   11.7991    5.7201   13.8218 C   0  0  0  0  0  0  0  0  0  0  0  0
   12.7765    5.5624   14.2827 H   0  0  0  0  0  0  0  0  0  0  0  0
   11.2308    4.7937   13.9180 H   0  0  0  0  0  0  0  0  0  0  0  0
   10.5910   10.6315    1.6989 C   0  0  0  0  0  0  0  0  0  0  0  0
   10.8104   11.0171    4.0514 C   0  0  0  0  0  0  0  0  0  0  0  0
   10.6771   11.6418    4.9203 H   0  0  0  0  0  0  0  0  0  0  0  0
   14.0227    8.8066    4.9443 C   0  0  0  0  0  0  0  0  0  0  0  0
   14.9614    8.9962    5.4651 H   0  0  0  0  0  0  0  0  0  0  0  0
   13.8957    9.5414    4.1449 H   0  0  0  0  0  0  0  0  0  0  0  0
   14.0900    7.8071    4.5050 H   0  0  0  0  0  0  0  0  0  0  0  0
   12.9421    8.8633    5.9035 N   0  0  0  0  0  0  0  0  0  0  0  0
   11.1291    8.9971    7.6826 C   0  0  0  0  0  0  0  0  0  0  0  0
   12.0250    8.5059   12.9104 C   0  0  0  0  0  0  0  0  0  0  0  0
   12.5902    9.4331   12.7986 H   0  0  0  0  0  0  0  0  0  0  0  0
   11.0446    8.6478   12.4487 H   0  0  0  0  0  0  0  0  0  0  0  0
   12.7585    7.3647   12.1943 C   0  0  0  0  0  0  0  0  0  0  0  0
   13.7621    7.2487   12.6230 H   0  0  0  0  0  0  0  0  0  0  0  0
   11.0748    6.8552   14.5405 C   0  0  0  0  0  0  0  0  0  0  0  0
   10.0733    6.9721   14.1197 H   0  0  0  0  0  0  0  0  0  0  0  0
   10.9658    6.6129   15.5986 H   0  0  0  0  0  0  0  0  0  0  0  0
   12.9400    7.9221    9.6981 C   0  0  0  0  0  2  0  0  0  0  0  0
    7.9263    9.9641   11.2905 C   0  0  0  0  0  0  0  0  0  0  0  0
    8.0756    9.9180   12.3716 H   0  0  0  0  0  0  0  0  0  0  0  0
    6.9220   10.3532   11.1100 H   0  0  0  0  0  0  0  0  0  0  0  0
    7.8712    8.6117    9.1715 C   0  0  0  0  0  0  0  0  0  0  0  0
    8.0006    7.6128    8.7509 H   0  0  0  0  0  0  0  0  0  0  0  0
    6.8619    8.9498    8.9311 H   0  0  0  0  0  0  0  0  0  0  0  0
    8.9483   10.9081   10.6630 C   0  0  0  0  0  0  0  0  0  0  0  0
    8.8281   11.9094   11.0806 H   0  0  0  0  0  0  0  0  0  0  0  0
    9.9611   10.5749   10.9019 H   0  0  0  0  0  0  0  0  0  0  0  0
   10.4219   11.4596    2.8029 C   0  0  0  0  0  0  0  0  0  0  0  0
    9.9851   12.4386    2.6766 H   0  0  0  0  0  0  0  0  0  0  0  0
    8.8703    9.5701    8.5176 C   0  0  0  0  0  0  0  0  0  0  0  0
    8.6828    9.6400    7.4424 H   0  0  0  0  0  0  0  0  0  0  0  0
    8.0346    8.5653   10.6899 C   0  0  0  0  0  0  0  0  0  0  0  0
    7.2640    7.9198   11.1161 H   0  0  0  0  0  0  0  0  0  0  0  0
    9.0021    8.1264   10.9488 H   0  0  0  0  0  0  0  0  0  0  0  0
   10.1687   11.1442    0.3525 C   0  0  0  0  0  0  0  0  0  0  0  0
  1  2  1  1  0  0  0
  1 45  1  0  0  0  0
  3 36  1  0  0  0  0
  4  5  1  0  0  0  0
  6 62  1  0  0  0  0
  7 62  1  0  0  0  0
  8 40  1  0  0  0  0
  9 62  1  0  0  0  0
 10 52  1  0  0  0  0
 11 10  1  0  0  0  0
 12 10  1  0  0  0  0
 13 42  1  0  0  0  0
 13 15  1  0  0  0  0
 13 14  1  0  0  0  0
 16 17  1  0  0  0  0
 16 18  1  0  0  0  0
 18 19  1  0  0  0  0
 19 35  1  0  0  0  0
 19  3  2  0  0  0  0
 20 16  2  0  0  0  0
 21 20  1  0  0  0  0
 22 25  1  0  0  0  0
 23 22  1  0  0  0  0
 24 22  1  0  0  0  0
 25 27  1  0  0  0  0
 25 26  1  0  0  0  0
 25 42  1  0  0  0  0
 28 20  1  0  0  0  0
 28 55  2  0  0  0  0
 29 18  2  0  0  0  0
 29 30  1  0  0  0  0
 31 32  1  0  0  0  0
 31 35  1  0  0  0  0
 33 31  1  0  0  0  0
 34 31  1  0  0  0  0
 35  1  1  0  0  0  0
 36  1  2  0  0  0  0
 36  4  1  0  0  0  0
 37 13  1  0  0  0  0
 38 37  1  0  0  0  0
 39 37  1  0  0  0  0
 40 22  1  0  0  0  0
 40 41  1  0  0  0  0
 40 37  1  0  0  0  0
 42 44  1  0  0  0  0
 43 42  1  0  0  0  0
 45  8  1  0  0  0  0
 46 47  1  0  0  0  0
 48 46  1  0  0  0  0
 49 59  1  0  0  0  0
 50 49  1  0  0  0  0
 51 49  1  0  0  0  0
 52 54  1  0  0  0  0
 52 53  1  0  0  0  0
 52 46  1  0  0  0  0
 55 29  1  0  0  0  0
 56 55  1  0  0  0  0
 57  4  1  0  0  0  0
 57 10  1  0  0  0  0
 57 49  1  0  0  0  0
 58 57  1  0  0  0  0
 59 61  1  0  0  0  0
 59 60  1  0  0  0  0
 59 46  1  0  0  0  0
 62 28  1  0  0  0  0
M  END
$$$$
