CSD_code = YIZDOC | q = 0 | S = 0 | Stoichiometry = C6H11Cl3CrN2O | MND = 4
 OpenBabel04212202123D

 24 23  0  0  0  0  0  0  0  0999 V2000
    5.2688    9.3571    4.3693 Cr  0  0  0  0  0  0  0  0  0  0  0  0
    4.6391   11.1795    3.6032 Cl  0  0  0  0  0  0  0  0  0  0  0  0
    5.8478   10.0134    6.4171 Cl  0  0  0  0  0  0  0  0  0  0  0  0
    5.8409    7.3800    4.5231 Cl  0  0  0  0  0  0  0  0  0  0  0  0
    4.3948    8.6589    2.1289 O   0  0  0  0  0  0  0  0  0  0  0  0
    4.7175    9.4341    1.6527 H   0  0  0  0  0  0  0  0  0  0  0  0
    2.6073    6.8570    3.7619 N   0  0  0  0  0  0  0  0  0  0  0  0
    3.6292    4.9127    3.9689 N   0  0  0  0  0  0  0  0  0  0  0  0
    3.6088    6.0792    3.2799 C   0  0  0  0  0  3  0  0  0  0  0  0
    4.2906    6.3476    2.5044 H   0  0  0  0  0  0  0  0  0  0  0  0
    2.6517    4.9658    4.9111 C   0  0  0  0  0  0  0  0  0  0  0  0
    2.4708    4.1599    5.5924 H   0  0  0  0  0  0  0  0  0  0  0  0
    2.0179    6.1596    4.7964 C   0  0  0  0  0  0  0  0  0  0  0  0
    1.2051    6.5675    5.3589 H   0  0  0  0  0  0  0  0  0  0  0  0
    4.6504    3.9163    3.8338 C   0  0  0  0  0  0  0  0  0  0  0  0
    5.6168    4.3468    4.1071 H   0  0  0  0  0  0  0  0  0  0  0  0
    4.7032    3.5636    2.8028 H   0  0  0  0  0  0  0  0  0  0  0  0
    4.4301    3.0773    4.4901 H   0  0  0  0  0  0  0  0  0  0  0  0
    2.5066    8.2505    3.5631 C   0  0  0  0  0  0  0  0  0  0  0  0
    3.2839    8.7926    4.2700 H   0  0  0  0  0  0  0  0  0  0  0  0
    1.4986    8.5946    3.7849 H   0  0  0  0  0  0  0  0  0  0  0  0
    2.9712    8.7027    2.1828 C   0  0  0  0  0  0  0  0  0  0  0  0
    2.5695    8.0483    1.3971 H   0  0  0  0  0  0  0  0  0  0  0  0
    2.6195    9.7254    2.0256 H   0  0  0  0  0  0  0  0  0  0  0  0
  1  4  1  0  0  0  0
  1  3  1  0  0  0  0
  2  1  1  0  0  0  0
  5 22  1  0  0  0  0
  6  5  1  0  0  0  0
  7 13  1  0  0  0  0
  8 11  1  0  0  0  0
  9  7  1  0  0  0  0
  9  8  1  0  0  0  0
 10  9  1  0  0  0  0
 11 12  1  0  0  0  0
 13 11  2  0  0  0  0
 13 14  1  0  0  0  0
 15  8  1  0  0  0  0
 15 16  1  0  0  0  0
 15 18  1  0  0  0  0
 17 15  1  0  0  0  0
 19  7  1  0  0  0  0
 19 21  1  0  0  0  0
 19 20  1  0  0  0  0
 22 19  1  0  0  0  0
 23 22  1  0  0  0  0
 24 22  1  0  0  0  0
M  END
$$$$
