CSD_code = YIZFUJ | q = 0 | S = 0 | Stoichiometry = C18H22Cl2N2O2Pt | MND = 4
 OpenBabel04212202123D

 47 48  0  0  1  0  0  0  0  0999 V2000
    1.3368    2.2809    5.0151 Pt  0  0  0  0  0  0  0  0  0  0  0  0
    1.0331    4.3359    4.1365 Cl  0  0  0  0  0  0  0  0  0  0  0  0
    1.8445    1.4030    3.0096 Cl  0  0  0  0  0  0  0  0  0  0  0  0
    0.7824    3.1685    6.7974 N   0  0  0  0  0  0  0  0  0  0  0  0
   -0.1224    3.6277    6.8203 H   0  0  0  0  0  0  0  0  0  0  0  0
    1.5293    0.4631    5.9638 N   0  0  0  0  0  0  0  0  0  0  0  0
    0.5961    0.1612    6.2311 H   0  0  0  0  0  0  0  0  0  0  0  0
    2.8485    3.0220    7.5334 O   0  0  0  0  0  0  0  0  0  0  0  0
    3.7518    0.1113    6.4626 O   0  0  0  0  0  0  0  0  0  0  0  0
    1.6494    3.5946    7.6330 C   0  0  1  0  0  3  0  0  0  0  0  0
    3.9294    3.4478    8.3391 C   0  0  0  0  0  0  0  0  0  0  0  0
    4.1551    4.5032    8.1717 H   0  0  0  0  0  0  0  0  0  0  0  0
    4.7762    2.8380    8.0299 H   0  0  0  0  0  0  0  0  0  0  0  0
    3.7282    3.2736    9.3989 H   0  0  0  0  0  0  0  0  0  0  0  0
    1.3799    4.6645    8.6485 C   0  0  0  0  0  0  0  0  0  0  0  0
    1.7122    4.3369    9.6363 H   0  0  0  0  0  0  0  0  0  0  0  0
    0.3011    4.8362    8.6940 H   0  0  0  0  0  0  0  0  0  0  0  0
    2.0731    5.9599    8.2721 C   0  0  0  0  0  0  0  0  0  0  0  0
    2.6944    6.7253    9.2510 C   0  0  0  0  0  0  0  0  0  0  0  0
    2.6971    6.3867   10.2781 H   0  0  0  0  0  0  0  0  0  0  0  0
    3.3054    7.9219    8.9198 C   0  0  0  0  0  0  0  0  0  0  0  0
    3.7815    8.5111    9.6896 H   0  0  0  0  0  0  0  0  0  0  0  0
    3.3070    8.3587    7.6059 C   0  0  0  0  0  0  0  0  0  0  0  0
    3.7863    9.2909    7.3476 H   0  0  0  0  0  0  0  0  0  0  0  0
    2.6930    7.5960    6.6270 C   0  0  0  0  0  0  0  0  0  0  0  0
    2.6910    7.9259    5.5999 H   0  0  0  0  0  0  0  0  0  0  0  0
    2.0736    6.4019    6.9541 C   0  0  0  0  0  0  0  0  0  0  0  0
    1.6049    5.8178    6.1739 H   0  0  0  0  0  0  0  0  0  0  0  0
    2.4623   -0.0644    6.6616 C   0  0  1  0  0  3  0  0  0  0  0  0
    4.1966    0.8766    5.3496 C   0  0  0  0  0  0  0  0  0  0  0  0
    3.8762    0.4161    4.4117 H   0  0  0  0  0  0  0  0  0  0  0  0
    5.2822    0.8905    5.4167 H   0  0  0  0  0  0  0  0  0  0  0  0
    3.7965    1.8990    5.3856 H   0  0  0  0  0  0  0  0  0  0  0  0
    2.1828   -0.9233    7.8776 C   0  0  0  0  0  0  0  0  0  0  0  0
    3.0520   -1.5463    8.0841 H   0  0  0  0  0  0  0  0  0  0  0  0
    1.3123   -1.5548    7.6967 H   0  0  0  0  0  0  0  0  0  0  0  0
    1.9257    0.0248    9.0229 C   0  0  0  0  0  0  0  0  0  0  0  0
    0.6685    0.5878    9.2062 C   0  0  0  0  0  0  0  0  0  0  0  0
   -0.1492    0.3081    8.5579 H   0  0  0  0  0  0  0  0  0  0  0  0
    0.4484    1.4987   10.2238 C   0  0  0  0  0  0  0  0  0  0  0  0
   -0.5339    1.9269   10.3582 H   0  0  0  0  0  0  0  0  0  0  0  0
    1.4824    1.8553   11.0733 C   0  0  0  0  0  0  0  0  0  0  0  0
    1.3078    2.5589   11.8744 H   0  0  0  0  0  0  0  0  0  0  0  0
    2.7381    1.2983   10.8968 C   0  0  0  0  0  0  0  0  0  0  0  0
    3.5472    1.5663   11.5611 H   0  0  0  0  0  0  0  0  0  0  0  0
    2.9595    0.3937    9.8725 C   0  0  0  0  0  0  0  0  0  0  0  0
    3.9420   -0.0320    9.7327 H   0  0  0  0  0  0  0  0  0  0  0  0
  1  6  1  0  0  0  0
  1  4  1  0  0  0  0
  2  1  1  0  0  0  0
  3  1  1  0  0  0  0
  4  5  1  0  0  0  0
  4 10  1  0  0  0  0
  6  7  1  0  0  0  0
  6 29  1  0  0  0  0
  8 11  1  0  0  0  0
 10  8  1  6  0  0  0
 10 15  1  0  0  0  0
 11 14  1  0  0  0  0
 12 11  1  0  0  0  0
 13 11  1  0  0  0  0
 15 17  1  0  0  0  0
 15 16  1  0  0  0  0
 18 15  1  0  0  0  0
 18 19  1  0  0  0  0
 19 20  1  0  0  0  0
 21 19  2  0  0  0  0
 21 22  1  0  0  0  0
 23 21  1  0  0  0  0
 24 23  1  0  0  0  0
 25 27  1  0  0  0  0
 25 23  2  0  0  0  0
 26 25  1  0  0  0  0
 27 18  2  0  0  0  0
 28 27  1  0  0  0  0
 29  9  1  1  0  0  0
 29 34  1  0  0  0  0
 30 33  1  0  0  0  0
 30 32  1  0  0  0  0
 30  9  1  0  0  0  0
 31 30  1  0  0  0  0
 34 35  1  0  0  0  0
 34 37  1  0  0  0  0
 36 34  1  0  0  0  0
 37 38  2  0  0  0  0
 37 46  1  0  0  0  0
 38 40  1  0  0  0  0
 39 38  1  0  0  0  0
 40 41  1  0  0  0  0
 40 42  2  0  0  0  0
 42 43  1  0  0  0  0
 44 42  1  0  0  0  0
 44 45  1  0  0  0  0
 46 44  2  0  0  0  0
 47 46  1  0  0  0  0
M  END
$$$$
