CSD_code = YIZJEW | q = 0 | S = 0 | Stoichiometry = C22H20Cl2SiZr | MND = 12
 OpenBabel04212202123D

 46 51  0  0  1  0  0  0  0  0999 V2000
    0.7617    9.8948    2.9238 Zr  0  0  0  0  0  0  0  0  0  0  0  0
   -1.4893   10.4558    3.1123 Cl  0  0  0  0  0  0  0  0  0  0  0  0
    1.3614   12.1154    2.5714 Cl  0  0  0  0  0  0  0  0  0  0  0  0
    2.4812    7.0622    3.0869 Si  0  0  0  0  0  0  0  0  0  0  0  0
    1.9820    5.2635    3.4865 C   0  0  0  0  0  0  0  0  0  0  0  0
    3.2006    4.4567    3.0367 C   0  0  0  0  0  0  0  0  0  0  0  0
    4.4565    5.2432    3.3960 C   0  0  0  0  0  0  0  0  0  0  0  0
    4.3253    6.6514    2.8149 C   0  0  0  0  0  0  0  0  0  0  0  0
    2.0619    8.3986    4.3488 C   0  0  1  0  0  3  0  0  0  0  0  0
    2.7303    9.6480    4.4816 C   0  0  0  0  0  0  0  0  0  0  0  0
    1.9151   10.5687    5.1581 C   0  0  0  0  0  0  0  0  0  0  0  0
    0.6762    9.9268    5.4472 C   0  0  1  0  0  3  0  0  0  0  0  0
    0.7540    8.5792    4.9142 C   0  0  1  0  0  0  0  0  0  0  0  0
   -0.3726    7.7338    5.0045 C   0  0  0  0  0  0  0  0  0  0  0  0
   -1.4954    8.1920    5.6497 C   0  0  0  0  0  0  0  0  0  0  0  0
   -1.5473    9.4802    6.2134 C   0  0  0  0  0  0  0  0  0  0  0  0
   -0.4881   10.3474    6.1192 C   0  0  0  0  0  0  0  0  0  0  0  0
    1.5504    7.9351    1.6991 C   0  0  1  0  0  3  0  0  0  0  0  0
    0.1402    7.9039    1.5085 C   0  0  0  0  0  0  0  0  0  0  0  0
   -0.2696    8.9876    0.7162 C   0  0  0  0  0  0  0  0  0  0  0  0
    0.8843    9.7644    0.4063 C   0  0  1  0  0  3  0  0  0  0  0  0
    2.0193    9.1250    1.0458 C   0  0  1  0  0  0  0  0  0  0  0  0
    3.2939    9.7237    0.9514 C   0  0  0  0  0  0  0  0  0  0  0  0
    3.4353   10.8673    0.2037 C   0  0  0  0  0  0  0  0  0  0  0  0
    2.3417   11.4550   -0.4584 C   0  0  0  0  0  0  0  0  0  0  0  0
    1.0787   10.9268   -0.3649 C   0  0  0  0  0  0  0  0  0  0  0  0
    1.0822    4.9104    2.9883 H   0  0  0  0  0  0  0  0  0  0  0  0
    1.8352    5.1325    4.5579 H   0  0  0  0  0  0  0  0  0  0  0  0
    3.1647    4.3232    1.9543 H   0  0  0  0  0  0  0  0  0  0  0  0
    3.2150    3.4680    3.4977 H   0  0  0  0  0  0  0  0  0  0  0  0
    4.5346    5.3076    4.4825 H   0  0  0  0  0  0  0  0  0  0  0  0
    5.3505    4.7410    3.0232 H   0  0  0  0  0  0  0  0  0  0  0  0
    5.0273    7.3312    3.2919 H   0  0  0  0  0  0  0  0  0  0  0  0
    4.5629    6.6290    1.7520 H   0  0  0  0  0  0  0  0  0  0  0  0
    3.7646    9.8281    4.2074 H   0  0  0  0  0  0  0  0  0  0  0  0
    2.2061   11.5583    5.4857 H   0  0  0  0  0  0  0  0  0  0  0  0
   -0.3284    6.7233    4.6153 H   0  0  0  0  0  0  0  0  0  0  0  0
   -2.3625    7.5542    5.7347 H   0  0  0  0  0  0  0  0  0  0  0  0
   -2.4486    9.7876    6.7212 H   0  0  0  0  0  0  0  0  0  0  0  0
   -0.5372   11.3387    6.5500 H   0  0  0  0  0  0  0  0  0  0  0  0
   -0.5088    7.0944    1.8256 H   0  0  0  0  0  0  0  0  0  0  0  0
   -1.2667    9.1540    0.3293 H   0  0  0  0  0  0  0  0  0  0  0  0
    4.1516    9.2567    1.4211 H   0  0  0  0  0  0  0  0  0  0  0  0
    4.4057   11.3321    0.1136 H   0  0  0  0  0  0  0  0  0  0  0  0
    2.5081   12.3466   -1.0431 H   0  0  0  0  0  0  0  0  0  0  0  0
    0.2410   11.3873   -0.8720 H   0  0  0  0  0  0  0  0  0  0  0  0
  1  2  1  0  0  0  0
  1 13  1  0  0  0  0
  3  1  1  0  0  0  0
  4  5  1  0  0  0  0
  4  9  1  0  0  0  0
  5 28  1  0  0  0  0
  6  7  1  0  0  0  0
  6  5  1  0  0  0  0
  6 30  1  0  0  0  0
  7 31  1  0  0  0  0
  8  4  1  0  0  0  0
  8 33  1  0  0  0  0
  8  7  1  0  0  0  0
  9 10  1  6  0  0  0
  9 13  1  0  0  0  0
 10 11  2  0  0  0  0
 11 36  1  0  0  0  0
 12 11  1  1  0  0  0
 12 17  1  0  0  0  0
 13 14  1  1  0  0  0
 13 12  1  0  0  0  0
 14 15  2  0  0  0  0
 15 38  1  0  0  0  0
 15 16  1  0  0  0  0
 16 39  1  0  0  0  0
 17 16  2  0  0  0  0
 17 40  1  0  0  0  0
 18 19  1  1  0  0  0
 18  4  1  0  0  0  0
 19 41  1  0  0  0  0
 20 19  2  0  0  0  0
 21 26  1  6  0  0  0
 21 20  1  0  0  0  0
 21 22  1  0  0  0  0
 22 23  1  6  0  0  0
 22 18  1  0  0  0  0
 22  1  1  0  0  0  0
 23 43  1  0  0  0  0
 24 23  2  0  0  0  0
 25 26  2  0  0  0  0
 25 24  1  0  0  0  0
 27  5  1  0  0  0  0
 29  6  1  0  0  0  0
 32  7  1  0  0  0  0
 34  8  1  0  0  0  0
 35 10  1  0  0  0  0
 37 14  1  0  0  0  0
 42 20  1  0  0  0  0
 44 24  1  0  0  0  0
 45 25  1  0  0  0  0
 46 26  1  0  0  0  0
M  END
$$$$
