CSD_code = YIZJIA | q = 0 | S = 0 | Stoichiometry = C22H20Cl2SiZr | MND = 12
 OpenBabel04212202123D

 46 51  0  0  1  0  0  0  0  0999 V2000
    3.7887    5.5630    6.4485 Zr  0  0  0  0  0  0  0  0  0  0  0  0
    2.8754    4.5648    3.4200 Si  0  0  0  0  0  0  0  0  0  0  0  0
    3.0894    4.9038    8.5566 Cl  0  0  0  0  0  0  0  0  0  0  0  0
    5.2962    7.1127    7.3376 Cl  0  0  0  0  0  0  0  0  0  0  0  0
    1.6363    3.2568    2.7898 C   0  0  0  0  0  0  0  0  0  0  0  0
    1.5022    3.5950    1.3045 C   0  0  0  0  0  0  0  0  0  0  0  0
    2.8741    3.9988    0.7755 C   0  0  0  0  0  0  0  0  0  0  0  0
    3.4287    5.1043    1.6738 C   0  0  0  0  0  0  0  0  0  0  0  0
    4.2537    4.0398    4.5962 C   0  0  1  0  0  3  0  0  0  0  0  0
    5.4561    4.7843    4.7668 C   0  0  0  0  0  0  0  0  0  0  0  0
    6.0656    4.4551    5.9883 C   0  0  0  0  0  0  0  0  0  0  0  0
    5.2383    3.4966    6.6437 C   0  0  1  0  0  3  0  0  0  0  0  0
    4.0891    3.2602    5.7900 C   0  0  1  0  0  0  0  0  0  0  0  0
    3.0859    2.3643    6.2148 C   0  0  0  0  0  0  0  0  0  0  0  0
    3.2413    1.7134    7.4136 C   0  0  0  0  0  0  0  0  0  0  0  0
    4.3735    1.9196    8.2228 C   0  0  0  0  0  0  0  0  0  0  0  0
    5.3650    2.7949    7.8582 C   0  0  0  0  0  0  0  0  0  0  0  0
    2.2997    5.9596    4.5523 C   0  0  2  0  0  3  0  0  0  0  0  0
    3.0298    7.1748    4.6939 C   0  0  0  0  0  0  0  0  0  0  0  0
    2.6762    7.8217    5.8881 C   0  0  0  0  0  0  0  0  0  0  0  0
    1.7159    7.0073    6.5567 C   0  0  2  0  0  3  0  0  0  0  0  0
    1.5023    5.8271    5.7388 C   0  0  2  0  0  0  0  0  0  0  0  0
    0.6090    4.8318    6.1881 C   0  0  0  0  0  0  0  0  0  0  0  0
   -0.0620    5.0242    7.3702 C   0  0  0  0  0  0  0  0  0  0  0  0
    0.1214    6.1860    8.1418 C   0  0  0  0  0  0  0  0  0  0  0  0
    0.9951    7.1707    7.7555 C   0  0  0  0  0  0  0  0  0  0  0  0
    0.6618    3.2647    3.2713 H   0  0  0  0  0  0  0  0  0  0  0  0
    2.0480    2.2539    2.8983 H   0  0  0  0  0  0  0  0  0  0  0  0
    1.0995    2.7520    0.7408 H   0  0  0  0  0  0  0  0  0  0  0  0
    0.8169    4.4361    1.1881 H   0  0  0  0  0  0  0  0  0  0  0  0
    3.5380    3.1337    0.8171 H   0  0  0  0  0  0  0  0  0  0  0  0
    2.8098    4.3238   -0.2640 H   0  0  0  0  0  0  0  0  0  0  0  0
    4.5026    5.2066    1.5395 H   0  0  0  0  0  0  0  0  0  0  0  0
    2.9753    6.0564    1.4010 H   0  0  0  0  0  0  0  0  0  0  0  0
    5.8984    5.4241    4.0092 H   0  0  0  0  0  0  0  0  0  0  0  0
    7.0402    4.7848    6.3254 H   0  0  0  0  0  0  0  0  0  0  0  0
    2.2330    2.1615    5.5790 H   0  0  0  0  0  0  0  0  0  0  0  0
    2.4844    1.0203    7.7485 H   0  0  0  0  0  0  0  0  0  0  0  0
    4.4536    1.3751    9.1512 H   0  0  0  0  0  0  0  0  0  0  0  0
    6.2350    2.9462    8.4836 H   0  0  0  0  0  0  0  0  0  0  0  0
    3.6768    7.5956    3.9304 H   0  0  0  0  0  0  0  0  0  0  0  0
    2.9923    8.8096    6.1979 H   0  0  0  0  0  0  0  0  0  0  0  0
    0.4236    3.9522    5.5846 H   0  0  0  0  0  0  0  0  0  0  0  0
   -0.7529    4.2725    7.7215 H   0  0  0  0  0  0  0  0  0  0  0  0
   -0.4382    6.2942    9.0582 H   0  0  0  0  0  0  0  0  0  0  0  0
    1.1306    8.0635    8.3516 H   0  0  0  0  0  0  0  0  0  0  0  0
  1  4  1  0  0  0  0
  1  3  1  0  0  0  0
  2 18  1  0  0  0  0
  2  9  1  0  0  0  0
  5 28  1  0  0  0  0
  5 27  1  0  0  0  0
  5  2  1  0  0  0  0
  6  5  1  0  0  0  0
  7 31  1  0  0  0  0
  7  6  1  0  0  0  0
  7  8  1  0  0  0  0
  8  2  1  0  0  0  0
  9 10  1  1  0  0  0
  9 13  1  0  0  0  0
 10 11  2  0  0  0  0
 11 36  1  0  0  0  0
 12 11  1  6  0  0  0
 12 17  1  0  0  0  0
 13 14  1  1  0  0  0
 13  1  1  0  0  0  0
 13 12  1  0  0  0  0
 14 15  2  0  0  0  0
 15 38  1  0  0  0  0
 15 16  1  0  0  0  0
 16 39  1  0  0  0  0
 17 16  2  0  0  0  0
 17 40  1  0  0  0  0
 18 19  1  1  0  0  0
 18 22  1  0  0  0  0
 19 20  2  0  0  0  0
 20 42  1  0  0  0  0
 21 20  1  6  0  0  0
 21 26  1  0  0  0  0
 22 23  1  1  0  0  0
 22  1  1  0  0  0  0
 22 21  1  0  0  0  0
 23 24  2  0  0  0  0
 24 44  1  0  0  0  0
 24 25  1  0  0  0  0
 25 45  1  0  0  0  0
 26 25  2  0  0  0  0
 26 46  1  0  0  0  0
 29  6  1  0  0  0  0
 30  6  1  0  0  0  0
 32  7  1  0  0  0  0
 33  8  1  0  0  0  0
 34  8  1  0  0  0  0
 35 10  1  0  0  0  0
 37 14  1  0  0  0  0
 41 19  1  0  0  0  0
 43 23  1  0  0  0  0
M  END
$$$$
