CSD_code = YIZKAV | q = 0 | S = 0 | Stoichiometry = C22H18Cl2N3PPt | MND = 4
 OpenBabel04212202123D

 47 51  0  0  1  0  0  0  0  0999 V2000
    8.0937    8.7652    5.8881 Pt  0  0  0  0  0  0  0  0  0  0  0  0
    9.9025    9.2351    4.6116 Cl  0  0  0  0  0  0  0  0  0  0  0  0
    7.5562    7.0598    4.5210 Cl  0  0  0  0  0  0  0  0  0  0  0  0
    6.3870    8.3097    7.2908 P   0  0  0  0  0  4  0  0  0  0  0  0
    6.6107    9.5828    8.4014 N   0  0  0  0  0  0  0  0  0  0  0  0
    8.4735   10.2984    7.1931 N   0  0  0  0  0  0  0  0  0  0  0  0
    7.7937   11.3668    9.1921 N   0  0  0  0  0  0  0  0  0  0  0  0
    4.6111    8.3495    6.9562 C   0  0  0  0  0  0  0  0  0  0  0  0
    3.8232    9.4725    7.1815 C   0  0  0  0  0  0  0  0  0  0  0  0
    4.2580   10.3617    7.6170 H   0  0  0  0  0  0  0  0  0  0  0  0
    2.4825    9.4468    6.8395 C   0  0  0  0  0  0  0  0  0  0  0  0
    1.8661   10.3151    7.0209 H   0  0  0  0  0  0  0  0  0  0  0  0
    1.9333    8.3157    6.2579 C   0  0  0  0  0  0  0  0  0  0  0  0
    0.8877    8.3036    5.9890 H   0  0  0  0  0  0  0  0  0  0  0  0
    2.7253    7.2049    6.0076 C   0  0  0  0  0  0  0  0  0  0  0  0
    2.2990    6.3309    5.5386 H   0  0  0  0  0  0  0  0  0  0  0  0
    4.0631    7.2202    6.3513 C   0  0  0  0  0  0  0  0  0  0  0  0
    4.7011    6.3707    6.1480 H   0  0  0  0  0  0  0  0  0  0  0  0
    6.5940    6.8275    8.3214 C   0  0  0  0  0  0  0  0  0  0  0  0
    7.7832    6.1187    8.1919 C   0  0  0  0  0  0  0  0  0  0  0  0
    8.5130    6.4471    7.4565 H   0  0  0  0  0  0  0  0  0  0  0  0
    8.0090    5.0015    8.9753 C   0  0  0  0  0  0  0  0  0  0  0  0
    8.9277    4.4446    8.8704 H   0  0  0  0  0  0  0  0  0  0  0  0
    7.0498    4.5957    9.8896 C   0  0  0  0  0  0  0  0  0  0  0  0
    7.2226    3.7215   10.4994 H   0  0  0  0  0  0  0  0  0  0  0  0
    5.8645    5.3033   10.0215 C   0  0  0  0  0  0  0  0  0  0  0  0
    5.1191    4.9807   10.7336 H   0  0  0  0  0  0  0  0  0  0  0  0
    5.6312    6.4190    9.2384 C   0  0  0  0  0  0  0  0  0  0  0  0
    4.7031    6.9676    9.3274 H   0  0  0  0  0  0  0  0  0  0  0  0
    7.6605   10.4421    8.2634 C   0  0  1  0  0  3  0  0  0  0  0  0
    9.4774   11.1718    7.0856 C   0  0  0  0  0  0  0  0  0  0  0  0
   10.1250   11.0353    6.2275 H   0  0  0  0  0  0  0  0  0  0  0  0
    9.6776   12.1729    8.0119 C   0  0  0  0  0  0  0  0  0  0  0  0
   10.5088   12.8473    7.9052 H   0  0  0  0  0  0  0  0  0  0  0  0
    8.7897   12.2523    9.0902 C   0  0  0  0  0  0  0  0  0  0  0  0
    8.8883   13.2533   10.1509 C   0  0  0  0  0  0  0  0  0  0  0  0
    9.5821   14.4503    9.9700 C   0  0  0  0  0  0  0  0  0  0  0  0
   10.0427   14.6752    9.0198 H   0  0  0  0  0  0  0  0  0  0  0  0
    9.6589   15.3726   10.9963 C   0  0  0  0  0  0  0  0  0  0  0  0
   10.1945   16.2983   10.8448 H   0  0  0  0  0  0  0  0  0  0  0  0
    9.0505   15.1161   12.2146 C   0  0  0  0  0  0  0  0  0  0  0  0
    9.1175   15.8382   13.0145 H   0  0  0  0  0  0  0  0  0  0  0  0
    8.3527   13.9329   12.4016 C   0  0  0  0  0  0  0  0  0  0  0  0
    7.8748   13.7314   13.3492 H   0  0  0  0  0  0  0  0  0  0  0  0
    8.2680   13.0103   11.3781 C   0  0  0  0  0  0  0  0  0  0  0  0
    7.7305   12.0842   11.5089 H   0  0  0  0  0  0  0  0  0  0  0  0
    6.0663    9.6990    9.2478 H   0  0  0  0  0  0  0  0  0  0  0  0
  1  6  1  0  0  0  0
  1  4  1  0  0  0  0
  2  1  1  0  0  0  0
  3  1  1  0  0  0  0
  4 19  1  0  0  0  0
  4  5  1  0  0  0  0
  5 47  1  0  0  0  0
  6 30  1  0  0  0  0
  8  9  1  0  0  0  0
  8  4  1  0  0  0  0
  9 10  1  0  0  0  0
 11 12  1  0  0  0  0
 11  9  2  0  0  0  0
 13 11  1  0  0  0  0
 14 13  1  0  0  0  0
 15 13  2  0  0  0  0
 15 17  1  0  0  0  0
 16 15  1  0  0  0  0
 17  8  2  0  0  0  0
 18 17  1  0  0  0  0
 19 28  1  0  0  0  0
 20 19  2  0  0  0  0
 20 22  1  0  0  0  0
 21 20  1  0  0  0  0
 22 24  2  0  0  0  0
 23 22  1  0  0  0  0
 24 26  1  0  0  0  0
 24 25  1  0  0  0  0
 26 27  1  0  0  0  0
 28 29  1  0  0  0  0
 28 26  2  0  0  0  0
 30  5  1  0  0  0  0
 30  7  1  6  0  0  0
 31  6  1  0  0  0  0
 31 33  2  0  0  0  0
 32 31  1  0  0  0  0
 33 35  1  0  0  0  0
 34 33  1  0  0  0  0
 35  7  2  0  0  0  0
 35 36  1  0  0  0  0
 36 45  1  0  0  0  0
 37 36  2  0  0  0  0
 37 39  1  0  0  0  0
 38 37  1  0  0  0  0
 39 41  2  0  0  0  0
 40 39  1  0  0  0  0
 41 43  1  0  0  0  0
 41 42  1  0  0  0  0
 43 44  1  0  0  0  0
 45 46  1  0  0  0  0
 45 43  2  0  0  0  0
M  END
$$$$
