CSD_code = YIZKEZ | q = 1 | S = 0 | Stoichiometry = C21H17ClN4PPd(1+) | MND = 4
 OpenBabel04212202123D

 45 50  0  0  0  0  0  0  0  0999 V2000
    6.0844    3.1386   -3.4230 Pd  0  0  2  0  0  0  0  0  0  0  0  0
    4.2720    2.7130   -2.2477 Cl  0  0  0  0  0  0  0  0  0  0  0  0
    5.8549    1.4931   -4.9110 P   0  0  0  0  0  4  0  0  0  0  0  0
    6.7886    4.7434   -2.2881 N   0  0  0  0  0  0  0  0  0  0  0  0
    7.6775    3.5950   -4.4402 N   0  0  0  0  0  0  0  0  0  0  0  0
    9.1004    3.1906   -6.2655 N   0  0  0  0  0  0  0  0  0  0  0  0
    7.1973    1.9016   -5.9134 N   0  0  0  0  0  0  0  0  0  0  0  0
    7.4913    1.3476   -6.7108 H   0  0  0  0  0  0  0  0  0  0  0  0
    6.3637   -0.0598   -4.1204 C   0  0  0  0  0  0  0  0  0  0  0  0
    6.8873    0.0291   -2.8302 C   0  0  0  0  0  0  0  0  0  0  0  0
    6.9325    1.0077   -2.3275 H   0  0  0  0  0  0  0  0  0  0  0  0
    7.3176   -1.1153   -2.1844 C   0  0  0  0  0  0  0  0  0  0  0  0
    7.7156   -1.0555   -1.1832 H   0  0  0  0  0  0  0  0  0  0  0  0
    7.2268   -2.3437   -2.8228 C   0  0  0  0  0  0  0  0  0  0  0  0
    7.5571   -3.2365   -2.3151 H   0  0  0  0  0  0  0  0  0  0  0  0
    6.7067   -2.4322   -4.1048 C   0  0  0  0  0  0  0  0  0  0  0  0
    6.6346   -3.3915   -4.5935 H   0  0  0  0  0  0  0  0  0  0  0  0
    6.2726   -1.2928   -4.7590 C   0  0  0  0  0  0  0  0  0  0  0  0
    5.8546   -1.3561   -5.7539 H   0  0  0  0  0  0  0  0  0  0  0  0
    4.5377    1.0928   -6.0699 C   0  0  0  0  0  0  0  0  0  0  0  0
    4.5492    1.4976   -7.4014 C   0  0  0  0  0  0  0  0  0  0  0  0
    5.3834    2.0606   -7.7956 H   0  0  0  0  0  0  0  0  0  0  0  0
    3.4780    1.1752   -8.2162 C   0  0  0  0  0  0  0  0  0  0  0  0
    3.4842    1.4769   -9.2523 H   0  0  0  0  0  0  0  0  0  0  0  0
    2.3968    0.4751   -7.7038 C   0  0  0  0  0  0  0  0  0  0  0  0
    1.5638    0.2317   -8.3448 H   0  0  0  0  0  0  0  0  0  0  0  0
    2.3748    0.0960   -6.3692 C   0  0  0  0  0  0  0  0  0  0  0  0
    1.5252   -0.4367   -5.9713 H   0  0  0  0  0  0  0  0  0  0  0  0
    3.4411    0.4068   -5.5475 C   0  0  0  0  0  0  0  0  0  0  0  0
    3.4378    0.1302   -4.5012 H   0  0  0  0  0  0  0  0  0  0  0  0
    8.0258    2.9127   -5.5446 C   0  0  0  0  0  0  0  0  0  0  0  0
    9.8522    4.2054   -5.8702 C   0  0  0  0  0  0  0  0  0  0  0  0
   10.7195    4.4041   -6.4828 H   0  0  0  0  0  0  0  0  0  0  0  0
    9.5626    4.9758   -4.7498 C   0  0  0  0  0  0  0  0  0  0  0  0
   10.1964    5.7964   -4.4651 H   0  0  0  0  0  0  0  0  0  0  0  0
    8.4235    4.6310   -4.0245 C   0  0  0  0  0  0  0  0  0  0  0  0
    7.9154    5.2855   -2.8090 C   0  0  0  0  0  0  0  0  0  0  0  0
    8.5197    6.3866   -2.2095 C   0  0  0  0  0  0  0  0  0  0  0  0
    9.4145    6.8138   -2.6315 H   0  0  0  0  0  0  0  0  0  0  0  0
    7.9552    6.9297   -1.0654 C   0  0  0  0  0  0  0  0  0  0  0  0
    8.4095    7.7849   -0.5898 H   0  0  0  0  0  0  0  0  0  0  0  0
    6.8031    6.3593   -0.5463 C   0  0  0  0  0  0  0  0  0  0  0  0
    6.3353    6.7537    0.3408 H   0  0  0  0  0  0  0  0  0  0  0  0
    6.2497    5.2623   -1.1924 C   0  0  0  0  0  0  0  0  0  0  0  0
    5.3470    4.7811   -0.8298 H   0  0  0  0  0  0  0  0  0  0  0  0
  1  4  1  0  0  0  0
  1  2  1  6  0  0  0
  3  9  1  0  0  0  0
  3  1  1  0  0  0  0
  4 44  1  0  0  0  0
  5 36  1  0  0  0  0
  5  1  1  0  0  0  0
  6 32  1  0  0  0  0
  6 31  2  0  0  0  0
  7 31  1  0  0  0  0
  7  3  1  0  0  0  0
  8  7  1  0  0  0  0
  9 10  1  0  0  0  0
 10 11  1  0  0  0  0
 10 12  2  0  0  0  0
 12 13  1  0  0  0  0
 14 15  1  0  0  0  0
 14 12  1  0  0  0  0
 16 14  2  0  0  0  0
 17 16  1  0  0  0  0
 18  9  2  0  0  0  0
 18 16  1  0  0  0  0
 19 18  1  0  0  0  0
 20 29  1  0  0  0  0
 20  3  1  0  0  0  0
 21 20  2  0  0  0  0
 22 21  1  0  0  0  0
 23 25  2  0  0  0  0
 23 21  1  0  0  0  0
 24 23  1  0  0  0  0
 25 27  1  0  0  0  0
 26 25  1  0  0  0  0
 27 28  1  0  0  0  0
 27 29  2  0  0  0  0
 29 30  1  0  0  0  0
 31  5  1  0  0  0  0
 32 34  2  0  0  0  0
 33 32  1  0  0  0  0
 34 35  1  0  0  0  0
 34 36  1  0  0  0  0
 36 37  2  0  0  0  0
 37  4  1  0  0  0  0
 37 38  1  0  0  0  0
 38 40  2  0  0  0  0
 39 38  1  0  0  0  0
 40 41  1  0  0  0  0
 40 42  1  0  0  0  0
 42 43  1  0  0  0  0
 44 45  1  0  0  0  0
 44 42  2  0  0  0  0
M  END
$$$$
