CSD_code = YIZLUP | q = 0 | S = 0 | Stoichiometry = C18H17ClN2OPd | MND = 4
 OpenBabel04212202123D

 40 42  0  0  1  0  0  0  0  0999 V2000
    6.9840   -1.3220    5.2524 Pd  0  0  2  0  0  0  0  0  0  0  0  0
    6.8686   -2.9581    6.8612 Cl  0  0  0  0  0  0  0  0  0  0  0  0
    4.1618   -2.2771    5.5457 O   0  0  0  0  0  1  0  0  0  0  0  0
    6.8515   -0.0536    3.6588 N   0  0  0  0  0  0  0  0  0  0  0  0
    8.8902   -0.8112    5.4706 N   0  0  0  0  0  0  0  0  0  0  0  0
    7.5514    1.4967    1.8986 C   0  0  0  0  0  0  0  0  0  0  0  0
    6.8664    0.9709    1.2371 H   0  0  0  0  0  0  0  0  0  0  0  0
    8.4833    1.6822    1.3718 H   0  0  0  0  0  0  0  0  0  0  0  0
    7.1081    2.4590    2.1506 H   0  0  0  0  0  0  0  0  0  0  0  0
    7.8109    0.6996    3.1526 C   0  0  2  0  0  3  0  0  0  0  0  0
    9.0841    0.7958    3.7057 C   0  0  0  0  0  0  0  0  0  0  0  0
    9.7668    1.4761    3.2210 H   0  0  0  0  0  0  0  0  0  0  0  0
    9.5759    0.1065    4.8154 C   0  0  0  0  0  0  0  0  0  0  0  0
   10.9723    0.4384    5.2760 C   0  0  0  0  0  0  0  0  0  0  0  0
   10.9754    0.6548    6.3436 H   0  0  0  0  0  0  0  0  0  0  0  0
   11.3633    1.2971    4.7387 H   0  0  0  0  0  0  0  0  0  0  0  0
   11.6360   -0.4089    5.1104 H   0  0  0  0  0  0  0  0  0  0  0  0
    5.5883   -0.1438    3.0355 C   0  0  0  0  0  0  0  0  0  0  0  0
    5.1958   -1.3746    2.4999 C   0  0  0  0  0  0  0  0  0  0  0  0
    5.8917   -2.2114    2.5497 H   0  0  0  0  0  0  0  0  0  0  0  0
    3.9500   -1.5156    1.9196 C   0  0  0  0  0  0  0  0  0  0  0  0
    3.6539   -2.4696    1.5098 H   0  0  0  0  0  0  0  0  0  0  0  0
    3.0805   -0.4371    1.8668 C   0  0  0  0  0  0  0  0  0  0  0  0
    2.1055   -0.5504    1.4182 H   0  0  0  0  0  0  0  0  0  0  0  0
    3.4625    0.7823    2.3997 C   0  0  0  0  0  0  0  0  0  0  0  0
    2.7826    1.6209    2.3704 H   0  0  0  0  0  0  0  0  0  0  0  0
    4.7105    0.9361    2.9767 C   0  0  0  0  0  0  0  0  0  0  0  0
    4.9992    1.8817    3.4120 H   0  0  0  0  0  0  0  0  0  0  0  0
    9.4663   -1.3926    6.6297 C   0  0  0  0  0  0  0  0  0  0  0  0
   10.3797   -2.4378    6.5438 C   0  0  0  0  0  0  0  0  0  0  0  0
   10.6538   -2.8264    5.5721 H   0  0  0  0  0  0  0  0  0  0  0  0
   10.8970   -2.9949    7.6995 C   0  0  0  0  0  0  0  0  0  0  0  0
   11.5959   -3.8154    7.6297 H   0  0  0  0  0  0  0  0  0  0  0  0
   10.5173   -2.5114    8.9397 C   0  0  0  0  0  0  0  0  0  0  0  0
   10.9225   -2.9519    9.8382 H   0  0  0  0  0  0  0  0  0  0  0  0
    9.6026   -1.4742    9.0285 C   0  0  0  0  0  0  0  0  0  0  0  0
    9.2917   -1.1074    9.9954 H   0  0  0  0  0  0  0  0  0  0  0  0
    9.0777   -0.9132    7.8807 C   0  0  0  0  0  0  0  0  0  0  0  0
    8.3408   -0.1146    7.9290 H   0  0  0  0  0  0  0  0  0  0  0  0
    5.2153   -1.8887    5.3483 C   0  0  0  0  0  2  0  0  0  0  0  0
  1 40  1  0  0  0  0
  1  5  1  0  0  0  0
  1  2  1  6  0  0  0
  4  1  1  0  0  0  0
  5 29  1  0  0  0  0
  6  9  1  0  0  0  0
  7  6  1  0  0  0  0
  8  6  1  0  0  0  0
 10  6  1  6  0  0  0
 10  4  1  0  0  0  0
 10 11  1  0  0  0  0
 11 13  2  0  0  0  0
 12 11  1  0  0  0  0
 13 14  1  0  0  0  0
 13  5  1  0  0  0  0
 14 15  1  0  0  0  0
 16 14  1  0  0  0  0
 17 14  1  0  0  0  0
 18  4  1  0  0  0  0
 19 20  1  0  0  0  0
 19 18  2  0  0  0  0
 21 19  1  0  0  0  0
 22 21  1  0  0  0  0
 23 21  2  0  0  0  0
 23 25  1  0  0  0  0
 24 23  1  0  0  0  0
 25 27  2  0  0  0  0
 26 25  1  0  0  0  0
 27 18  1  0  0  0  0
 27 28  1  0  0  0  0
 29 38  1  0  0  0  0
 30 29  2  0  0  0  0
 30 32  1  0  0  0  0
 31 30  1  0  0  0  0
 32 34  2  0  0  0  0
 33 32  1  0  0  0  0
 34 36  1  0  0  0  0
 34 35  1  0  0  0  0
 36 37  1  0  0  0  0
 38 39  1  0  0  0  0
 38 36  2  0  0  0  0
 40  3  1  0  0  0  0
M  END
$$$$
