CSD_code = YIZQII | q = 0 | S = 0 | Stoichiometry = C22H28I2N2O6Zn | MND = 4
 OpenBabel04212202123D

 61 63  0  0  0  0  0  0  0  0999 V2000
    9.2632    3.2882   -0.0478 I   0  0  0  0  0  0  0  0  0  0  0  0
   12.4065    4.3512    3.1710 I   0  0  0  0  0  0  0  0  0  0  0  0
   10.6810    2.9009    2.0164 Zn  0  0  0  0  0  0  0  0  0  0  0  0
    7.9717    7.0189    2.6653 O   0  0  0  0  0  0  0  0  0  0  0  0
    5.4793    6.9330    2.3251 O   0  0  0  0  0  0  0  0  0  0  0  0
    3.9846    4.5164    2.7161 O   0  0  0  0  0  0  0  0  0  0  0  0
   17.4168    1.3120    0.9202 O   0  0  0  0  0  0  0  0  0  0  0  0
   16.6768    3.4962   -0.7889 O   0  0  0  0  0  0  0  0  0  0  0  0
   14.2690    4.0738   -1.2317 O   0  0  0  0  0  0  0  0  0  0  0  0
    9.4007    2.0398    3.4753 N   0  0  0  0  0  0  0  0  0  0  0  0
   11.4994    0.9373    1.9391 N   0  0  0  0  0  0  0  0  0  0  0  0
    9.3781    7.1295    2.6585 C   0  0  0  0  0  0  0  0  0  0  0  0
    9.5885    8.1682    2.4122 H   0  0  0  0  0  0  0  0  0  0  0  0
    9.8240    6.4848    1.8956 H   0  0  0  0  0  0  0  0  0  0  0  0
    9.8140    6.8979    3.6348 H   0  0  0  0  0  0  0  0  0  0  0  0
    4.1605    7.0422    1.8365 C   0  0  0  0  0  0  0  0  0  0  0  0
    4.0652    8.0804    1.5194 H   0  0  0  0  0  0  0  0  0  0  0  0
    3.4212    6.8262    2.6101 H   0  0  0  0  0  0  0  0  0  0  0  0
    3.9941    6.3838    0.9816 H   0  0  0  0  0  0  0  0  0  0  0  0
    3.3041    3.2874    2.7858 C   0  0  0  0  0  0  0  0  0  0  0  0
    2.2652    3.5202    2.5571 H   0  0  0  0  0  0  0  0  0  0  0  0
    3.3607    2.8494    3.7878 H   0  0  0  0  0  0  0  0  0  0  0  0
    3.6848    2.5736    2.0489 H   0  0  0  0  0  0  0  0  0  0  0  0
    6.0696    3.4011    3.2318 C   0  0  0  0  0  0  0  0  0  0  0  0
    5.5674    2.4587    3.3793 H   0  0  0  0  0  0  0  0  0  0  0  0
    5.3462    4.5261    2.8703 C   0  0  0  0  0  0  0  0  0  0  0  0
    6.0187    5.7456    2.6642 C   0  0  0  0  0  0  0  0  0  0  0  0
    7.4233    5.7984    2.8555 C   0  0  0  0  0  0  0  0  0  0  0  0
    8.1252    4.6618    3.2020 C   0  0  0  0  0  0  0  0  0  0  0  0
    9.1848    4.7118    3.3888 H   0  0  0  0  0  0  0  0  0  0  0  0
    7.4571    3.4464    3.3774 C   0  0  0  0  0  0  0  0  0  0  0  0
    8.1571    2.2332    3.6928 C   0  0  0  0  0  3  0  0  0  0  0  0
    7.5561    1.4292    4.1330 H   0  0  0  0  0  0  0  0  0  0  0  0
    9.9958    0.7889    3.8502 C   0  0  0  0  0  0  0  0  0  0  0  0
    9.2769    0.1253    4.3506 H   0  0  0  0  0  0  0  0  0  0  0  0
   10.8210    1.0030    4.5388 H   0  0  0  0  0  0  0  0  0  0  0  0
   10.5615    0.0835    2.6112 C   0  0  0  0  0  0  0  0  0  0  0  0
   11.0164   -0.8711    2.9107 H   0  0  0  0  0  0  0  0  0  0  0  0
    9.7369   -0.1191    1.9180 H   0  0  0  0  0  0  0  0  0  0  0  0
   12.7008    0.5355    1.7728 C   0  0  0  0  0  3  0  0  0  0  0  0
   13.0010   -0.4375    2.1787 H   0  0  0  0  0  0  0  0  0  0  0  0
   13.7265    1.2755    1.0944 C   0  0  0  0  0  0  0  0  0  0  0  0
   13.4317    2.3298    0.2252 C   0  0  0  0  0  0  0  0  0  0  0  0
   12.4033    2.5502   -0.0055 H   0  0  0  0  0  0  0  0  0  0  0  0
   14.4482    3.0405   -0.3794 C   0  0  0  0  0  0  0  0  0  0  0  0
   15.8049    2.7117   -0.1263 C   0  0  0  0  0  0  0  0  0  0  0  0
   16.0976    1.6296    0.7256 C   0  0  0  0  0  0  0  0  0  0  0  0
   15.0603    0.9263    1.3159 C   0  0  0  0  0  0  0  0  0  0  0  0
   15.2729    0.1053    1.9813 H   0  0  0  0  0  0  0  0  0  0  0  0
   17.7412    0.2984    1.8396 C   0  0  0  0  0  0  0  0  0  0  0  0
   18.8296    0.2697    1.8638 H   0  0  0  0  0  0  0  0  0  0  0  0
   17.3639   -0.6773    1.5162 H   0  0  0  0  0  0  0  0  0  0  0  0
   17.3641    0.5263    2.8413 H   0  0  0  0  0  0  0  0  0  0  0  0
   18.0600    3.4802   -0.5139 C   0  0  0  0  0  0  0  0  0  0  0  0
   18.4724    4.2939   -1.1100 H   0  0  0  0  0  0  0  0  0  0  0  0
   18.5225    2.5373   -0.8119 H   0  0  0  0  0  0  0  0  0  0  0  0
   18.2615    3.6648    0.5430 H   0  0  0  0  0  0  0  0  0  0  0  0
   12.9638    4.5798   -1.4083 C   0  0  0  0  0  0  0  0  0  0  0  0
   13.0713    5.4439   -2.0607 H   0  0  0  0  0  0  0  0  0  0  0  0
   12.5311    4.9030   -0.4570 H   0  0  0  0  0  0  0  0  0  0  0  0
   12.3014    3.8515   -1.8855 H   0  0  0  0  0  0  0  0  0  0  0  0
  1  3  1  0  0  0  0
  3  2  1  0  0  0  0
  3 10  1  0  0  0  0
  4 28  1  0  0  0  0
  5 27  1  0  0  0  0
  6 20  1  0  0  0  0
  6 26  1  0  0  0  0
  7 50  1  0  0  0  0
  8 54  1  0  0  0  0
  8 46  1  0  0  0  0
  9 45  1  0  0  0  0
 10 32  1  0  0  0  0
 10 34  1  0  0  0  0
 11  3  1  0  0  0  0
 11 37  1  0  0  0  0
 12  4  1  0  0  0  0
 12 15  1  0  0  0  0
 13 12  1  0  0  0  0
 14 12  1  0  0  0  0
 16  5  1  0  0  0  0
 16 18  1  0  0  0  0
 17 16  1  0  0  0  0
 19 16  1  0  0  0  0
 20 22  1  0  0  0  0
 21 20  1  0  0  0  0
 23 20  1  0  0  0  0
 24 31  1  0  0  0  0
 24 25  1  0  0  0  0
 26 24  2  0  0  0  0
 27 28  2  0  0  0  0
 27 26  1  0  0  0  0
 28 29  1  0  0  0  0
 29 31  2  0  0  0  0
 29 30  1  0  0  0  0
 31 32  1  0  0  0  0
 32 33  1  0  0  0  0
 34 35  1  0  0  0  0
 34 36  1  0  0  0  0
 37 38  1  0  0  0  0
 37 34  1  0  0  0  0
 39 37  1  0  0  0  0
 40 11  1  0  0  0  0
 40 41  1  0  0  0  0
 42 48  1  0  0  0  0
 42 40  1  0  0  0  0
 43 42  2  0  0  0  0
 44 43  1  0  0  0  0
 45 46  2  0  0  0  0
 45 43  1  0  0  0  0
 46 47  1  0  0  0  0
 47  7  1  0  0  0  0
 47 48  2  0  0  0  0
 48 49  1  0  0  0  0
 50 51  1  0  0  0  0
 50 53  1  0  0  0  0
 52 50  1  0  0  0  0
 54 57  1  0  0  0  0
 55 54  1  0  0  0  0
 56 54  1  0  0  0  0
 58  9  1  0  0  0  0
 58 60  1  0  0  0  0
 59 58  1  0  0  0  0
 61 58  1  0  0  0  0
M  END
$$$$
