CSD_code = YOBRAJ | q = 0 | S = 0 | Stoichiometry = C9H18AgClN6S3 | MND = 4
 OpenBabel04212202123D

 38 40  0  0  0  0  0  0  0  0999 V2000
    7.3688    4.2550   10.9943 Ag  0  0  0  0  0  0  0  0  0  0  0  0
    7.3690    4.2550    8.2376 Cl  0  0  0  0  0  0  0  0  0  0  0  0
    4.7545    4.0000   11.4258 S   0  0  0  0  0  0  0  0  0  0  0  0
    4.5302    2.6589   10.4669 C   0  0  0  0  0  3  0  0  0  0  0  0
    5.2577    2.2849    9.4164 N   0  0  0  0  0  0  0  0  0  0  0  0
    5.9572    2.8878    8.9788 H   0  0  0  0  0  0  0  0  0  0  0  0
    4.7143    1.1110    8.7692 C   0  0  0  0  0  0  0  0  0  0  0  0
    5.4936    0.3590    8.6263 H   0  0  0  0  0  0  0  0  0  0  0  0
    4.2966    1.3726    7.7905 H   0  0  0  0  0  0  0  0  0  0  0  0
    3.6218    0.6522    9.7553 C   0  0  0  0  0  0  0  0  0  0  0  0
    2.6687    0.4519    9.2596 H   0  0  0  0  0  0  0  0  0  0  0  0
    3.9270   -0.2446   10.3071 H   0  0  0  0  0  0  0  0  0  0  0  0
    3.5072    1.7945   10.6386 N   0  0  0  0  0  0  0  0  0  0  0  0
    2.9824    1.7687   11.4952 H   0  0  0  0  0  0  0  0  0  0  0  0
    8.8964    2.1183   11.4264 S   0  0  0  0  0  0  0  0  0  0  0  0
    8.4549    6.6464   11.4268 S   0  0  0  0  0  0  0  0  0  0  0  0
   10.1700    2.5935   10.4670 C   0  0  0  0  0  3  0  0  0  0  0  0
    7.4063    7.5116   10.4674 C   0  0  0  0  0  3  0  0  0  0  0  0
   10.1303    3.4096    9.4157 N   0  0  0  0  0  0  0  0  0  0  0  0
    6.7198    7.0690    9.4160 N   0  0  0  0  0  0  0  0  0  0  0  0
    9.2584    3.7142    8.9783 H   0  0  0  0  0  0  0  0  0  0  0  0
    6.8922    6.1617    8.9785 H   0  0  0  0  0  0  0  0  0  0  0  0
   11.4185    3.5250    8.7683 C   0  0  0  0  0  0  0  0  0  0  0  0
    5.9753    8.1268    8.7687 C   0  0  0  0  0  0  0  0  0  0  0  0
   11.6803    4.5757    8.6244 H   0  0  0  0  0  0  0  0  0  0  0  0
    4.9347    7.8278    8.6247 H   0  0  0  0  0  0  0  0  0  0  0  0
   11.4005    3.0316    7.7900 H   0  0  0  0  0  0  0  0  0  0  0  0
    6.4116    8.3582    7.7905 H   0  0  0  0  0  0  0  0  0  0  0  0
   12.3620    2.8090    9.7548 C   0  0  0  0  0  0  0  0  0  0  0  0
    6.1232    9.3018    9.7554 C   0  0  0  0  0  0  0  0  0  0  0  0
   13.0118    2.0831    9.2597 H   0  0  0  0  0  0  0  0  0  0  0  0
    6.4266   10.2276    9.2605 H   0  0  0  0  0  0  0  0  0  0  0  0
   12.9863    3.5220   10.3060 H   0  0  0  0  0  0  0  0  0  0  0  0
    5.1934    9.4855   10.3065 H   0  0  0  0  0  0  0  0  0  0  0  0
   11.4300    2.1395   10.6389 N   0  0  0  0  0  0  0  0  0  0  0  0
    7.1690    8.8297   10.6395 N   0  0  0  0  0  0  0  0  0  0  0  0
   11.7148    1.6986   11.4958 H   0  0  0  0  0  0  0  0  0  0  0  0
    7.4081    9.2966   11.4965 H   0  0  0  0  0  0  0  0  0  0  0  0
  1  3  1  0  0  0  0
  1 15  1  0  0  0  0
  1 16  1  0  0  0  0
  2  1  1  0  0  0  0
  4 13  1  0  0  0  0
  4  3  1  0  0  0  0
  5  4  1  0  0  0  0
  6  5  1  0  0  0  0
  7  5  1  0  0  0  0
  7 10  1  0  0  0  0
  8  7  1  0  0  0  0
  9  7  1  0  0  0  0
 10 12  1  0  0  0  0
 10 13  1  0  0  0  0
 11 10  1  0  0  0  0
 13 14  1  0  0  0  0
 17 35  1  0  0  0  0
 17 15  1  0  0  0  0
 18 36  1  0  0  0  0
 18 16  1  0  0  0  0
 19 17  1  0  0  0  0
 20 18  1  0  0  0  0
 21 19  1  0  0  0  0
 22 20  1  0  0  0  0
 23 19  1  0  0  0  0
 23 29  1  0  0  0  0
 24 20  1  0  0  0  0
 24 30  1  0  0  0  0
 25 23  1  0  0  0  0
 26 24  1  0  0  0  0
 27 23  1  0  0  0  0
 28 24  1  0  0  0  0
 29 33  1  0  0  0  0
 29 35  1  0  0  0  0
 30 34  1  0  0  0  0
 30 36  1  0  0  0  0
 31 29  1  0  0  0  0
 32 30  1  0  0  0  0
 35 37  1  0  0  0  0
 36 38  1  0  0  0  0
M  END
$$$$
