CSD_code = YOCDEA | q = 0 | S = 0 | Stoichiometry = C23H18ClN4O3Re | MND = 6
 OpenBabel04212202123D

 50 54  0  0  1  0  0  0  0  0999 V2000
    7.5393   15.1688    8.3979 C   0  0  0  0  0  3  0  0  0  0  0  0
    6.5002   15.4130    8.2198 H   0  0  0  0  0  0  0  0  0  0  0  0
    8.4195   16.1397    8.8384 C   0  0  0  0  0  0  0  0  0  0  0  0
    8.0733   17.1458    9.0097 H   0  0  0  0  0  0  0  0  0  0  0  0
    9.7412   15.7823    9.0640 C   0  0  0  0  0  0  0  0  0  0  0  0
   10.4569   16.5067    9.4227 H   0  0  0  0  0  0  0  0  0  0  0  0
   10.1243   14.4781    8.8302 C   0  0  0  0  0  0  0  0  0  0  0  0
   11.1367   14.1651    9.0182 H   0  0  0  0  0  0  0  0  0  0  0  0
    9.1796   13.5541    8.3776 C   0  0  0  0  0  0  0  0  0  0  0  0
    9.4661   12.1585    8.1456 C   0  0  0  0  0  0  0  0  0  0  0  0
    8.8678   10.0876    7.8110 C   0  0  1  0  0  3  0  0  0  0  0  0
   10.6372   11.3984    8.1746 C   0  0  0  0  0  0  0  0  0  0  0  0
   12.0158   11.6406    8.3228 C   0  0  0  0  0  0  0  0  0  0  0  0
   12.3714   12.6500    8.4418 H   0  0  0  0  0  0  0  0  0  0  0  0
   12.8900   10.5946    8.3005 C   0  0  0  0  0  0  0  0  0  0  0  0
   13.9488   10.7656    8.4100 H   0  0  0  0  0  0  0  0  0  0  0  0
   12.4160    9.2692    8.1399 C   0  0  0  0  0  0  0  0  0  0  0  0
   13.1099    8.4453    8.1481 H   0  0  0  0  0  0  0  0  0  0  0  0
   11.0916    9.0371    7.9730 C   0  0  0  0  0  0  0  0  0  0  0  0
   10.6602    8.0563    7.8483 H   0  0  0  0  0  0  0  0  0  0  0  0
    8.0631    8.8858    7.6534 C   0  0  0  0  0  0  0  0  0  0  0  0
    8.2950    7.9696    6.6299 C   0  0  0  0  0  0  0  0  0  0  0  0
    9.0752    8.1578    5.9046 H   0  0  0  0  0  0  0  0  0  0  0  0
    7.5059    6.8499    6.4944 C   0  0  0  0  0  0  0  0  0  0  0  0
    7.7000    6.1866    5.6679 H   0  0  0  0  0  0  0  0  0  0  0  0
    6.4523    6.5894    7.3871 C   0  0  0  0  0  0  0  0  0  0  0  0
    6.2528    7.5041    8.4350 C   0  0  0  0  0  0  0  0  0  0  0  0
    5.4753    7.3412    9.1612 H   0  0  0  0  0  0  0  0  0  0  0  0
    7.0327    8.6288    8.5583 C   0  0  0  0  0  0  0  0  0  0  0  0
    6.8557    9.3183    9.3708 H   0  0  0  0  0  0  0  0  0  0  0  0
    4.4209    5.4030    7.9976 C   0  0  0  0  0  0  0  0  0  0  0  0
    4.6076    5.2144    9.0590 H   0  0  0  0  0  0  0  0  0  0  0  0
    3.8197    4.5846    7.6093 H   0  0  0  0  0  0  0  0  0  0  0  0
    3.8445    6.3273    7.9016 H   0  0  0  0  0  0  0  0  0  0  0  0
    5.8726    4.5504    6.1820 C   0  0  0  0  0  0  0  0  0  0  0  0
    5.6459    4.9906    5.2037 H   0  0  0  0  0  0  0  0  0  0  0  0
    5.2318    3.6832    6.3256 H   0  0  0  0  0  0  0  0  0  0  0  0
    6.9075    4.2024    6.1786 H   0  0  0  0  0  0  0  0  0  0  0  0
    6.6394   12.5196    5.8452 C   0  0  0  0  0  2  0  0  0  0  0  0
    4.8815   13.3651    7.9296 C   0  0  0  0  0  2  0  0  0  0  0  0
    5.3144   10.7363    7.5141 C   0  0  0  0  0  2  0  0  0  0  0  0
    6.5885   12.0708   10.1236 Cl  0  0  0  0  0  0  0  0  0  0  0  0
    7.8964   13.9103    8.1732 N   0  0  0  0  0  0  0  0  0  0  0  0
    8.4143   11.3226    7.8987 N   0  0  0  0  0  0  0  0  0  0  0  0
   10.2221   10.0840    7.9644 N   0  0  0  0  0  0  0  0  0  0  0  0
    5.6612    5.4830    7.2608 N   0  0  0  0  0  0  0  0  0  0  0  0
    6.7638   12.6694    4.7100 O   0  0  0  0  0  1  0  0  0  0  0  0
    3.9652   14.0291    8.1163 O   0  0  0  0  0  1  0  0  0  0  0  0
    4.5718    9.8739    7.3574 O   0  0  0  0  0  1  0  0  0  0  0  0
    6.4813   12.2743    7.7630 Re  0  0  0  0  0  0  0  0  0  0  0  0
  1  3  1  0  0  0  0
  2  1  1  0  0  0  0
  3  4  1  0  0  0  0
  3  5  2  0  0  0  0
  5  6  1  0  0  0  0
  7  8  1  0  0  0  0
  7  5  1  0  0  0  0
  9  7  2  0  0  0  0
 10 12  2  0  0  0  0
 10  9  1  0  0  0  0
 11 21  1  1  0  0  0
 11 44  1  0  0  0  0
 11 45  1  0  0  0  0
 12 13  1  0  0  0  0
 13 14  1  0  0  0  0
 15 13  2  0  0  0  0
 15 16  1  0  0  0  0
 17 18  1  0  0  0  0
 17 15  1  0  0  0  0
 19 17  2  0  0  0  0
 20 19  1  0  0  0  0
 21 29  1  0  0  0  0
 22 21  2  0  0  0  0
 23 22  1  0  0  0  0
 24 22  1  0  0  0  0
 24 26  2  0  0  0  0
 25 24  1  0  0  0  0
 26 27  1  0  0  0  0
 27 29  2  0  0  0  0
 27 28  1  0  0  0  0
 29 30  1  0  0  0  0
 31 32  1  0  0  0  0
 33 31  1  0  0  0  0
 34 31  1  0  0  0  0
 35 37  1  0  0  0  0
 35 46  1  0  0  0  0
 36 35  1  0  0  0  0
 38 35  1  0  0  0  0
 39 50  1  0  0  0  0
 40 48  1  0  0  0  0
 41 50  1  0  0  0  0
 43  9  1  0  0  0  0
 43  1  1  0  0  0  0
 44 10  1  0  0  0  0
 45 19  1  0  0  0  0
 45 12  1  0  0  0  0
 46 26  1  0  0  0  0
 46 31  1  0  0  0  0
 47 39  1  0  0  0  0
 49 41  1  0  0  0  0
 50 44  1  0  0  0  0
 50 40  1  0  0  0  0
 50 43  1  0  0  0  0
 50 42  1  0  0  0  0
M  END
$$$$
