CSD_code = YOCHIK | q = 0 | S = 0 | Stoichiometry = C24H23Br2Cl2N3Pd | MND = 4
 OpenBabel04212202123D

 55 58  0  0  0  0  0  0  0  0999 V2000
    3.5415    2.9541    1.2580 Pd  0  0  0  0  0  0  0  0  0  0  0  0
    1.7270   -3.1602    3.7571 Br  0  0  0  0  0  0  0  0  0  0  0  0
    4.0471    9.5716   -0.5159 Br  0  0  0  0  0  0  0  0  0  0  0  0
    2.3912    1.2736    0.1967 Cl  0  0  0  0  0  0  0  0  0  0  0  0
    4.8128    4.5919    2.2440 Cl  0  0  0  0  0  0  0  0  0  0  0  0
    5.1784    2.3310    0.3231 N   0  0  0  0  0  0  0  0  0  0  0  0
    1.9317    3.5639    2.1768 C   0  0  0  0  0  0  0  0  0  0  0  0
    1.1079    2.8207    2.9372 N   0  0  0  0  0  0  0  0  0  0  0  0
    0.0819    3.5974    3.4144 C   0  0  0  0  0  0  0  0  0  0  0  0
   -0.6790    3.2102    4.0605 H   0  0  0  0  0  0  0  0  0  0  0  0
    0.2823    4.8485    2.9407 C   0  0  0  0  0  0  0  0  0  0  0  0
   -0.2974    5.7406    3.0610 H   0  0  0  0  0  0  0  0  0  0  0  0
    1.4232    4.8092    2.1787 N   0  0  0  0  0  0  0  0  0  0  0  0
    1.2539    1.4209    3.1393 C   0  0  0  0  0  0  0  0  0  0  0  0
    2.3652    0.9389    3.8376 C   0  0  0  0  0  0  0  0  0  0  0  0
    2.4930   -0.4331    4.0127 C   0  0  0  0  0  0  0  0  0  0  0  0
    3.3436   -0.8316    4.5444 H   0  0  0  0  0  0  0  0  0  0  0  0
    1.5360   -1.2847    3.4972 C   0  0  0  0  0  0  0  0  0  0  0  0
    0.4477   -0.8067    2.7925 C   0  0  0  0  0  0  0  0  0  0  0  0
   -0.2706   -1.4936    2.3729 H   0  0  0  0  0  0  0  0  0  0  0  0
    0.2979    0.5573    2.5951 C   0  0  0  0  0  0  0  0  0  0  0  0
    3.4179    1.8580    4.3795 C   0  0  0  0  0  0  0  0  0  0  0  0
    4.0890    2.1900    3.5647 H   0  0  0  0  0  0  0  0  0  0  0  0
    4.0205    1.3489    5.1275 H   0  0  0  0  0  0  0  0  0  0  0  0
    2.9760    2.7476    4.8280 H   0  0  0  0  0  0  0  0  0  0  0  0
   -0.8100    1.0724    1.7322 C   0  0  0  0  0  0  0  0  0  0  0  0
   -1.4186    1.8175    2.2399 H   0  0  0  0  0  0  0  0  0  0  0  0
   -1.4515    0.2570    1.4114 H   0  0  0  0  0  0  0  0  0  0  0  0
   -0.3674    1.5317    0.8477 H   0  0  0  0  0  0  0  0  0  0  0  0
    2.0338    5.9239    1.5415 C   0  0  0  0  0  0  0  0  0  0  0  0
    2.1375    5.9480    0.1474 C   0  0  0  0  0  0  0  0  0  0  0  0
    2.7430    7.0448   -0.4524 C   0  0  0  0  0  0  0  0  0  0  0  0
    2.8381    7.0871   -1.5268 H   0  0  0  0  0  0  0  0  0  0  0  0
    3.2305    8.0742    0.3282 C   0  0  0  0  0  0  0  0  0  0  0  0
    3.1442    8.0386    1.7069 C   0  0  0  0  0  0  0  0  0  0  0  0
    3.5604    8.8402    2.2970 H   0  0  0  0  0  0  0  0  0  0  0  0
    2.5508    6.9539    2.3338 C   0  0  0  0  0  0  0  0  0  0  0  0
    1.6322    4.8215   -0.7021 C   0  0  0  0  0  0  0  0  0  0  0  0
    2.3438    3.9746   -0.6719 H   0  0  0  0  0  0  0  0  0  0  0  0
    1.5291    5.1397   -1.7365 H   0  0  0  0  0  0  0  0  0  0  0  0
    0.6683    4.4572   -0.3471 H   0  0  0  0  0  0  0  0  0  0  0  0
    2.5564    6.8547    3.8263 C   0  0  0  0  0  0  0  0  0  0  0  0
    3.0110    7.7388    4.2632 H   0  0  0  0  0  0  0  0  0  0  0  0
    3.1505    5.9854    4.1097 H   0  0  0  0  0  0  0  0  0  0  0  0
    1.5556    6.7376    4.2365 H   0  0  0  0  0  0  0  0  0  0  0  0
    5.6669    3.0162   -0.7066 C   0  0  0  0  0  3  0  0  0  0  0  0
    5.1360    3.9269   -0.9793 H   0  0  0  0  0  0  0  0  0  0  0  0
    6.7980    2.6098   -1.3930 C   0  0  0  0  0  0  0  0  0  0  0  0
    7.1632    3.1913   -2.2245 H   0  0  0  0  0  0  0  0  0  0  0  0
    7.4445    1.4516   -0.9899 C   0  0  0  0  0  0  0  0  0  0  0  0
    8.3297    1.1078   -1.5031 H   0  0  0  0  0  0  0  0  0  0  0  0
    6.9306    0.7438    0.0857 C   0  0  0  0  0  0  0  0  0  0  0  0
    7.4011   -0.1624    0.4327 H   0  0  0  0  0  0  0  0  0  0  0  0
    5.7923    1.2181    0.7142 C   0  0  0  0  0  0  0  0  0  0  0  0
    5.3458    0.6864    1.5530 H   0  0  0  0  0  0  0  0  0  0  0  0
  1  7  2  0  0  0  0
  1  5  1  0  0  0  0
  3 34  1  0  0  0  0
  4  1  1  0  0  0  0
  6 54  1  0  0  0  0
  6  1  1  0  0  0  0
  7 13  1  0  0  0  0
  7  8  1  0  0  0  0
  8 14  1  0  0  0  0
  8  9  1  0  0  0  0
  9 10  1  0  0  0  0
 11 12  1  0  0  0  0
 11  9  2  0  0  0  0
 13 11  1  0  0  0  0
 14 15  1  0  0  0  0
 15 16  2  0  0  0  0
 15 22  1  0  0  0  0
 16 17  1  0  0  0  0
 18  2  1  0  0  0  0
 18 16  1  0  0  0  0
 19 18  2  0  0  0  0
 20 19  1  0  0  0  0
 21 19  1  0  0  0  0
 21 14  2  0  0  0  0
 22 25  1  0  0  0  0
 22 24  1  0  0  0  0
 23 22  1  0  0  0  0
 26 27  1  0  0  0  0
 26 21  1  0  0  0  0
 28 26  1  0  0  0  0
 29 26  1  0  0  0  0
 30 13  1  0  0  0  0
 30 37  1  0  0  0  0
 31 30  2  0  0  0  0
 32 31  1  0  0  0  0
 32 34  2  0  0  0  0
 33 32  1  0  0  0  0
 34 35  1  0  0  0  0
 35 36  1  0  0  0  0
 35 37  2  0  0  0  0
 37 42  1  0  0  0  0
 38 39  1  0  0  0  0
 38 41  1  0  0  0  0
 38 31  1  0  0  0  0
 40 38  1  0  0  0  0
 42 44  1  0  0  0  0
 42 45  1  0  0  0  0
 42 43  1  0  0  0  0
 46  6  1  0  0  0  0
 47 46  1  0  0  0  0
 48 50  2  0  0  0  0
 48 46  1  0  0  0  0
 49 48  1  0  0  0  0
 50 52  1  0  0  0  0
 51 50  1  0  0  0  0
 52 53  1  0  0  0  0
 52 54  2  0  0  0  0
 54 55  1  0  0  0  0
M  END
$$$$
