CSD_code = YOCRUD | q = 1 | S = 0 | Stoichiometry = C10H19ClIrO2(1+) | MND = 8
 OpenBabel04212202123D

 33 30  0  0  1  0  0  0  0  0999 V2000
    8.4958    2.1750    3.8926 Ir  0  0  0  0  0  0  0  0  0  0  0  0
   10.5269    2.1746    4.9512 Cl  0  0  0  0  0 15  0  0  0  0  0  0
    9.6756    0.7138    2.4674 O   0  0  0  0  0  0  0  0  0  0  0  0
    6.3212    2.1750    3.2713 C   0  0  0  0  0  0  0  0  0  0  0  0
    6.6149    1.0210    4.0582 C   0  0  0  0  0  0  0  0  0  0  0  0
    7.0813    1.4551    5.3618 C   0  0  2  0  0  3  0  0  0  0  0  0
    5.7170    2.1749    1.9121 C   0  0  0  0  0  0  0  0  0  0  0  0
    6.3572   -0.3868    3.6614 C   0  0  0  0  0  0  0  0  0  0  0  0
    7.3033    0.5955    6.5547 C   0  0  0  0  0  0  0  0  0  0  0  0
    4.6297    2.1749    1.9960 H   0  0  0  0  0  0  0  0  0  0  0  0
    6.0117    1.2935    1.3500 H   0  0  0  0  0  0  0  0  0  0  0  0
    5.3248   -0.6374    3.9119 H   0  0  0  0  0  0  0  0  0  0  0  0
    6.4805   -0.5276    2.5905 H   0  0  0  0  0  0  0  0  0  0  0  0
    7.0040   -1.0792    4.1942 H   0  0  0  0  0  0  0  0  0  0  0  0
    6.3913    0.5746    7.1529 H   0  0  0  0  0  0  0  0  0  0  0  0
    7.5508   -0.4245    6.2763 H   0  0  0  0  0  0  0  0  0  0  0  0
    8.1018    0.9914    7.1766 H   0  0  0  0  0  0  0  0  0  0  0  0
    9.4322   -0.2163    2.5021 H   0  0  0  0  0  0  0  0  0  0  0  0
   10.6095    0.7730    2.7111 H   0  0  0  0  0  0  0  0  0  0  0  0
    9.6759    3.6363    2.4678 O   0  0  0  0  0  0  0  0  0  0  0  0
    6.6150    3.3290    4.0581 C   0  0  2  0  0  3  0  0  0  0  0  0
    7.0813    2.8950    5.3617 C   0  0  2  0  0  0  0  0  0  0  0  0
    6.0117    3.0564    1.3499 H   0  0  0  0  0  0  0  0  0  0  0  0
    9.4320    4.5663    2.5021 H   0  0  0  0  0  0  0  0  0  0  0  0
   10.6097    3.5774    2.7120 H   0  0  0  0  0  0  0  0  0  0  0  0
    6.3572    4.7368    3.6613 C   0  0  0  0  0  0  0  0  0  0  0  0
    7.3034    3.7546    6.5546 C   0  0  0  0  0  0  0  0  0  0  0  0
    5.3248    4.9873    3.9115 H   0  0  0  0  0  0  0  0  0  0  0  0
    6.4807    4.8775    2.5904 H   0  0  0  0  0  0  0  0  0  0  0  0
    7.0039    5.4292    4.1941 H   0  0  0  0  0  0  0  0  0  0  0  0
    6.3914    3.7756    7.1528 H   0  0  0  0  0  0  0  0  0  0  0  0
    7.5509    4.7746    6.2762 H   0  0  0  0  0  0  0  0  0  0  0  0
    8.1019    3.3587    7.1765 H   0  0  0  0  0  0  0  0  0  0  0  0
  3 18  1  0  0  0  0
  3 19  1  0  0  0  0
  4 21  1  0  0  0  0
  4  5  2  0  0  0  0
  5  6  1  0  0  0  0
  6  9  1  1  0  0  0
  7 10  1  0  0  0  0
  7  4  1  0  0  0  0
  8 12  1  0  0  0  0
  8  5  1  0  0  0  0
  8 14  1  0  0  0  0
  9 15  1  0  0  0  0
  9 17  1  0  0  0  0
 11  7  1  0  0  0  0
 13  8  1  0  0  0  0
 16  9  1  0  0  0  0
 20 24  1  0  0  0  0
 20 25  1  0  0  0  0
 21 26  1  1  0  0  0
 21 22  1  0  0  0  0
 22  1  1  6  0  0  0
 22  6  1  0  0  0  0
 22 27  1  0  0  0  0
 23  7  1  0  0  0  0
 26 28  1  0  0  0  0
 26 30  1  0  0  0  0
 27 31  1  0  0  0  0
 27 33  1  0  0  0  0
 29 26  1  0  0  0  0
 32 27  1  0  0  0  0
M  END
$$$$
