CSD_code = YOCYOF | q = 0 | S = 0 | Stoichiometry = C11H13Br2N3Zn | MND = 4
 OpenBabel04212202123D

 30 33  0  0  1  0  0  0  0  0999 V2000
    1.5753   11.2570    6.3745 Br  0  0  0  0  0  0  0  0  0  0  0  0
    1.2117    9.1327    7.3618 Zn  0  0  0  0  0  0  0  0  0  0  0  0
    1.4920    7.7494    9.2243 Br  0  0  0  0  0  0  0  0  0  0  0  0
    0.8663    6.9363    3.6513 C   0  0  0  0  0  0  0  0  0  0  0  0
    0.8952    7.9363    5.6763 N   0  0  0  0  0  0  0  0  0  0  0  0
   -1.0544    9.2131    7.1190 N   0  0  2  0  0  4  0  0  0  0  0  0
   -1.4151   10.1310    7.3793 H   0  0  0  0  0  0  0  0  0  0  0  0
   -0.3215    7.6008    3.8658 N   0  0  0  0  0  0  0  0  0  0  0  0
   -1.0847    7.6812    3.2144 H   0  0  0  0  0  0  0  0  0  0  0  0
    2.6165    5.6531    2.7385 C   0  0  0  0  0  0  0  0  0  0  0  0
    3.0328    5.0592    1.9394 H   0  0  0  0  0  0  0  0  0  0  0  0
   -0.2468    8.1794    5.0866 C   0  0  2  0  0  3  0  0  0  0  0  0
    1.6295    7.1558    4.8149 C   0  0  0  0  0  0  0  0  0  0  0  0
    1.3488    6.1813    2.5951 C   0  0  0  0  0  0  0  0  0  0  0  0
    0.7626    6.0161    1.7046 H   0  0  0  0  0  0  0  0  0  0  0  0
   -2.7211    8.3202    5.5892 C   0  0  0  0  0  0  0  0  0  0  0  0
   -3.4177    8.9063    4.9929 H   0  0  0  0  0  0  0  0  0  0  0  0
   -2.6219    7.3342    5.1342 H   0  0  0  0  0  0  0  0  0  0  0  0
    2.9022    6.6159    4.9460 C   0  0  0  0  0  0  0  0  0  0  0  0
    3.4849    6.7801    5.8388 H   0  0  0  0  0  0  0  0  0  0  0  0
    3.3769    5.8657    3.8908 C   0  0  0  0  0  0  0  0  0  0  0  0
    4.3619    5.4298    3.9529 H   0  0  0  0  0  0  0  0  0  0  0  0
   -1.8606    8.2030    7.8133 C   0  0  0  0  0  0  0  0  0  0  0  0
   -1.9676    8.4525    8.8678 H   0  0  0  0  0  0  0  0  0  0  0  0
   -1.3540    7.2379    7.7345 H   0  0  0  0  0  0  0  0  0  0  0  0
   -1.3330    9.0116    5.6880 C   0  0  1  0  0  0  0  0  0  0  0  0
   -1.3257    9.9813    5.1756 H   0  0  0  0  0  0  0  0  0  0  0  0
   -3.1806    8.1818    7.0448 C   0  0  0  0  0  0  0  0  0  0  0  0
   -3.7481    7.2710    7.2173 H   0  0  0  0  0  0  0  0  0  0  0  0
   -3.7965    9.0344    7.3358 H   0  0  0  0  0  0  0  0  0  0  0  0
  1  2  1  0  0  0  0
  2  3  1  0  0  0  0
  4  8  1  0  0  0  0
  4 13  1  0  0  0  0
  5  2  1  0  0  0  0
  6  2  1  0  0  0  0
  6  7  1  1  0  0  0
  6 23  1  0  0  0  0
  9  8  1  0  0  0  0
 10 21  2  0  0  0  0
 11 10  1  0  0  0  0
 12  8  1  6  0  0  0
 12  5  1  0  0  0  0
 12 26  1  0  0  0  0
 13 19  2  0  0  0  0
 13  5  1  0  0  0  0
 14 10  1  0  0  0  0
 14  4  2  0  0  0  0
 15 14  1  0  0  0  0
 16 26  1  0  0  0  0
 16 28  1  0  0  0  0
 17 16  1  0  0  0  0
 18 16  1  0  0  0  0
 19 20  1  0  0  0  0
 21 22  1  0  0  0  0
 21 19  1  0  0  0  0
 23 24  1  0  0  0  0
 25 23  1  0  0  0  0
 26 27  1  6  0  0  0
 26  6  1  0  0  0  0
 28 29  1  0  0  0  0
 28 30  1  0  0  0  0
 28 23  1  0  0  0  0
M  END
$$$$
