CSD_code = YOCZAS | q = 0 | S = 0 | Stoichiometry = C12H9BrI2N2Zn | MND = 4
 OpenBabel04212202123D

 27 29  0  0  0  0  0  0  0  0999 V2000
    2.6812    7.3688    5.7903 I   0  0  0  0  0  0  0  0  0  0  0  0
    6.9012    8.0705    7.8359 I   0  0  0  0  0  0  0  0  0  0  0  0
    7.0105    7.1683   -0.4467 Br  0  0  0  0  0  0  0  0  0  0  0  0
    4.9626    6.9192    6.7144 Zn  0  0  0  0  0  0  0  0  0  0  0  0
    4.9247    5.0240    7.7673 N   0  0  0  0  0  0  0  0  0  0  0  0
    5.8368    5.5508    5.2610 N   0  0  0  0  0  0  0  0  0  0  0  0
    5.5754    4.0681    7.0918 C   0  0  0  0  0  0  0  0  0  0  0  0
    5.8247    2.8152    7.6523 C   0  0  0  0  0  0  0  0  0  0  0  0
    6.3567    2.0677    7.0845 H   0  0  0  0  0  0  0  0  0  0  0  0
    5.3834    2.5573    8.9382 C   0  0  0  0  0  0  0  0  0  0  0  0
    5.5629    1.5963    9.3959 H   0  0  0  0  0  0  0  0  0  0  0  0
    4.7054    3.5535    9.6237 C   0  0  0  0  0  0  0  0  0  0  0  0
    4.3409    3.3956   10.6255 H   0  0  0  0  0  0  0  0  0  0  0  0
    4.5038    4.7736    8.9938 C   0  0  0  0  0  0  0  0  0  0  0  0
    3.9849    5.5797    9.4952 H   0  0  0  0  0  0  0  0  0  0  0  0
    6.0026    4.3808    5.7437 C   0  0  0  0  0  0  0  0  0  0  0  0
    6.4744    3.5753    5.1798 H   0  0  0  0  0  0  0  0  0  0  0  0
    6.1346    5.8718    3.9477 C   0  0  0  0  0  0  0  0  0  0  0  0
    6.0275    4.9475    2.9024 C   0  0  0  0  0  0  0  0  0  0  0  0
    5.6965    3.9390    3.1003 H   0  0  0  0  0  0  0  0  0  0  0  0
    6.2802    5.3347    1.6040 C   0  0  0  0  0  0  0  0  0  0  0  0
    6.1827    4.6269    0.7954 H   0  0  0  0  0  0  0  0  0  0  0  0
    6.6520    6.6458    1.3404 C   0  0  0  0  0  0  0  0  0  0  0  0
    6.7515    7.5799    2.3617 C   0  0  0  0  0  0  0  0  0  0  0  0
    7.0274    8.5993    2.1428 H   0  0  0  0  0  0  0  0  0  0  0  0
    6.4817    7.1940    3.6570 C   0  0  0  0  0  0  0  0  0  0  0  0
    6.5622    7.9167    4.4563 H   0  0  0  0  0  0  0  0  0  0  0  0
  1  4  1  0  0  0  0
  3 23  1  0  0  0  0
  4  5  1  0  0  0  0
  4  2  1  0  0  0  0
  5 14  1  0  0  0  0
  6 16  1  0  0  0  0
  6  4  1  0  0  0  0
  7  8  1  0  0  0  0
  7  5  1  0  0  0  0
  8 10  2  0  0  0  0
  9  8  1  0  0  0  0
 10 11  1  0  0  0  0
 10 12  1  0  0  0  0
 12 13  1  0  0  0  0
 14 15  1  0  0  0  0
 14 12  2  0  0  0  0
 16  7  2  0  0  0  0
 17 16  1  0  0  0  0
 18  6  1  0  0  0  0
 19 20  1  0  0  0  0
 19 18  2  0  0  0  0
 21 19  1  0  0  0  0
 22 21  1  0  0  0  0
 23 21  2  0  0  0  0
 23 24  1  0  0  0  0
 24 26  2  0  0  0  0
 25 24  1  0  0  0  0
 26 18  1  0  0  0  0
 26 27  1  0  0  0  0
M  END
$$$$
