CSD_code = YODMAH | q = 0 | S = 0 | Stoichiometry = C22H29ClIrN | MND = 8
 OpenBabel04212202123D

 54 56  0  0  1  0  0  0  0  0999 V2000
    1.3425   12.1306    3.3551 Ir  0  0  1  0  0  0  0  0  0  0  0  0
    0.9918   10.1717    2.1257 Cl  0  0  0  0  0 15  0  0  0  0  0  0
    2.2852   12.8605    1.7013 N   0  0  0  0  0  0  0  0  0  0  0  0
    1.5262   13.4465    0.8214 C   0  0  0  0  0  0  0  0  0  0  0  0
    1.9155   13.7799   -0.1341 H   0  0  0  0  0  0  0  0  0  0  0  0
    0.1667   13.5883    1.1689 C   0  0  0  0  0  0  0  0  0  0  0  0
   -0.5400   14.0722    0.5109 H   0  0  0  0  0  0  0  0  0  0  0  0
   -0.1734   12.9927    2.3502 C   0  0  1  0  0  3  0  0  0  0  0  0
   -1.5412   12.9809    2.8455 C   0  0  0  0  0  0  0  0  0  0  0  0
   -2.2553   14.1734    2.9832 C   0  0  0  0  0  0  0  0  0  0  0  0
   -1.7813   15.1051    2.7103 H   0  0  0  0  0  0  0  0  0  0  0  0
   -3.5457   14.1650    3.4775 C   0  0  0  0  0  0  0  0  0  0  0  0
   -4.0848   15.0951    3.5876 H   0  0  0  0  0  0  0  0  0  0  0  0
   -4.1510   12.9694    3.8294 C   0  0  0  0  0  0  0  0  0  0  0  0
   -5.1604   12.9658    4.2141 H   0  0  0  0  0  0  0  0  0  0  0  0
   -3.4572   11.7784    3.6812 C   0  0  0  0  0  0  0  0  0  0  0  0
   -3.9302   10.8431    3.9443 H   0  0  0  0  0  0  0  0  0  0  0  0
   -2.1619   11.7816    3.2020 C   0  0  0  0  0  0  0  0  0  0  0  0
   -1.6192   10.8580    3.0723 H   0  0  0  0  0  0  0  0  0  0  0  0
    0.8585   11.3184    5.3684 C   0  0  2  0  0  0  0  0  0  0  0  0
    0.7775   12.7342    5.4390 C   0  0  2  0  0  3  0  0  0  0  0  0
    2.0781   13.2508    5.1181 C   0  0  1  0  0  0  0  0  0  0  0  0
    2.9963   12.1332    5.0510 C   0  0  0  0  0  0  0  0  0  0  0  0
    2.2541   10.9587    5.1810 C   0  0  0  0  0  0  0  0  0  0  0  0
   -0.1968   10.3391    5.7767 C   0  0  0  0  0  0  0  0  0  0  0  0
   -0.0361   10.0295    6.8116 H   0  0  0  0  0  0  0  0  0  0  0  0
   -0.1594    9.4520    5.1475 H   0  0  0  0  0  0  0  0  0  0  0  0
   -1.1884   10.7782    5.6981 H   0  0  0  0  0  0  0  0  0  0  0  0
   -0.3883   13.5446    5.9094 C   0  0  0  0  0  0  0  0  0  0  0  0
   -0.2889   13.7321    6.9804 H   0  0  0  0  0  0  0  0  0  0  0  0
   -1.3267   13.0237    5.7384 H   0  0  0  0  0  0  0  0  0  0  0  0
   -0.4362   14.5041    5.3996 H   0  0  0  0  0  0  0  0  0  0  0  0
    2.4889   14.6840    5.2505 C   0  0  0  0  0  0  0  0  0  0  0  0
    1.6815   15.3493    4.9529 H   0  0  0  0  0  0  0  0  0  0  0  0
    3.3589   14.9044    4.6354 H   0  0  0  0  0  0  0  0  0  0  0  0
    2.7460   14.9028    6.2892 H   0  0  0  0  0  0  0  0  0  0  0  0
    4.4852   12.2552    4.9782 C   0  0  0  0  0  0  0  0  0  0  0  0
    4.8957   12.3689    5.9840 H   0  0  0  0  0  0  0  0  0  0  0  0
    4.7836   13.1262    4.3977 H   0  0  0  0  0  0  0  0  0  0  0  0
    4.9348   11.3709    4.5301 H   0  0  0  0  0  0  0  0  0  0  0  0
    2.7534    9.5523    5.2211 C   0  0  0  0  0  0  0  0  0  0  0  0
    3.8308    9.5104    5.0812 H   0  0  0  0  0  0  0  0  0  0  0  0
    2.2803    8.9602    4.4372 H   0  0  0  0  0  0  0  0  0  0  0  0
    2.5088    9.0968    6.1816 H   0  0  0  0  0  0  0  0  0  0  0  0
    3.6787   12.5752    1.3918 C   0  0  0  0  0  0  0  0  0  0  0  0
    4.0899   12.0539    2.2609 H   0  0  0  0  0  0  0  0  0  0  0  0
    4.4707   13.8685    1.1837 C   0  0  0  0  0  0  0  0  0  0  0  0
    4.1494   14.3806    0.2805 H   0  0  0  0  0  0  0  0  0  0  0  0
    5.5299   13.6420    1.0930 H   0  0  0  0  0  0  0  0  0  0  0  0
    4.3259   14.5397    2.0275 H   0  0  0  0  0  0  0  0  0  0  0  0
    3.7935   11.6383    0.1875 C   0  0  0  0  0  0  0  0  0  0  0  0
    3.1589   10.7696    0.3454 H   0  0  0  0  0  0  0  0  0  0  0  0
    4.8226   11.3087    0.0705 H   0  0  0  0  0  0  0  0  0  0  0  0
    3.4809   12.1348   -0.7275 H   0  0  0  0  0  0  0  0  0  0  0  0
  1  3  1  6  0  0  0
  1 22  1  0  0  0  0
  1 20  1  0  0  0  0
  4  6  2  0  0  0  0
  4  3  1  0  0  0  0
  5  4  1  0  0  0  0
  6  8  1  0  0  0  0
  7  6  1  0  0  0  0
  8  9  1  6  0  0  0
  8  1  1  0  0  0  0
  9 10  2  0  0  0  0
  9 18  1  0  0  0  0
 10 12  1  0  0  0  0
 11 10  1  0  0  0  0
 12 13  1  0  0  0  0
 12 14  2  0  0  0  0
 14 15  1  0  0  0  0
 16 14  1  0  0  0  0
 16 17  1  0  0  0  0
 18 16  2  0  0  0  0
 19 18  1  0  0  0  0
 20 21  1  0  0  0  0
 20 25  1  1  0  0  0
 21 29  1  1  0  0  0
 22 33  1  1  0  0  0
 22 21  1  0  0  0  0
 23 22  1  0  0  0  0
 23 24  2  0  0  0  0
 24 41  1  0  0  0  0
 24 20  1  0  0  0  0
 25 26  1  0  0  0  0
 27 25  1  0  0  0  0
 28 25  1  0  0  0  0
 29 30  1  0  0  0  0
 31 29  1  0  0  0  0
 32 29  1  0  0  0  0
 33 36  1  0  0  0  0
 34 33  1  0  0  0  0
 35 33  1  0  0  0  0
 37 23  1  0  0  0  0
 37 38  1  0  0  0  0
 39 37  1  0  0  0  0
 40 37  1  0  0  0  0
 41 44  1  0  0  0  0
 42 41  1  0  0  0  0
 43 41  1  0  0  0  0
 45  3  1  0  0  0  0
 45 46  1  0  0  0  0
 47 45  1  0  0  0  0
 47 50  1  0  0  0  0
 48 47  1  0  0  0  0
 49 47  1  0  0  0  0
 51 52  1  0  0  0  0
 51 45  1  0  0  0  0
 53 51  1  0  0  0  0
 54 51  1  0  0  0  0
M  END
$$$$
