CSD_code = YODMUB | q = 0 | S = 0 | Stoichiometry = C22H29ClNRh | MND = 8
 OpenBabel04212202123D

 54 56  0  0  1  0  0  0  0  0999 V2000
    6.4994    6.0911    3.6802 Rh  0  0  1  0  0  0  0  0  0  0  0  0
    6.7185    4.3629    5.1841 Cl  0  0  0  0  0 15  0  0  0  0  0  0
    5.4599    7.0512    5.1175 N   0  0  0  0  0  0  0  0  0  0  0  0
    6.1699    7.7426    5.9522 C   0  0  0  0  0  0  0  0  0  0  0  0
    5.7292    8.2093    6.8278 H   0  0  0  0  0  0  0  0  0  0  0  0
    7.5540    7.8133    5.6863 C   0  0  0  0  0  0  0  0  0  0  0  0
    8.2262    8.3736    6.3211 H   0  0  0  0  0  0  0  0  0  0  0  0
    7.9630    7.0448    4.6408 C   0  0  1  0  0  3  0  0  0  0  0  0
    9.3606    6.9048    4.2631 C   0  0  0  0  0  0  0  0  0  0  0  0
   10.1393    8.0358    4.0046 C   0  0  0  0  0  0  0  0  0  0  0  0
    9.6916    9.0157    4.0913 H   0  0  0  0  0  0  0  0  0  0  0  0
   11.4621    7.9038    3.6277 C   0  0  0  0  0  0  0  0  0  0  0  0
   12.0521    8.7857    3.4220 H   0  0  0  0  0  0  0  0  0  0  0  0
   12.0346    6.6471    3.5162 C   0  0  0  0  0  0  0  0  0  0  0  0
   13.0694    6.5476    3.2226 H   0  0  0  0  0  0  0  0  0  0  0  0
   11.2757    5.5192    3.7881 C   0  0  0  0  0  0  0  0  0  0  0  0
   11.7228    4.5381    3.7134 H   0  0  0  0  0  0  0  0  0  0  0  0
    9.9488    5.6422    4.1513 C   0  0  0  0  0  0  0  0  0  0  0  0
    9.3553    4.7685    4.3779 H   0  0  0  0  0  0  0  0  0  0  0  0
    4.0478    6.8069    5.3732 C   0  0  0  0  0  0  0  0  0  0  0  0
    3.6940    6.1468    4.5718 H   0  0  0  0  0  0  0  0  0  0  0  0
    7.1134    5.0009    1.8793 C   0  0  2  0  0  0  0  0  0  0  0  0
    7.2532    6.3894    1.6091 C   0  0  2  0  0  3  0  0  0  0  0  0
    5.9568    6.9848    1.7549 C   0  0  1  0  0  0  0  0  0  0  0  0
    4.9885    5.9167    1.9135 C   0  0  0  0  0  0  0  0  0  0  0  0
    5.6928    4.7111    2.0117 C   0  0  0  0  0  0  0  0  0  0  0  0
    8.1529    3.9392    1.6875 C   0  0  0  0  0  0  0  0  0  0  0  0
    8.0299    3.4820    0.7033 H   0  0  0  0  0  0  0  0  0  0  0  0
    8.0490    3.1596    2.4396 H   0  0  0  0  0  0  0  0  0  0  0  0
    9.1553    4.3548    1.7532 H   0  0  0  0  0  0  0  0  0  0  0  0
    8.4774    7.0894    1.1080 C   0  0  0  0  0  0  0  0  0  0  0  0
    8.4367    7.1360    0.0177 H   0  0  0  0  0  0  0  0  0  0  0  0
    9.3833    6.5617    1.3948 H   0  0  0  0  0  0  0  0  0  0  0  0
    8.5405    8.1064    1.4887 H   0  0  0  0  0  0  0  0  0  0  0  0
    5.6155    8.3977    1.3920 C   0  0  0  0  0  0  0  0  0  0  0  0
    6.4239    9.0752    1.6578 H   0  0  0  0  0  0  0  0  0  0  0  0
    4.7099    8.7290    1.8956 H   0  0  0  0  0  0  0  0  0  0  0  0
    5.4498    8.4695    0.3148 H   0  0  0  0  0  0  0  0  0  0  0  0
    3.5041    6.0891    1.8093 C   0  0  0  0  0  0  0  0  0  0  0  0
    3.2151    6.0889    0.7559 H   0  0  0  0  0  0  0  0  0  0  0  0
    3.1800    7.0328    2.2431 H   0  0  0  0  0  0  0  0  0  0  0  0
    2.9725    5.2790    2.3046 H   0  0  0  0  0  0  0  0  0  0  0  0
    5.1406    3.3247    2.1056 C   0  0  0  0  0  0  0  0  0  0  0  0
    4.0575    3.3354    2.1981 H   0  0  0  0  0  0  0  0  0  0  0  0
    5.5564    2.8065    2.9694 H   0  0  0  0  0  0  0  0  0  0  0  0
    5.4095    2.7615    1.2107 H   0  0  0  0  0  0  0  0  0  0  0  0
    3.8443    6.0763    6.7027 C   0  0  0  0  0  0  0  0  0  0  0  0
    4.4826    5.1961    6.7316 H   0  0  0  0  0  0  0  0  0  0  0  0
    2.8074    5.7643    6.7986 H   0  0  0  0  0  0  0  0  0  0  0  0
    4.0938    6.7152    7.5462 H   0  0  0  0  0  0  0  0  0  0  0  0
    3.2529    8.1144    5.3179 C   0  0  0  0  0  0  0  0  0  0  0  0
    3.5192    8.7651    6.1473 H   0  0  0  0  0  0  0  0  0  0  0  0
    2.1881    7.9032    5.3738 H   0  0  0  0  0  0  0  0  0  0  0  0
    3.4581    8.6429    4.3890 H   0  0  0  0  0  0  0  0  0  0  0  0
  1  8  1  0  0  0  0
  1  3  1  1  0  0  0
  3 20  1  0  0  0  0
  3  4  1  0  0  0  0
  4  5  1  0  0  0  0
  6  4  2  0  0  0  0
  6  7  1  0  0  0  0
  8  9  1  1  0  0  0
  8  6  1  0  0  0  0
 10 11  1  0  0  0  0
 10  9  2  0  0  0  0
 12 10  1  0  0  0  0
 13 12  1  0  0  0  0
 14 12  2  0  0  0  0
 14 16  1  0  0  0  0
 15 14  1  0  0  0  0
 16 18  2  0  0  0  0
 17 16  1  0  0  0  0
 18  9  1  0  0  0  0
 18 19  1  0  0  0  0
 20 47  1  0  0  0  0
 21 20  1  0  0  0  0
 22 27  1  6  0  0  0
 22 26  1  0  0  0  0
 22  1  1  0  0  0  0
 23 31  1  6  0  0  0
 23 24  1  0  0  0  0
 23 22  1  0  0  0  0
 24 35  1  6  0  0  0
 24 25  1  0  0  0  0
 24  1  1  0  0  0  0
 25 26  2  0  0  0  0
 26 43  1  0  0  0  0
 27 30  1  0  0  0  0
 27 29  1  0  0  0  0
 28 27  1  0  0  0  0
 31 33  1  0  0  0  0
 31 34  1  0  0  0  0
 32 31  1  0  0  0  0
 35 36  1  0  0  0  0
 35 37  1  0  0  0  0
 38 35  1  0  0  0  0
 39 25  1  0  0  0  0
 39 41  1  0  0  0  0
 39 42  1  0  0  0  0
 40 39  1  0  0  0  0
 43 44  1  0  0  0  0
 43 45  1  0  0  0  0
 46 43  1  0  0  0  0
 47 48  1  0  0  0  0
 47 49  1  0  0  0  0
 47 50  1  0  0  0  0
 51 20  1  0  0  0  0
 51 53  1  0  0  0  0
 51 52  1  0  0  0  0
 54 51  1  0  0  0  0
M  END
$$$$
