CSD_code = YODMEL | q = 0 | S = 0 | Stoichiometry = C20H27ClIrN | MND = 8
 OpenBabel04212202123D

 50 52  0  0  1  0  0  0  0  0999 V2000
    1.7786    6.6770   13.7877 Ir  0  0  1  0  0  0  0  0  0  0  0  0
    3.8002    7.3410   14.7645 Cl  0  0  0  0  0 15  0  0  0  0  0  0
    2.1401    4.8405   14.5685 N   0  0  0  0  0  0  0  0  0  0  0  0
    2.8729    4.0282   13.8774 C   0  0  0  0  0  3  0  0  0  0  0  0
    3.1919    3.0659   14.2633 H   0  0  0  0  0  0  0  0  0  0  0  0
    3.2782    4.4890   12.5887 C   0  0  0  0  0  0  0  0  0  0  0  0
    2.8679    5.8164   12.3185 C   0  0  0  0  0  0  0  0  0  0  0  0
    3.2865    6.3858   11.1227 C   0  0  0  0  0  0  0  0  0  0  0  0
    3.0390    7.4109   10.8918 H   0  0  0  0  0  0  0  0  0  0  0  0
    4.0358    5.6565   10.2142 C   0  0  0  0  0  0  0  0  0  0  0  0
    4.3413    6.1164    9.2850 H   0  0  0  0  0  0  0  0  0  0  0  0
    4.4102    4.3448   10.4836 C   0  0  0  0  0  0  0  0  0  0  0  0
    5.0001    3.7950    9.7652 H   0  0  0  0  0  0  0  0  0  0  0  0
    4.0438    3.7599   11.6752 C   0  0  0  0  0  0  0  0  0  0  0  0
    4.3487    2.7513   11.9153 H   0  0  0  0  0  0  0  0  0  0  0  0
    1.7653    4.4967   15.9345 C   0  0  0  0  0  0  0  0  0  0  0  0
    1.1663    5.3297   16.3122 H   0  0  0  0  0  0  0  0  0  0  0  0
    0.5759    8.4817   14.7115 C   0  0  0  0  0  0  0  0  0  0  0  0
   -0.2775    7.3806   14.7650 C   0  0  0  0  0  0  0  0  0  0  0  0
   -0.4083    6.8523   13.4231 C   0  0  1  0  0  0  0  0  0  0  0  0
    0.2671    7.7460   12.5284 C   0  0  2  0  0  3  0  0  0  0  0  0
    0.9758    8.6845   13.3280 C   0  0  2  0  0  0  0  0  0  0  0  0
    0.9862    9.3842   15.8274 C   0  0  0  0  0  0  0  0  0  0  0  0
    0.6568   10.4040   15.6243 H   0  0  0  0  0  0  0  0  0  0  0  0
    2.0721    9.3943   15.9253 H   0  0  0  0  0  0  0  0  0  0  0  0
    0.5577    9.0629   16.7736 H   0  0  0  0  0  0  0  0  0  0  0  0
   -1.0359    6.8859   15.9556 C   0  0  0  0  0  0  0  0  0  0  0  0
   -0.4965    7.0820   16.8809 H   0  0  0  0  0  0  0  0  0  0  0  0
   -1.2280    5.8167   15.8868 H   0  0  0  0  0  0  0  0  0  0  0  0
   -2.0011    7.3937   16.0157 H   0  0  0  0  0  0  0  0  0  0  0  0
   -1.4057    5.8193   13.0004 C   0  0  0  0  0  0  0  0  0  0  0  0
   -1.1053    5.3514   12.0655 H   0  0  0  0  0  0  0  0  0  0  0  0
   -2.3827    6.2842   12.8510 H   0  0  0  0  0  0  0  0  0  0  0  0
   -1.5162    5.0421   13.7541 H   0  0  0  0  0  0  0  0  0  0  0  0
    0.1006    7.7538   11.0406 C   0  0  0  0  0  0  0  0  0  0  0  0
   -0.9143    8.0715   10.7944 H   0  0  0  0  0  0  0  0  0  0  0  0
    0.2598    6.7653   10.6139 H   0  0  0  0  0  0  0  0  0  0  0  0
    0.7948    8.4455   10.5720 H   0  0  0  0  0  0  0  0  0  0  0  0
    1.7079    9.9037   12.8584 C   0  0  0  0  0  0  0  0  0  0  0  0
    2.0398    9.7932   11.8290 H   0  0  0  0  0  0  0  0  0  0  0  0
    2.5821   10.0846   13.4806 H   0  0  0  0  0  0  0  0  0  0  0  0
    1.0574   10.7788   12.9194 H   0  0  0  0  0  0  0  0  0  0  0  0
    3.0079    4.3759   16.8186 C   0  0  0  0  0  0  0  0  0  0  0  0
    3.6016    3.5074   16.5450 H   0  0  0  0  0  0  0  0  0  0  0  0
    2.7138    4.2828   17.8607 H   0  0  0  0  0  0  0  0  0  0  0  0
    3.6203    5.2669   16.7003 H   0  0  0  0  0  0  0  0  0  0  0  0
    0.9100    3.2285   15.9712 C   0  0  0  0  0  0  0  0  0  0  0  0
    0.0700    3.3195   15.2858 H   0  0  0  0  0  0  0  0  0  0  0  0
    0.5270    3.0727   16.9764 H   0  0  0  0  0  0  0  0  0  0  0  0
    1.4913    2.3554   15.6863 H   0  0  0  0  0  0  0  0  0  0  0  0
  1  7  1  6  0  0  0
  1  3  1  0  0  0  0
  3 16  1  0  0  0  0
  4  5  1  0  0  0  0
  4  3  1  0  0  0  0
  6  4  1  0  0  0  0
  7  6  1  0  0  0  0
  8  7  2  0  0  0  0
  9  8  1  0  0  0  0
 10 12  2  0  0  0  0
 10  8  1  0  0  0  0
 11 10  1  0  0  0  0
 12 14  1  0  0  0  0
 13 12  1  0  0  0  0
 14 15  1  0  0  0  0
 14  6  2  0  0  0  0
 16 47  1  0  0  0  0
 16 17  1  0  0  0  0
 16 43  1  0  0  0  0
 18 19  2  0  0  0  0
 18 23  1  0  0  0  0
 19 27  1  0  0  0  0
 20 31  1  6  0  0  0
 20  1  1  0  0  0  0
 20 19  1  0  0  0  0
 21 35  1  6  0  0  0
 21 22  1  0  0  0  0
 21 20  1  0  0  0  0
 22 39  1  6  0  0  0
 22  1  1  0  0  0  0
 22 18  1  0  0  0  0
 23 25  1  0  0  0  0
 23 26  1  0  0  0  0
 24 23  1  0  0  0  0
 27 30  1  0  0  0  0
 27 28  1  0  0  0  0
 29 27  1  0  0  0  0
 31 34  1  0  0  0  0
 32 31  1  0  0  0  0
 33 31  1  0  0  0  0
 36 35  1  0  0  0  0
 37 35  1  0  0  0  0
 38 35  1  0  0  0  0
 39 42  1  0  0  0  0
 39 41  1  0  0  0  0
 40 39  1  0  0  0  0
 43 45  1  0  0  0  0
 44 43  1  0  0  0  0
 46 43  1  0  0  0  0
 47 49  1  0  0  0  0
 48 47  1  0  0  0  0
 50 47  1  0  0  0  0
M  END
$$$$
