CSD_code = YOFCAY | q = 0 | S = 0 | Stoichiometry = C18H19Cl2CoN4O2 | MND = 4
 OpenBabel04212202123D

 46 49  0  0  1  0  0  0  0  0999 V2000
    8.4060    2.0740    7.7917 Co  0  0  0  0  0  0  0  0  0  0  0  0
    7.1769    1.9423    9.3307 N   0  0  0  0  0  0  0  0  0  0  0  0
    7.3121    2.8648   10.3022 N   0  0  1  0  0  0  0  0  0  0  0  0
    9.7222    1.9636    9.2518 N   0  0  0  0  0  0  0  0  0  0  0  0
    9.6278    2.8682   10.2436 N   0  0  2  0  0  0  0  0  0  0  0  0
    9.4603    7.6032    5.2178 O   0  0  0  0  0  0  0  0  0  0  0  0
    7.3207    8.1153    5.7367 O   0  0  0  0  0  1  0  0  0  0  0  0
    6.1896    3.6674   12.3817 C   0  0  0  0  0  0  0  0  0  0  0  0
    7.0329    3.5429   13.0613 H   0  0  0  0  0  0  0  0  0  0  0  0
    5.2780    3.4296   12.9215 H   0  0  0  0  0  0  0  0  0  0  0  0
    6.1470    4.7111   12.0715 H   0  0  0  0  0  0  0  0  0  0  0  0
    6.3113    2.7706   11.2058 C   0  0  1  0  0  3  0  0  0  0  0  0
    5.5061    1.7353   10.7823 C   0  0  0  0  0  0  0  0  0  0  0  0
    4.6143    1.3799   11.2553 H   0  0  0  0  0  0  0  0  0  0  0  0
    6.0853    1.2401    9.6044 C   0  0  0  0  0  0  0  0  0  0  0  0
    5.6186    0.1251    8.7505 C   0  0  0  0  0  0  0  0  0  0  0  0
    5.0088    0.5203    7.9387 H   0  0  0  0  0  0  0  0  0  0  0  0
    5.0255   -0.5765    9.3310 H   0  0  0  0  0  0  0  0  0  0  0  0
    6.4693   -0.3836    8.3012 H   0  0  0  0  0  0  0  0  0  0  0  0
   10.8376    3.6347   12.2878 C   0  0  0  0  0  0  0  0  0  0  0  0
   10.0436    3.4646   13.0154 H   0  0  0  0  0  0  0  0  0  0  0  0
   10.8280    4.6870   12.0051 H   0  0  0  0  0  0  0  0  0  0  0  0
   11.7885    3.4131   12.7631 H   0  0  0  0  0  0  0  0  0  0  0  0
   10.6688    2.7627   11.0989 C   0  0  2  0  0  3  0  0  0  0  0  0
   11.4586    1.7395   10.6202 C   0  0  0  0  0  0  0  0  0  0  0  0
   12.3727    1.3806   11.0457 H   0  0  0  0  0  0  0  0  0  0  0  0
   10.8284    1.2629    9.4611 C   0  0  0  0  0  0  0  0  0  0  0  0
   11.2580    0.1682    8.5623 C   0  0  0  0  0  0  0  0  0  0  0  0
   10.3893   -0.2969    8.1003 H   0  0  0  0  0  0  0  0  0  0  0  0
   11.8338   -0.5724    9.1108 H   0  0  0  0  0  0  0  0  0  0  0  0
   11.8757    0.5757    7.7628 H   0  0  0  0  0  0  0  0  0  0  0  0
    6.8327    2.1944    6.5257 Cl  0  0  0  0  0  0  0  0  0  0  0  0
    9.9006    2.3070    6.4499 Cl  0  0  0  0  0  0  0  0  0  0  0  0
    8.4684    3.7277   10.2798 C   0  0  1  0  0  0  0  0  0  0  0  0
    8.4906    4.3082   11.2094 H   0  0  0  0  0  0  0  0  0  0  0  0
    8.4448    4.6582    9.0712 C   0  0  0  0  0  0  0  0  0  0  0  0
    7.2327    5.0676    8.5203 C   0  0  0  0  0  0  0  0  0  0  0  0
    6.2965    4.6945    8.9100 H   0  0  0  0  0  0  0  0  0  0  0  0
    7.2186    5.9689    7.4699 C   0  0  0  0  0  0  0  0  0  0  0  0
    6.2882    6.2987    7.0354 H   0  0  0  0  0  0  0  0  0  0  0  0
    8.4138    6.4597    6.9792 C   0  0  0  0  0  0  0  0  0  0  0  0
    9.6249    6.0613    7.5134 C   0  0  0  0  0  0  0  0  0  0  0  0
   10.5425    6.4490    7.0999 H   0  0  0  0  0  0  0  0  0  0  0  0
    9.6404    5.1670    8.5689 C   0  0  0  0  0  0  0  0  0  0  0  0
   10.5862    4.8639    8.9948 H   0  0  0  0  0  0  0  0  0  0  0  0
    8.3948    7.5434    5.8038 C   0  0  0  0  0  0  0  0  0  0  0  0
  1  4  1  0  0  0  0
  1  2  1  0  0  0  0
  2 15  1  0  0  0  0
  3  2  1  1  0  0  0
  3 12  1  0  0  0  0
  4 27  1  0  0  0  0
  5  4  1  1  0  0  0
  5 34  1  0  0  0  0
  5 24  1  0  0  0  0
  6 46  2  0  0  0  0
  7 46  1  0  0  0  0
  8 10  1  0  0  0  0
  8  9  1  0  0  0  0
 11  8  1  0  0  0  0
 12  8  1  6  0  0  0
 13 12  1  0  0  0  0
 13 14  1  0  0  0  0
 15 13  2  0  0  0  0
 16 18  1  0  0  0  0
 16 15  1  0  0  0  0
 17 16  1  0  0  0  0
 19 16  1  0  0  0  0
 20 23  1  0  0  0  0
 20 21  1  0  0  0  0
 22 20  1  0  0  0  0
 24 20  1  6  0  0  0
 25 26  1  0  0  0  0
 25 24  1  0  0  0  0
 27 25  2  0  0  0  0
 28 30  1  0  0  0  0
 28 27  1  0  0  0  0
 29 28  1  0  0  0  0
 31 28  1  0  0  0  0
 32  1  1  0  0  0  0
 33  1  1  0  0  0  0
 34  3  1  0  0  0  0
 34 35  1  1  0  0  0
 36 34  1  0  0  0  0
 37 38  1  0  0  0  0
 37 36  2  0  0  0  0
 39 37  1  0  0  0  0
 40 39  1  0  0  0  0
 41 39  2  0  0  0  0
 41 42  1  0  0  0  0
 42 44  2  0  0  0  0
 43 42  1  0  0  0  0
 44 45  1  0  0  0  0
 44 36  1  0  0  0  0
 46 41  1  0  0  0  0
M  END
$$$$
