CSD_code = YOGJAF | q = 0 | S = 0 | Stoichiometry = C14H24FN4O2V | MND = 5
 OpenBabel04212202123D

 46 47  0  0  1  0  0  0  0  0999 V2000
    5.3918    0.0895   12.1531 V   0  0  0  0  0  0  0  0  0  0  0  0
    3.6689    0.1837   12.1465 F   0  0  0  0  0  0  0  0  0  0  0  0
    5.1625   -1.7127   13.0580 N   0  0  0  0  0  0  0  0  0  0  0  0
    6.2650   -0.4997   11.0302 O   0  0  0  0  0  1  0  0  0  0  0  0
    6.2531   -2.1534   13.6677 N   0  0  0  0  0  0  0  0  0  0  0  0
    6.3141    0.5808   13.2845 O   0  0  0  0  0  1  0  0  0  0  0  0
    6.5127    2.2373   10.6659 N   0  0  0  0  0  0  0  0  0  0  0  0
    6.5101    3.5092   10.2313 C   0  0  1  0  0  3  0  0  0  0  0  0
    5.3700    1.9082   11.2524 N   0  0  0  0  0  0  0  0  0  0  0  0
    4.8090   -3.7756   13.8059 C   0  0  0  0  0  0  0  0  0  0  0  0
    6.0978   -3.4022   14.1455 C   0  0  1  0  0  3  0  0  0  0  0  0
    4.5957    2.9756   11.2126 C   0  0  0  0  0  0  0  0  0  0  0  0
    7.1965   -4.1173   14.8780 C   0  0  0  0  0  0  0  0  0  0  0  0
    5.2681    4.0204   10.5739 C   0  0  0  0  0  0  0  0  0  0  0  0
    4.2688   -2.6799   13.1243 C   0  0  0  0  0  0  0  0  0  0  0  0
    7.6692    4.1683    9.5391 C   0  0  0  0  0  0  0  0  0  0  0  0
    6.7200   -5.5037   15.3159 C   0  0  0  0  0  0  0  0  0  0  0  0
    7.5884   -3.2951   16.1132 C   0  0  0  0  0  0  0  0  0  0  0  0
    8.7965    3.1627    9.2917 C   0  0  0  0  0  0  0  0  0  0  0  0
    8.1837    5.3045   10.4334 C   0  0  0  0  0  0  0  0  0  0  0  0
    8.4029   -4.2601   13.9403 C   0  0  0  0  0  0  0  0  0  0  0  0
    7.1876    4.7381    8.1989 C   0  0  0  0  0  0  0  0  0  0  0  0
    7.0486   -1.5275   13.7249 H   0  0  0  0  0  0  0  0  0  0  0  0
    7.2323    1.5264   10.5971 H   0  0  0  0  0  0  0  0  0  0  0  0
    4.3192   -4.7038   14.0151 H   0  0  0  0  0  0  0  0  0  0  0  0
    3.6048    2.9599   11.6292 H   0  0  0  0  0  0  0  0  0  0  0  0
    4.8956    5.0074   10.3919 H   0  0  0  0  0  0  0  0  0  0  0  0
    3.2899   -2.5636   12.6956 H   0  0  0  0  0  0  0  0  0  0  0  0
    5.8633   -5.4224   15.9798 H   0  0  0  0  0  0  0  0  0  0  0  0
    6.4391   -6.1023   14.4534 H   0  0  0  0  0  0  0  0  0  0  0  0
    7.5172   -6.0191   15.8460 H   0  0  0  0  0  0  0  0  0  0  0  0
    6.7300   -3.1623   16.7677 H   0  0  0  0  0  0  0  0  0  0  0  0
    8.3688   -3.8092   16.6690 H   0  0  0  0  0  0  0  0  0  0  0  0
    7.9593   -2.3130   15.8305 H   0  0  0  0  0  0  0  0  0  0  0  0
    8.4511    2.3342    8.6771 H   0  0  0  0  0  0  0  0  0  0  0  0
    9.6141    3.6532    8.7685 H   0  0  0  0  0  0  0  0  0  0  0  0
    9.1835    2.7724   10.2304 H   0  0  0  0  0  0  0  0  0  0  0  0
    7.4033    6.0407   10.6055 H   0  0  0  0  0  0  0  0  0  0  0  0
    8.5043    4.9129   11.3959 H   0  0  0  0  0  0  0  0  0  0  0  0
    9.0286    5.7991    9.9606 H   0  0  0  0  0  0  0  0  0  0  0  0
    8.1257   -4.8200   13.0502 H   0  0  0  0  0  0  0  0  0  0  0  0
    8.7754   -3.2870   13.6297 H   0  0  0  0  0  0  0  0  0  0  0  0
    9.2059   -4.7911   14.4460 H   0  0  0  0  0  0  0  0  0  0  0  0
    6.4010    5.4715    8.3522 H   0  0  0  0  0  0  0  0  0  0  0  0
    8.0125    5.2208    7.6805 H   0  0  0  0  0  0  0  0  0  0  0  0
    6.7986    3.9436    7.5667 H   0  0  0  0  0  0  0  0  0  0  0  0
  1  3  1  0  0  0  0
  1  6  1  0  0  0  0
  2  1  1  0  0  0  0
  3 15  1  0  0  0  0
  3  5  1  0  0  0  0
  4  1  1  0  0  0  0
  5 23  1  0  0  0  0
  5 11  1  0  0  0  0
  7  9  1  0  0  0  0
  8 16  1  1  0  0  0
  8 14  1  0  0  0  0
  8  7  1  0  0  0  0
  9  1  1  0  0  0  0
 10 25  1  0  0  0  0
 10 11  1  0  0  0  0
 11 13  1  6  0  0  0
 12  9  1  0  0  0  0
 12 26  1  0  0  0  0
 13 17  1  0  0  0  0
 13 18  1  0  0  0  0
 14 12  2  0  0  0  0
 15 10  2  0  0  0  0
 16 20  1  0  0  0  0
 17 31  1  0  0  0  0
 17 29  1  0  0  0  0
 18 33  1  0  0  0  0
 18 32  1  0  0  0  0
 19 16  1  0  0  0  0
 19 37  1  0  0  0  0
 20 38  1  0  0  0  0
 20 39  1  0  0  0  0
 21 43  1  0  0  0  0
 21 13  1  0  0  0  0
 22 44  1  0  0  0  0
 22 16  1  0  0  0  0
 24  7  1  0  0  0  0
 27 14  1  0  0  0  0
 28 15  1  0  0  0  0
 30 17  1  0  0  0  0
 34 18  1  0  0  0  0
 35 19  1  0  0  0  0
 36 19  1  0  0  0  0
 40 20  1  0  0  0  0
 41 21  1  0  0  0  0
 42 21  1  0  0  0  0
 45 22  1  0  0  0  0
 46 22  1  0  0  0  0
M  END
$$$$
