CSD_code = YOGSOD | q = 0 | S = 0 | Stoichiometry = C21H26Cl2NO3V | MND = 6
 OpenBabel04212202123D

 54 56  0  0  0  0  0  0  0  0999 V2000
    1.0502    5.5811    3.4220 V   0  0  0  0  0  0  0  0  0  0  0  0
    2.1463    5.4709    5.5217 Cl  0  0  0  0  0  0  0  0  0  0  0  0
   -0.0672    5.6224    1.3359 Cl  0  0  0  0  0  0  0  0  0  0  0  0
    2.5998    4.9485    2.6179 N   0  0  0  0  0  0  0  0  0  0  0  0
    1.5759    7.0598    3.2128 O   0  0  0  0  0  0  0  0  0  0  0  0
    0.2172    3.8542    3.8382 O   0  0  0  0  0  0  0  0  0  0  0  0
   -0.9575    6.2629    4.5030 O   0  0  0  0  0  0  0  0  0  0  0  0
    2.5511    7.7943    2.7982 C   0  0  0  0  0  0  0  0  0  0  0  0
    2.5776    9.1932    2.8504 C   0  0  0  0  0  0  0  0  0  0  0  0
    1.7250    9.7192    3.2571 H   0  0  0  0  0  0  0  0  0  0  0  0
    3.6789    9.8810    2.3870 C   0  0  0  0  0  0  0  0  0  0  0  0
    3.6930   10.9593    2.4302 H   0  0  0  0  0  0  0  0  0  0  0  0
    4.7721    9.1918    1.8653 C   0  0  0  0  0  0  0  0  0  0  0  0
    5.6282    9.7430    1.5070 H   0  0  0  0  0  0  0  0  0  0  0  0
    4.7668    7.8170    1.8037 C   0  0  0  0  0  0  0  0  0  0  0  0
    5.6152    7.2850    1.3986 H   0  0  0  0  0  0  0  0  0  0  0  0
    3.6664    7.0789    2.2625 C   0  0  0  0  0  0  0  0  0  0  0  0
    3.6195    5.6574    2.2153 C   0  0  0  0  0  3  0  0  0  0  0  0
    4.4855    5.1380    1.8058 H   0  0  0  0  0  0  0  0  0  0  0  0
    2.7255    3.5509    2.5219 C   0  0  0  0  0  0  0  0  0  0  0  0
    2.0041    2.8501    1.5578 C   0  0  0  0  0  0  0  0  0  0  0  0
    1.3554    3.3945    0.8842 H   0  0  0  0  0  0  0  0  0  0  0  0
    2.1353    1.4754    1.4716 C   0  0  0  0  0  0  0  0  0  0  0  0
    1.5863    0.9326    0.7157 H   0  0  0  0  0  0  0  0  0  0  0  0
    2.9707    0.7943    2.3435 C   0  0  0  0  0  0  0  0  0  0  0  0
    3.0653   -0.2793    2.2739 H   0  0  0  0  0  0  0  0  0  0  0  0
    3.6882    1.4928    3.3013 C   0  0  0  0  0  0  0  0  0  0  0  0
    4.3415    0.9653    3.9805 H   0  0  0  0  0  0  0  0  0  0  0  0
    3.5784    2.8698    3.3880 C   0  0  0  0  0  0  0  0  0  0  0  0
    4.1306    3.4284    4.1316 H   0  0  0  0  0  0  0  0  0  0  0  0
   -1.0296    3.4036    3.3306 C   0  0  0  0  0  0  0  0  0  0  0  0
   -1.1591    3.8138    2.3266 H   0  0  0  0  0  0  0  0  0  0  0  0
   -1.8344    3.7712    3.9869 H   0  0  0  0  0  0  0  0  0  0  0  0
   -0.9562    1.8745    3.3711 C   0  0  0  0  0  0  0  0  0  0  0  0
   -0.5508    1.4926    2.4349 H   0  0  0  0  0  0  0  0  0  0  0  0
   -1.9377    1.4329    3.5293 H   0  0  0  0  0  0  0  0  0  0  0  0
    0.0122    1.6023    4.5324 C   0  0  0  0  0  0  0  0  0  0  0  0
   -0.4722    1.0944    5.3640 H   0  0  0  0  0  0  0  0  0  0  0  0
    0.8556    0.9963    4.2036 H   0  0  0  0  0  0  0  0  0  0  0  0
    0.4818    3.0048    4.9451 C   0  0  0  0  0  0  0  0  0  0  0  0
   -0.0856    3.3705    5.8139 H   0  0  0  0  0  0  0  0  0  0  0  0
    1.5460    3.0539    5.1782 H   0  0  0  0  0  0  0  0  0  0  0  0
   -0.7862    6.9673    5.7233 C   0  0  0  0  0  0  0  0  0  0  0  0
    0.0644    6.5380    6.2541 H   0  0  0  0  0  0  0  0  0  0  0  0
   -1.7020    6.8574    6.3263 H   0  0  0  0  0  0  0  0  0  0  0  0
   -0.5794    8.4322    5.3157 C   0  0  0  0  0  0  0  0  0  0  0  0
   -0.9917    9.1157    6.0556 H   0  0  0  0  0  0  0  0  0  0  0  0
    0.4878    8.6332    5.2104 H   0  0  0  0  0  0  0  0  0  0  0  0
   -1.3001    8.5225    3.9564 C   0  0  0  0  0  0  0  0  0  0  0  0
   -0.6052    8.7862    3.1579 H   0  0  0  0  0  0  0  0  0  0  0  0
   -2.1143    9.2449    3.9616 H   0  0  0  0  0  0  0  0  0  0  0  0
   -1.8182    7.0934    3.7390 C   0  0  0  0  0  0  0  0  0  0  0  0
   -2.8445    6.9903    4.1268 H   0  0  0  0  0  0  0  0  0  0  0  0
   -1.7808    6.7663    2.6991 H   0  0  0  0  0  0  0  0  0  0  0  0
  1  2  1  0  0  0  0
  3  1  1  0  0  0  0
  4  1  1  0  0  0  0
  5  1  1  0  0  0  0
  6 40  1  0  0  0  0
  7 43  1  0  0  0  0
  8  9  1  0  0  0  0
  8  5  1  0  0  0  0
  9 10  1  0  0  0  0
 11 12  1  0  0  0  0
 11  9  2  0  0  0  0
 13 11  1  0  0  0  0
 14 13  1  0  0  0  0
 15 13  2  0  0  0  0
 15 17  1  0  0  0  0
 16 15  1  0  0  0  0
 17  8  2  0  0  0  0
 18 17  1  0  0  0  0
 18  4  1  0  0  0  0
 19 18  1  0  0  0  0
 20  4  1  0  0  0  0
 20 29  1  0  0  0  0
 21 20  2  0  0  0  0
 22 21  1  0  0  0  0
 23 21  1  0  0  0  0
 23 25  2  0  0  0  0
 24 23  1  0  0  0  0
 25 27  1  0  0  0  0
 26 25  1  0  0  0  0
 27 29  2  0  0  0  0
 27 28  1  0  0  0  0
 29 30  1  0  0  0  0
 31 34  1  0  0  0  0
 31  6  1  0  0  0  0
 31 33  1  0  0  0  0
 32 31  1  0  0  0  0
 34 36  1  0  0  0  0
 34 37  1  0  0  0  0
 35 34  1  0  0  0  0
 37 40  1  0  0  0  0
 37 38  1  0  0  0  0
 39 37  1  0  0  0  0
 40 42  1  0  0  0  0
 40 41  1  0  0  0  0
 43 44  1  0  0  0  0
 43 45  1  0  0  0  0
 46 43  1  0  0  0  0
 46 47  1  0  0  0  0
 48 46  1  0  0  0  0
 49 51  1  0  0  0  0
 49 46  1  0  0  0  0
 50 49  1  0  0  0  0
 52 49  1  0  0  0  0
 52 53  1  0  0  0  0
 52  7  1  0  0  0  0
 54 52  1  0  0  0  0
M  END
$$$$
