CSD_code = YOGVIA | q = 0 | S = 0 | Stoichiometry = C30H24Br4ClN2O3V | MND = 6
 OpenBabel04212202123D

 65 70  0  0  0  0  0  0  0  0999 V2000
   10.8507    3.8690    8.3432 Br  0  0  0  0  0  0  0  0  0  0  0  0
   16.5107    3.6785    8.3462 Br  0  0  0  0  0  0  0  0  0  0  0  0
   10.7064    2.3562    4.0378 V   0  0  0  0  0  0  0  0  0  0  0  0
   11.3299    2.6679    5.5282 O   0  0  0  0  0  0  0  0  0  0  0  0
   10.4900    4.8150    3.8706 O   0  0  0  0  0  0  0  0  0  0  0  0
   12.5599    2.3338    3.3465 N   0  0  0  0  0  0  0  0  0  0  0  0
   10.7911    0.0959    4.1340 Cl  0  0  0  0  0  0  0  0  0  0  0  0
   12.4173    2.9478    6.1502 C   0  0  0  0  0  0  0  0  0  0  0  0
   12.4784    3.4274    7.4710 C   0  0  0  0  0  0  0  0  0  0  0  0
   13.6734    3.6447    8.1231 C   0  0  0  0  0  0  0  0  0  0  0  0
   13.6822    4.0078    9.1386 H   0  0  0  0  0  0  0  0  0  0  0  0
   14.8621    3.3971    7.4436 C   0  0  0  0  0  0  0  0  0  0  0  0
   14.8641    2.9907    6.1288 C   0  0  0  0  0  0  0  0  0  0  0  0
   15.7953    2.8458    5.6021 H   0  0  0  0  0  0  0  0  0  0  0  0
   13.6540    2.7780    5.4572 C   0  0  0  0  0  0  0  0  0  0  0  0
   13.6318    2.4377    4.0732 C   0  0  0  0  0  3  0  0  0  0  0  0
   14.6072    2.2853    3.6039 H   0  0  0  0  0  0  0  0  0  0  0  0
   12.8099    2.1181    1.9775 C   0  0  0  0  0  0  0  0  0  0  0  0
   13.6466    2.9964    1.2858 C   0  0  0  0  0  0  0  0  0  0  0  0
   14.0429    3.8655    1.7947 H   0  0  0  0  0  0  0  0  0  0  0  0
   13.9424    2.7785   -0.0467 C   0  0  0  0  0  0  0  0  0  0  0  0
   14.5805    3.4730   -0.5715 H   0  0  0  0  0  0  0  0  0  0  0  0
   13.4263    1.6736   -0.7021 C   0  0  0  0  0  0  0  0  0  0  0  0
   13.6650    1.4995   -1.7398 H   0  0  0  0  0  0  0  0  0  0  0  0
   12.5952    0.7999   -0.0209 C   0  0  0  0  0  0  0  0  0  0  0  0
   12.1883   -0.0631   -0.5266 H   0  0  0  0  0  0  0  0  0  0  0  0
   12.2785    1.0170    1.3085 C   0  0  0  0  0  0  0  0  0  0  0  0
   11.6469    0.3190    1.8401 H   0  0  0  0  0  0  0  0  0  0  0  0
   11.6125    5.5524    3.3968 C   0  0  0  0  0  0  0  0  0  0  0  0
   11.6699    5.4199    2.3125 H   0  0  0  0  0  0  0  0  0  0  0  0
   12.5330    5.1609    3.8576 H   0  0  0  0  0  0  0  0  0  0  0  0
   11.3763    6.9955    3.8329 C   0  0  0  0  0  0  0  0  0  0  0  0
   10.7014    7.4962    3.1375 H   0  0  0  0  0  0  0  0  0  0  0  0
   12.3006    7.5632    3.9039 H   0  0  0  0  0  0  0  0  0  0  0  0
   10.5035    3.6039   -0.3020 Br  0  0  0  0  0  0  0  0  0  0  0  0
    4.8498    3.2819   -0.2882 Br  0  0  0  0  0  0  0  0  0  0  0  0
   10.0538    2.4783    2.5405 O   0  0  0  0  0  0  0  0  0  0  0  0
    8.8391    2.2711    4.7530 N   0  0  0  0  0  0  0  0  0  0  0  0
    8.9629    2.7198    1.9156 C   0  0  0  0  0  0  0  0  0  0  0  0
    8.8883    3.1500    0.5783 C   0  0  0  0  0  0  0  0  0  0  0  0
    7.6875    3.3204   -0.0755 C   0  0  0  0  0  0  0  0  0  0  0  0
    7.6672    3.6495   -1.1026 H   0  0  0  0  0  0  0  0  0  0  0  0
    6.5065    3.0721    0.6176 C   0  0  0  0  0  0  0  0  0  0  0  0
    6.5171    2.7198    1.9480 C   0  0  0  0  0  0  0  0  0  0  0  0
    5.5904    2.5808    2.4843 H   0  0  0  0  0  0  0  0  0  0  0  0
    7.7335    2.5619    2.6224 C   0  0  0  0  0  0  0  0  0  0  0  0
    7.7680    2.2944    4.0229 C   0  0  0  0  0  3  0  0  0  0  0  0
    6.7973    2.1306    4.4995 H   0  0  0  0  0  0  0  0  0  0  0  0
    8.6045    2.1260    6.1331 C   0  0  0  0  0  0  0  0  0  0  0  0
    7.7195    2.9952    6.7756 C   0  0  0  0  0  0  0  0  0  0  0  0
    7.2655    3.8017    6.2147 H   0  0  0  0  0  0  0  0  0  0  0  0
    7.4488    2.8495    8.1232 C   0  0  0  0  0  0  0  0  0  0  0  0
    6.7730    3.5372    8.6085 H   0  0  0  0  0  0  0  0  0  0  0  0
    8.0387    1.8255    8.8446 C   0  0  0  0  0  0  0  0  0  0  0  0
    7.8209    1.7080    9.8949 H   0  0  0  0  0  0  0  0  0  0  0  0
    8.9174    0.9612    8.2127 C   0  0  0  0  0  0  0  0  0  0  0  0
    9.3823    0.1615    8.7701 H   0  0  0  0  0  0  0  0  0  0  0  0
    9.2100    1.1081    6.8684 C   0  0  0  0  0  0  0  0  0  0  0  0
    9.8813    0.4177    6.3772 H   0  0  0  0  0  0  0  0  0  0  0  0
    9.8321    5.5510    4.9036 C   0  0  0  0  0  0  0  0  0  0  0  0
    9.7103    4.9125    5.7833 H   0  0  0  0  0  0  0  0  0  0  0  0
    8.8381    5.8367    4.5314 H   0  0  0  0  0  0  0  0  0  0  0  0
   10.6916    6.7838    5.1816 C   0  0  0  0  0  0  0  0  0  0  0  0
   11.4317    6.5650    5.9532 H   0  0  0  0  0  0  0  0  0  0  0  0
   10.0953    7.6351    5.5000 H   0  0  0  0  0  0  0  0  0  0  0  0
  3  7  1  0  0  0  0
  3 38  1  0  0  0  0
  3  4  1  0  0  0  0
  4  8  1  0  0  0  0
  5 60  1  0  0  0  0
  6  3  1  0  0  0  0
  6 16  1  0  0  0  0
  8  9  1  0  0  0  0
  9 10  2  0  0  0  0
  9  1  1  0  0  0  0
 10 11  1  0  0  0  0
 12 10  1  0  0  0  0
 12  2  1  0  0  0  0
 13 12  2  0  0  0  0
 14 13  1  0  0  0  0
 15 13  1  0  0  0  0
 15  8  2  0  0  0  0
 16 15  1  0  0  0  0
 17 16  1  0  0  0  0
 18  6  1  0  0  0  0
 19 20  1  0  0  0  0
 19 18  2  0  0  0  0
 21 19  1  0  0  0  0
 22 21  1  0  0  0  0
 23 21  2  0  0  0  0
 23 25  1  0  0  0  0
 24 23  1  0  0  0  0
 25 27  2  0  0  0  0
 26 25  1  0  0  0  0
 27 28  1  0  0  0  0
 27 18  1  0  0  0  0
 29 32  1  0  0  0  0
 29 31  1  0  0  0  0
 29  5  1  0  0  0  0
 30 29  1  0  0  0  0
 32 34  1  0  0  0  0
 32 63  1  0  0  0  0
 33 32  1  0  0  0  0
 35 40  1  0  0  0  0
 36 43  1  0  0  0  0
 37  3  1  0  0  0  0
 38 49  1  0  0  0  0
 39 37  1  0  0  0  0
 39 46  1  0  0  0  0
 40 39  2  0  0  0  0
 41 40  1  0  0  0  0
 41 43  2  0  0  0  0
 42 41  1  0  0  0  0
 43 44  1  0  0  0  0
 44 45  1  0  0  0  0
 44 46  2  0  0  0  0
 46 47  1  0  0  0  0
 47 48  1  0  0  0  0
 47 38  1  0  0  0  0
 49 50  2  0  0  0  0
 49 58  1  0  0  0  0
 50 52  1  0  0  0  0
 51 50  1  0  0  0  0
 52 53  1  0  0  0  0
 52 54  2  0  0  0  0
 54 55  1  0  0  0  0
 56 57  1  0  0  0  0
 56 54  1  0  0  0  0
 58 56  2  0  0  0  0
 59 58  1  0  0  0  0
 60 63  1  0  0  0  0
 60 61  1  0  0  0  0
 62 60  1  0  0  0  0
 63 65  1  0  0  0  0
 63 64  1  0  0  0  0
M  END
$$$$
