CSD_code = YOHBOM | q = 0 | S = 0 | Stoichiometry = C7H5Cl3O3W | MND = 6
 OpenBabel04212202123D

 19 20  0  0  0  0  0  0  0  0999 V2000
    1.4028    5.5618   11.3622 W   0  0  0  0  0  0  0  0  0  0  0  0
   -0.2884    3.9860   11.7387 Cl  0  0  0  0  0  0  0  0  0  0  0  0
    2.7012    7.4482   11.7989 Cl  0  0  0  0  0  0  0  0  0  0  0  0
    0.0495    6.7355   10.0304 Cl  0  0  0  0  0  0  0  0  0  0  0  0
    0.2302    6.5273   12.9556 O   0  0  0  0  0  0  0  0  0  0  0  0
    2.2188    4.8054   12.9253 O   0  0  0  0  0  0  0  0  0  0  0  0
    2.3038    4.8027   10.1907 O   0  0  0  0  0  1  0  0  0  0  0  0
    0.2136    6.3471   14.1829 C   0  0  0  0  0  3  0  0  0  0  0  0
    1.0656    5.4609   14.9058 C   0  0  0  0  0  0  0  0  0  0  0  0
    2.0691    4.7044   14.2217 C   0  0  0  0  0  0  0  0  0  0  0  0
    2.8974    3.8522   14.9727 C   0  0  0  0  0  0  0  0  0  0  0  0
    2.7383    3.7449   16.3344 C   0  0  0  0  0  0  0  0  0  0  0  0
    1.7562    4.4810   17.0055 C   0  0  0  0  0  0  0  0  0  0  0  0
    0.9361    5.3255   16.3028 C   0  0  0  0  0  0  0  0  0  0  0  0
   -0.5163    6.9191   14.7760 H   0  0  0  0  0  0  0  0  0  0  0  0
    3.6509    3.2898   14.4424 H   0  0  0  0  0  0  0  0  0  0  0  0
    3.3808    3.0829   16.8950 H   0  0  0  0  0  0  0  0  0  0  0  0
    1.6494    4.3814   18.0739 H   0  0  0  0  0  0  0  0  0  0  0  0
    0.1741    5.9003   16.8075 H   0  0  0  0  0  0  0  0  0  0  0  0
  1  2  1  0  0  0  0
  1  3  1  0  0  0  0
  1  6  1  0  0  0  0
  1  5  1  0  0  0  0
  4  1  1  0  0  0  0
  5  8  1  0  0  0  0
  6 10  1  0  0  0  0
  7  1  1  0  0  0  0
  8 15  1  0  0  0  0
  8  9  1  0  0  0  0
  9 14  1  0  0  0  0
 10  9  2  0  0  0  0
 10 11  1  0  0  0  0
 11 12  2  0  0  0  0
 12 17  1  0  0  0  0
 12 13  1  0  0  0  0
 13 18  1  0  0  0  0
 14 19  1  0  0  0  0
 14 13  2  0  0  0  0
 16 11  1  0  0  0  0
M  END
$$$$
