CSD_code = YOJJAJ | q = 0 | S = 0 | Stoichiometry = C26H24Cl2F2O2Ti | MND = 12
 OpenBabel04212202123D

 57 60  0  0  1  0  0  0  0  0999 V2000
   -0.1290    3.2577    4.7101 Ti  0  0  0  0  0  0  0  0  0  0  0  0
    1.2318    1.6925    5.5259 Cl  0  0  0  0  0  0  0  0  0  0  0  0
    1.8847    3.7220    3.5599 C   0  0  0  0  0  0  0  0  0  0  0  0
    2.8701    3.3944    3.8663 H   0  0  0  0  0  0  0  0  0  0  0  0
    1.3000    4.9682    3.8498 C   0  0  0  0  0  0  0  0  0  0  0  0
    1.7838    5.7776    4.3797 H   0  0  0  0  0  0  0  0  0  0  0  0
    0.0736    5.0483    3.1508 C   0  0  0  0  0  0  0  0  0  0  0  0
   -0.5430    5.9314    3.0554 H   0  0  0  0  0  0  0  0  0  0  0  0
   -0.1031    3.8458    2.4415 C   0  0  0  0  0  0  0  0  0  0  0  0
   -0.8996    3.6298    1.7401 H   0  0  0  0  0  0  0  0  0  0  0  0
    1.0150    3.0112    2.6975 C   0  0  2  0  0  0  0  0  0  0  0  0
    1.2985    1.6857    2.0616 C   0  0  0  0  0  0  0  0  0  0  0  0
    1.8629    1.0543    2.7593 H   0  0  0  0  0  0  0  0  0  0  0  0
    0.3573    1.1658    1.8470 H   0  0  0  0  0  0  0  0  0  0  0  0
    2.0849    1.8078    0.7779 C   0  0  0  0  0  0  0  0  0  0  0  0
    2.4091    0.6601    0.0588 C   0  0  0  0  0  0  0  0  0  0  0  0
    2.0054   -0.5382    0.5337 F   0  0  0  0  0  0  0  0  0  0  0  0
    3.1234    0.6887   -1.1165 C   0  0  0  0  0  0  0  0  0  0  0  0
    3.3541   -0.2224   -1.6428 H   0  0  0  0  0  0  0  0  0  0  0  0
    3.5514    1.9152   -1.6268 C   0  0  0  0  0  0  0  0  0  0  0  0
    4.2520    1.8583   -2.7900 O   0  0  0  0  0  0  0  0  0  0  0  0
    4.7215    3.0599   -3.3524 C   0  0  0  0  0  0  0  0  0  0  0  0
    5.2510    2.7724   -4.2593 H   0  0  0  0  0  0  0  0  0  0  0  0
    5.4126    3.5758   -2.6784 H   0  0  0  0  0  0  0  0  0  0  0  0
    3.8970    3.7312   -3.6128 H   0  0  0  0  0  0  0  0  0  0  0  0
    3.2407    3.0774   -0.9311 C   0  0  0  0  0  0  0  0  0  0  0  0
    3.5533    4.0427   -1.2954 H   0  0  0  0  0  0  0  0  0  0  0  0
    2.5187    3.0125    0.2506 C   0  0  0  0  0  0  0  0  0  0  0  0
    2.2895    3.9295    0.7725 H   0  0  0  0  0  0  0  0  0  0  0  0
   -1.4887    1.6920    3.8924 Cl  0  0  0  0  0  0  0  0  0  0  0  0
   -2.1412    3.7220    5.8635 C   0  0  0  0  0  3  0  0  0  0  0  0
   -3.1267    3.3943    5.5578 H   0  0  0  0  0  0  0  0  0  0  0  0
   -1.5564    4.9679    5.5723 C   0  0  0  0  0  0  0  0  0  0  0  0
   -2.0404    5.7771    5.0425 H   0  0  0  0  0  0  0  0  0  0  0  0
   -0.3292    5.0477    6.2701 C   0  0  0  0  0  0  0  0  0  0  0  0
    0.2875    5.9309    6.3651 H   0  0  0  0  0  0  0  0  0  0  0  0
   -0.1518    3.8452    6.9791 C   0  0  0  0  0  3  0  0  0  0  0  0
    0.6453    3.6292    7.6798 H   0  0  0  0  0  0  0  0  0  0  0  0
   -1.2705    3.0110    6.7246 C   0  0  2  0  0  0  0  0  0  0  0  0
   -1.5536    1.6854    7.3607 C   0  0  0  0  0  0  0  0  0  0  0  0
   -2.1174    1.0536    6.6630 H   0  0  0  0  0  0  0  0  0  0  0  0
   -0.6122    1.1660    7.5758 H   0  0  0  0  0  0  0  0  0  0  0  0
   -2.3404    1.8075    8.6442 C   0  0  0  0  0  0  0  0  0  0  0  0
   -2.6653    0.6599    9.3630 C   0  0  0  0  0  0  0  0  0  0  0  0
   -2.2617   -0.5385    8.8882 F   0  0  0  0  0  0  0  0  0  0  0  0
   -3.3803    0.6887   10.5379 C   0  0  0  0  0  0  0  0  0  0  0  0
   -3.6116   -0.2224   11.0639 H   0  0  0  0  0  0  0  0  0  0  0  0
   -3.8083    1.9152   11.0480 C   0  0  0  0  0  0  0  0  0  0  0  0
   -4.5098    1.8584   12.2107 O   0  0  0  0  0  0  0  0  0  0  0  0
   -4.9804    3.0599   12.7722 C   0  0  0  0  0  0  0  0  0  0  0  0
   -5.5114    2.7725   13.6781 H   0  0  0  0  0  0  0  0  0  0  0  0
   -5.6704    3.5758   12.0969 H   0  0  0  0  0  0  0  0  0  0  0  0
   -4.1564    3.7314   13.0340 H   0  0  0  0  0  0  0  0  0  0  0  0
   -3.4967    3.0774   10.3526 C   0  0  0  0  0  0  0  0  0  0  0  0
   -3.8091    4.0427   10.7169 H   0  0  0  0  0  0  0  0  0  0  0  0
   -2.7740    3.0124    9.1714 C   0  0  0  0  0  0  0  0  0  0  0  0
   -2.5442    3.9293    8.6497 H   0  0  0  0  0  0  0  0  0  0  0  0
  1  2  1  0  0  0  0
  1 39  1  0  0  0  0
  3  5  2  0  0  0  0
  3  4  1  0  0  0  0
  5  6  1  0  0  0  0
  7  5  1  0  0  0  0
  8  7  1  0  0  0  0
  9 11  1  0  0  0  0
  9  7  2  0  0  0  0
 10  9  1  0  0  0  0
 11 12  1  6  0  0  0
 11  3  1  0  0  0  0
 11  1  1  0  0  0  0
 12 13  1  0  0  0  0
 14 12  1  0  0  0  0
 15 12  1  0  0  0  0
 16 17  1  0  0  0  0
 16 15  2  0  0  0  0
 18 16  1  0  0  0  0
 19 18  1  0  0  0  0
 20 18  2  0  0  0  0
 20 26  1  0  0  0  0
 21 20  1  0  0  0  0
 22 21  1  0  0  0  0
 22 24  1  0  0  0  0
 23 22  1  0  0  0  0
 25 22  1  0  0  0  0
 26 28  2  0  0  0  0
 27 26  1  0  0  0  0
 28 29  1  0  0  0  0
 28 15  1  0  0  0  0
 30  1  1  0  0  0  0
 31 39  1  0  0  0  0
 32 31  1  0  0  0  0
 33 31  1  0  0  0  0
 33 35  2  0  0  0  0
 34 33  1  0  0  0  0
 35 36  1  0  0  0  0
 35 37  1  0  0  0  0
 37 38  1  0  0  0  0
 39 37  1  0  0  0  0
 39 40  1  1  0  0  0
 40 42  1  0  0  0  0
 40 43  1  0  0  0  0
 41 40  1  0  0  0  0
 43 56  2  0  0  0  0
 43 44  1  0  0  0  0
 44 46  2  0  0  0  0
 45 44  1  0  0  0  0
 46 48  1  0  0  0  0
 46 47  1  0  0  0  0
 48 49  1  0  0  0  0
 49 50  1  0  0  0  0
 50 53  1  0  0  0  0
 50 51  1  0  0  0  0
 52 50  1  0  0  0  0
 54 55  1  0  0  0  0
 54 48  2  0  0  0  0
 56 54  1  0  0  0  0
 57 56  1  0  0  0  0
M  END
$$$$
