CSD_code = YOJMEQ | q = 0 | S = 0 | Stoichiometry = C18H28Cl2N4Pd | MND = 4
 OpenBabel04212202123D

 53 56  0  0  0  0  0  0  0  0999 V2000
    2.9054    4.9042    6.7779 Pd  0  0  0  0  0  0  0  0  0  0  0  0
    1.4524    6.6729    6.7694 Cl  0  0  0  0  0  0  0  0  0  0  0  0
    2.0815    4.2571    5.1053 N   0  0  0  0  0  0  0  0  0  0  0  0
    0.5751    3.8278    3.5720 N   0  0  0  0  0  0  0  0  0  0  0  0
    0.7954    4.2709    4.8219 C   0  0  0  0  0  3  0  0  0  0  0  0
    2.7231    3.7878    4.0002 C   0  0  0  0  0  0  0  0  0  0  0  0
    1.7927    3.5182    3.0402 C   0  0  0  0  0  0  0  0  0  0  0  0
   -0.7100    3.7340    2.9168 C   0  0  0  0  0  0  0  0  0  0  0  0
   -0.9972    2.2995    2.4664 C   0  0  0  0  0  0  0  0  0  0  0  0
   -2.3751    2.2263    1.8142 C   0  0  0  0  0  0  0  0  0  0  0  0
   -2.4590    3.1849    0.6298 C   0  0  0  0  0  0  0  0  0  0  0  0
   -2.1589    4.6134    1.0748 C   0  0  0  0  0  0  0  0  0  0  0  0
   -0.7809    4.6931    1.7253 C   0  0  0  0  0  0  0  0  0  0  0  0
    0.0216    4.6111    5.4867 H   0  0  0  0  0  0  0  0  0  0  0  0
    3.7903    3.6613    3.9787 H   0  0  0  0  0  0  0  0  0  0  0  0
    1.9118    3.1402    2.0467 H   0  0  0  0  0  0  0  0  0  0  0  0
   -1.4619    4.0325    3.6564 H   0  0  0  0  0  0  0  0  0  0  0  0
   -0.9488    1.6283    3.3262 H   0  0  0  0  0  0  0  0  0  0  0  0
   -0.2386    1.9827    1.7484 H   0  0  0  0  0  0  0  0  0  0  0  0
   -2.5680    1.2050    1.4823 H   0  0  0  0  0  0  0  0  0  0  0  0
   -3.1392    2.4889    2.5492 H   0  0  0  0  0  0  0  0  0  0  0  0
   -3.4546    3.1373    0.1861 H   0  0  0  0  0  0  0  0  0  0  0  0
   -1.7381    2.8831   -0.1333 H   0  0  0  0  0  0  0  0  0  0  0  0
   -2.9172    4.9382    1.7904 H   0  0  0  0  0  0  0  0  0  0  0  0
   -2.1979    5.2878    0.2182 H   0  0  0  0  0  0  0  0  0  0  0  0
   -0.0159    4.4229    0.9947 H   0  0  0  0  0  0  0  0  0  0  0  0
   -0.5796    5.7110    2.0649 H   0  0  0  0  0  0  0  0  0  0  0  0
    4.3578    3.1353    6.7849 Cl  0  0  0  0  0  0  0  0  0  0  0  0
    3.7289    5.5514    8.4507 N   0  0  0  0  0  0  0  0  0  0  0  0
    5.2353    5.9807    9.9839 N   0  0  0  0  0  0  0  0  0  0  0  0
    5.0149    5.5377    8.7340 C   0  0  0  0  0  3  0  0  0  0  0  0
    3.0872    6.0207    9.5558 C   0  0  0  0  0  0  0  0  0  0  0  0
    4.0177    6.2903   10.5158 C   0  0  0  0  0  0  0  0  0  0  0  0
    6.5204    6.0745   10.6390 C   0  0  0  0  0  0  0  0  0  0  0  0
    6.8076    7.5090   11.0894 C   0  0  0  0  0  0  0  0  0  0  0  0
    8.1855    7.5822   11.7416 C   0  0  0  0  0  0  0  0  0  0  0  0
    8.2694    6.6236   12.9261 C   0  0  0  0  0  0  0  0  0  0  0  0
    7.9693    5.1952   12.4811 C   0  0  0  0  0  0  0  0  0  0  0  0
    6.5913    5.1154   11.8306 C   0  0  0  0  0  0  0  0  0  0  0  0
    5.7888    5.1976    8.0692 H   0  0  0  0  0  0  0  0  0  0  0  0
    2.0201    6.1471    9.5773 H   0  0  0  0  0  0  0  0  0  0  0  0
    3.8986    6.6682   11.5092 H   0  0  0  0  0  0  0  0  0  0  0  0
    7.2723    5.7760    9.8995 H   0  0  0  0  0  0  0  0  0  0  0  0
    6.7592    8.1802   10.2296 H   0  0  0  0  0  0  0  0  0  0  0  0
    6.0489    7.8258   11.8074 H   0  0  0  0  0  0  0  0  0  0  0  0
    8.3783    8.6035   12.0735 H   0  0  0  0  0  0  0  0  0  0  0  0
    8.9496    7.3196   11.0067 H   0  0  0  0  0  0  0  0  0  0  0  0
    9.2650    6.6712   13.3698 H   0  0  0  0  0  0  0  0  0  0  0  0
    7.5485    6.9254   13.6891 H   0  0  0  0  0  0  0  0  0  0  0  0
    8.7276    4.8703   11.7655 H   0  0  0  0  0  0  0  0  0  0  0  0
    8.0082    4.5208   13.3377 H   0  0  0  0  0  0  0  0  0  0  0  0
    5.8263    5.3856   12.5612 H   0  0  0  0  0  0  0  0  0  0  0  0
    6.3900    4.0975   11.4909 H   0  0  0  0  0  0  0  0  0  0  0  0
  1 28  1  0  0  0  0
  1 29  1  0  0  0  0
  2  1  1  0  0  0  0
  3  1  1  0  0  0  0
  4  5  1  0  0  0  0
  5  3  1  0  0  0  0
  5 14  1  0  0  0  0
  6  3  1  0  0  0  0
  7  4  1  0  0  0  0
  7  6  2  0  0  0  0
  8  4  1  0  0  0  0
  8 17  1  0  0  0  0
  9  8  1  0  0  0  0
  9 18  1  0  0  0  0
 10  9  1  0  0  0  0
 10 21  1  0  0  0  0
 11 12  1  0  0  0  0
 11 10  1  0  0  0  0
 12 13  1  0  0  0  0
 12 24  1  0  0  0  0
 13 27  1  0  0  0  0
 13  8  1  0  0  0  0
 15  6  1  0  0  0  0
 16  7  1  0  0  0  0
 19  9  1  0  0  0  0
 20 10  1  0  0  0  0
 22 11  1  0  0  0  0
 23 11  1  0  0  0  0
 25 12  1  0  0  0  0
 26 13  1  0  0  0  0
 29 31  1  0  0  0  0
 29 32  1  0  0  0  0
 30 33  1  0  0  0  0
 30 34  1  0  0  0  0
 31 30  1  0  0  0  0
 32 41  1  0  0  0  0
 32 33  2  0  0  0  0
 33 42  1  0  0  0  0
 34 35  1  0  0  0  0
 34 39  1  0  0  0  0
 35 36  1  0  0  0  0
 35 45  1  0  0  0  0
 36 46  1  0  0  0  0
 36 37  1  0  0  0  0
 37 48  1  0  0  0  0
 37 49  1  0  0  0  0
 38 37  1  0  0  0  0
 38 51  1  0  0  0  0
 39 38  1  0  0  0  0
 39 52  1  0  0  0  0
 40 31  1  0  0  0  0
 43 34  1  0  0  0  0
 44 35  1  0  0  0  0
 47 36  1  0  0  0  0
 50 38  1  0  0  0  0
 53 39  1  0  0  0  0
M  END
$$$$
