CSD_code = YOJPAO | q = 0 | S = 0 | Stoichiometry = C12H8Cl2N2O2Ru | MND = 6
 OpenBabel04212202123D

 27 29  0  0  1  0  0  0  0  0999 V2000
    1.2799    3.2584    2.0157 Ru  0  0  0  0  0  0  0  0  0  0  0  0
    0.1196    1.1669    1.8901 Cl  0  0  0  0  0  0  0  0  0  0  0  0
    2.4510    5.3085    1.6156 Cl  0  0  0  0  0  0  0  0  0  0  0  0
   -0.5580    4.4119    4.0867 O   0  0  0  0  0  1  0  0  0  0  0  0
    3.0244    2.4434    4.3157 O   0  0  0  0  0  1  0  0  0  0  0  0
    0.1837    3.7814    0.3962 N   0  0  0  0  0  0  0  0  0  0  0  0
    2.4395    2.4918    0.5440 N   0  0  0  0  0  0  0  0  0  0  0  0
   -0.9562    4.4633    0.4103 C   0  0  0  0  0  3  0  0  0  0  0  0
   -1.6364    4.8165   -0.7424 C   0  0  0  0  0  0  0  0  0  0  0  0
   -1.1075    4.4459   -1.9687 C   0  0  0  0  0  0  0  0  0  0  0  0
    0.0774    3.7342   -1.9887 C   0  0  0  0  0  0  0  0  0  0  0  0
    0.7046    3.4115   -0.7862 C   0  0  0  0  0  0  0  0  0  0  0  0
    1.9636    2.6620   -0.7013 C   0  0  2  0  0  3  0  0  0  0  0  0
    2.6345    2.1507   -1.8112 C   0  0  0  0  0  0  0  0  0  0  0  0
    3.8171    1.4576   -1.6318 C   0  0  0  0  0  0  0  0  0  0  0  0
    4.3002    1.2953   -0.3430 C   0  0  0  0  0  0  0  0  0  0  0  0
    3.5779    1.8278    0.7109 C   0  0  0  0  0  0  0  0  0  0  0  0
    0.1325    3.9821    3.2886 C   0  0  0  0  0  2  0  0  0  0  0  0
    2.3700    2.7434    3.4323 C   0  0  0  0  0  2  0  0  0  0  0  0
   -1.3472    4.7429    1.3804 H   0  0  0  0  0  0  0  0  0  0  0  0
   -2.5580    5.3712   -0.6745 H   0  0  0  0  0  0  0  0  0  0  0  0
   -1.6059    4.7058   -2.8896 H   0  0  0  0  0  0  0  0  0  0  0  0
    0.5107    3.4371   -2.9292 H   0  0  0  0  0  0  0  0  0  0  0  0
    2.2365    2.2881   -2.8028 H   0  0  0  0  0  0  0  0  0  0  0  0
    4.3488    1.0532   -2.4790 H   0  0  0  0  0  0  0  0  0  0  0  0
    5.2184    0.7643   -0.1517 H   0  0  0  0  0  0  0  0  0  0  0  0
    3.9327    1.7126    1.7273 H   0  0  0  0  0  0  0  0  0  0  0  0
  1 18  1  0  0  0  0
  1 19  1  0  0  0  0
  2  1  1  0  0  0  0
  3  1  1  0  0  0  0
  6  8  1  0  0  0  0
  6  1  1  0  0  0  0
  7 17  1  0  0  0  0
  7  1  1  0  0  0  0
  8 20  1  0  0  0  0
  9 21  1  0  0  0  0
  9  8  1  0  0  0  0
 10  9  2  0  0  0  0
 11 10  1  0  0  0  0
 11 12  2  0  0  0  0
 12 13  1  0  0  0  0
 12  6  1  0  0  0  0
 13 14  1  1  0  0  0
 13  7  1  0  0  0  0
 14 15  2  0  0  0  0
 15 16  1  0  0  0  0
 16 26  1  0  0  0  0
 16 17  2  0  0  0  0
 17 27  1  0  0  0  0
 18  4  1  0  0  0  0
 19  5  1  0  0  0  0
 22 10  1  0  0  0  0
 23 11  1  0  0  0  0
 24 14  1  0  0  0  0
 25 15  1  0  0  0  0
M  END
$$$$
