CSD_code = YOJQOE | q = 0 | S = 0 | Stoichiometry = C10H14Br2N4NiS2 | MND = 4
 OpenBabel04212202123D

 33 34  0  0  1  0  0  0  0  0999 V2000
   -2.0987    2.7380    2.4542 Ni  0  0  0  0  0  0  0  0  0  0  0  0
   -1.1521    1.5393    0.8400 S   0  0  0  0  0  0  0  0  0  0  0  0
   -2.5632    0.8398    4.4175 S   0  0  0  0  0  0  0  0  0  0  0  0
   -0.3196    3.7819    3.3143 Br  0  0  0  0  0  0  0  0  0  0  0  0
   -4.1320    2.6933    1.6513 Br  0  0  0  0  0  0  0  0  0  0  0  0
    1.5201    1.9736    1.1436 N   0  0  0  0  0  0  0  0  0  0  0  0
    0.7815    0.2500    2.2568 N   0  0  0  0  0  0  0  0  0  0  0  0
   -0.0039    0.2579    5.0688 N   0  0  0  0  0  0  0  0  0  0  0  0
   -0.7695    2.0515    6.0538 N   0  0  0  0  0  0  0  0  0  0  0  0
    0.4089    1.2800    1.4600 C   0  0  2  0  0  3  0  0  0  0  0  0
    2.5866    1.4037    1.7749 C   0  0  0  0  0  0  0  0  0  0  0  0
    3.5749    1.8048    1.6901 H   0  0  0  0  0  0  0  0  0  0  0  0
    2.1327    0.3275    2.4613 C   0  0  0  0  0  0  0  0  0  0  0  0
    2.6641   -0.3809    3.0608 H   0  0  0  0  0  0  0  0  0  0  0  0
    1.5427    3.1752    0.3592 C   0  0  0  0  0  0  0  0  0  0  0  0
    0.6627    3.1895   -0.2831 H   0  0  0  0  0  0  0  0  0  0  0  0
    2.4459    3.2033   -0.2464 H   0  0  0  0  0  0  0  0  0  0  0  0
    1.5112    4.0461    1.0182 H   0  0  0  0  0  0  0  0  0  0  0  0
   -0.1309   -0.7242    2.7926 C   0  0  0  0  0  0  0  0  0  0  0  0
   -1.1444   -0.3509    2.6002 H   0  0  0  0  0  0  0  0  0  0  0  0
   -0.0058   -1.6794    2.2743 H   0  0  0  0  0  0  0  0  0  0  0  0
    0.0433   -0.9548    4.3007 C   0  0  0  0  0  0  0  0  0  0  0  0
    0.9935   -1.4484    4.5146 H   0  0  0  0  0  0  0  0  0  0  0  0
   -0.7767   -1.6090    4.6168 H   0  0  0  0  0  0  0  0  0  0  0  0
   -1.0961    1.0640    5.1868 C   0  0  0  0  0  0  0  0  0  0  0  0
    1.0083    0.7769    5.8432 C   0  0  0  0  0  0  0  0  0  0  0  0
    1.9710    0.3140    5.9022 H   0  0  0  0  0  0  0  0  0  0  0  0
    0.5303    1.8851    6.4482 C   0  0  0  0  0  0  0  0  0  0  0  0
    1.0089    2.5739    7.1117 H   0  0  0  0  0  0  0  0  0  0  0  0
   -1.6396    3.1225    6.4447 C   0  0  0  0  0  0  0  0  0  0  0  0
   -1.1179    4.0741    6.3524 H   0  0  0  0  0  0  0  0  0  0  0  0
   -1.9811    2.9855    7.4720 H   0  0  0  0  0  0  0  0  0  0  0  0
   -2.5063    3.1206    5.7825 H   0  0  0  0  0  0  0  0  0  0  0  0
  1  4  1  0  0  0  0
  2  1  1  0  0  0  0
  3 25  2  0  0  0  0
  5  1  1  0  0  0  0
  6 10  1  0  0  0  0
  6 11  1  0  0  0  0
  7 13  1  0  0  0  0
  7 19  1  0  0  0  0
  8 25  1  0  0  0  0
  8 26  1  0  0  0  0
  9 30  1  0  0  0  0
  9 28  1  0  0  0  0
 10  2  1  6  0  0  0
 10  7  1  0  0  0  0
 11 13  2  0  0  0  0
 12 11  1  0  0  0  0
 13 14  1  0  0  0  0
 15 18  1  0  0  0  0
 15  6  1  0  0  0  0
 16 15  1  0  0  0  0
 17 15  1  0  0  0  0
 19 22  1  0  0  0  0
 20 19  1  0  0  0  0
 21 19  1  0  0  0  0
 22 23  1  0  0  0  0
 22 24  1  0  0  0  0
 22  8  1  0  0  0  0
 25  9  1  0  0  0  0
 26 27  1  0  0  0  0
 26 28  2  0  0  0  0
 28 29  1  0  0  0  0
 30 32  1  0  0  0  0
 31 30  1  0  0  0  0
 33 30  1  0  0  0  0
M  END
$$$$
