CSD_code = YOJQIY | q = 0 | S = 0 | Stoichiometry = C9H12Br2N4NiSe2 | MND = 4
 OpenBabel04212202123D

 30 31  0  0  1  0  0  0  0  0999 V2000
    3.0599    9.7167    6.3589 Ni  0  0  0  0  0  0  0  0  0  0  0  0
    0.9406    7.5731    6.3430 Se  0  0  0  0  0  1  0  0  0  0  0  0
    3.6648    9.6575    8.5084 Br  0  0  0  0  0  0  0  0  0  0  0  0
    3.1286    9.8749    4.1681 Br  0  0  0  0  0  0  0  0  0  0  0  0
    1.7393    6.7558    8.9349 N   0  0  0  0  0  0  0  0  0  0  0  0
    0.4005    8.4775    8.9939 N   0  0  0  0  0  0  0  0  0  0  0  0
    1.0594    7.6226    8.1558 C   0  0  2  0  0  3  0  0  0  0  0  0
    1.5393    7.0775   10.2490 C   0  0  0  0  0  0  0  0  0  0  0  0
    2.0063    6.5319   11.0422 H   0  0  0  0  0  0  0  0  0  0  0  0
    0.7086    8.1388   10.2941 C   0  0  0  0  0  0  0  0  0  0  0  0
    0.3178    8.6735   11.1328 H   0  0  0  0  0  0  0  0  0  0  0  0
    2.6346    5.7505    8.4401 C   0  0  0  0  0  0  0  0  0  0  0  0
    2.2447    5.3561    7.5013 H   0  0  0  0  0  0  0  0  0  0  0  0
    2.7264    4.9495    9.1700 H   0  0  0  0  0  0  0  0  0  0  0  0
    3.6202    6.1849    8.2540 H   0  0  0  0  0  0  0  0  0  0  0  0
   -0.3470    9.6297    8.5805 C   0  0  0  0  0  0  0  0  0  0  0  0
   -0.4290    9.5985    7.4850 H   0  0  0  0  0  0  0  0  0  0  0  0
   -1.3439    9.6167    9.0346 H   0  0  0  0  0  0  0  0  0  0  0  0
    1.5340   11.3621    6.3614 Se  0  0  0  0  0  0  0  0  0  0  0  0
    1.6935   12.5337    8.9797 N   0  0  0  0  0  0  0  0  0  0  0  0
    0.3188   10.8521    8.9662 N   0  0  0  0  0  0  0  0  0  0  0  0
    1.1933   11.5551    8.2090 C   0  0  1  0  0  3  0  0  0  0  0  0
    1.1572   12.4397   10.2292 C   0  0  0  0  0  0  0  0  0  0  0  0
    1.4250   13.1104   11.0192 H   0  0  0  0  0  0  0  0  0  0  0  0
    0.2986   11.3928   10.2245 C   0  0  0  0  0  0  0  0  0  0  0  0
   -0.3282   11.0103   11.0026 H   0  0  0  0  0  0  0  0  0  0  0  0
    2.7278   13.4386    8.5656 C   0  0  0  0  0  0  0  0  0  0  0  0
    2.4604   13.8986    7.6139 H   0  0  0  0  0  0  0  0  0  0  0  0
    2.8663   14.2046    9.3237 H   0  0  0  0  0  0  0  0  0  0  0  0
    3.6606   12.8840    8.4339 H   0  0  0  0  0  0  0  0  0  0  0  0
  1 19  1  0  0  0  0
  1  3  1  0  0  0  0
  4  1  1  0  0  0  0
  5  8  1  0  0  0  0
  6 10  1  0  0  0  0
  7  2  1  1  0  0  0
  7  5  1  0  0  0  0
  7  6  1  0  0  0  0
  8 10  2  0  0  0  0
  8  9  1  0  0  0  0
 10 11  1  0  0  0  0
 12  5  1  0  0  0  0
 12 14  1  0  0  0  0
 13 12  1  0  0  0  0
 15 12  1  0  0  0  0
 16 21  1  0  0  0  0
 16  6  1  0  0  0  0
 16 18  1  0  0  0  0
 17 16  1  0  0  0  0
 20 23  1  0  0  0  0
 21 25  1  0  0  0  0
 22 19  1  6  0  0  0
 22 21  1  0  0  0  0
 22 20  1  0  0  0  0
 23 24  1  0  0  0  0
 25 23  2  0  0  0  0
 25 26  1  0  0  0  0
 27 20  1  0  0  0  0
 27 29  1  0  0  0  0
 28 27  1  0  0  0  0
 30 27  1  0  0  0  0
M  END
$$$$
