CSD_code = YOJRIY | q = 0 | S = 0 | Stoichiometry = C12H8Cl2N2O2Ru | MND = 6
 OpenBabel04212202123D

 27 29  0  0  1  0  0  0  0  0999 V2000
    0.5606    2.5221    7.3144 Ru  0  0  0  0  0  0  0  0  0  0  0  0
    0.0114    0.2108    7.0110 Cl  0  0  0  0  0  0  0  0  0  0  0  0
    1.5857    4.6816    7.4485 Cl  0  0  0  0  0  0  0  0  0  0  0  0
    1.6070    2.3319    5.5923 N   0  0  0  0  0  0  0  0  0  0  0  0
    2.3129    1.8184    8.0435 N   0  0  0  0  0  0  0  0  0  0  0  0
   -0.8552    2.7735    9.9469 O   0  0  0  0  0  1  0  0  0  0  0  0
   -1.9909    3.5116    6.0862 O   0  0  0  0  0  1  0  0  0  0  0  0
   -0.3052    2.6705    8.9542 C   0  0  0  0  0  2  0  0  0  0  0  0
   -1.0124    3.1420    6.5384 C   0  0  0  0  0  2  0  0  0  0  0  0
    2.5866    1.5737    9.3202 C   0  0  0  0  0  3  0  0  0  0  0  0
    3.7963    1.0509    9.7438 C   0  0  0  0  0  0  0  0  0  0  0  0
    4.7677    0.7661    8.7973 C   0  0  0  0  0  0  0  0  0  0  0  0
    4.4893    1.0227    7.4677 C   0  0  0  0  0  0  0  0  0  0  0  0
    3.2492    1.5538    7.1163 C   0  0  0  0  0  0  0  0  0  0  0  0
    2.8592    1.8652    5.7361 C   0  0  2  0  0  3  0  0  0  0  0  0
    3.7050    1.7057    4.6396 C   0  0  0  0  0  0  0  0  0  0  0  0
    3.2494    2.0313    3.3756 C   0  0  0  0  0  0  0  0  0  0  0  0
    1.9553    2.5087    3.2411 C   0  0  0  0  0  0  0  0  0  0  0  0
    1.1734    2.6421    4.3756 C   0  0  0  0  0  0  0  0  0  0  0  0
    1.8110    1.8027   10.0399 H   0  0  0  0  0  0  0  0  0  0  0  0
    3.9666    0.8706   10.7927 H   0  0  0  0  0  0  0  0  0  0  0  0
    5.7213    0.3531    9.0873 H   0  0  0  0  0  0  0  0  0  0  0  0
    5.2270    0.8083    6.7126 H   0  0  0  0  0  0  0  0  0  0  0  0
    4.7081    1.3356    4.7710 H   0  0  0  0  0  0  0  0  0  0  0  0
    3.8907    1.9157    2.5158 H   0  0  0  0  0  0  0  0  0  0  0  0
    1.5547    2.7763    2.2770 H   0  0  0  0  0  0  0  0  0  0  0  0
    0.1597    3.0142    4.2972 H   0  0  0  0  0  0  0  0  0  0  0  0
  1  3  1  0  0  0  0
  1  5  1  0  0  0  0
  1  8  1  0  0  0  0
  2  1  1  0  0  0  0
  4 15  1  0  0  0  0
  4  1  1  0  0  0  0
  5 10  1  0  0  0  0
  7  9  1  0  0  0  0
  8  6  1  0  0  0  0
  9  1  1  0  0  0  0
 10 11  1  0  0  0  0
 10 20  1  0  0  0  0
 11 21  1  0  0  0  0
 12 22  1  0  0  0  0
 12 11  2  0  0  0  0
 13 12  1  0  0  0  0
 14 13  2  0  0  0  0
 14  5  1  0  0  0  0
 15 16  1  1  0  0  0
 15 14  1  0  0  0  0
 16 24  1  0  0  0  0
 17 16  2  0  0  0  0
 18 17  1  0  0  0  0
 18 19  2  0  0  0  0
 19  4  1  0  0  0  0
 23 13  1  0  0  0  0
 25 17  1  0  0  0  0
 26 18  1  0  0  0  0
 27 19  1  0  0  0  0
M  END
$$$$
