CSD_code = YOJSIZ | q = 0 | S = 0 | Stoichiometry = C20H32ClNPRh | MND = 8
 OpenBabel04212202123D

 56 56  0  0  1  0  0  0  0  0999 V2000
   -4.4737    2.3305    5.3363 Rh  0  0  0  0  0  0  0  0  0  0  0  0
   -3.1034    3.8305    4.2025 Cl  0  0  0  0  0 15  0  0  0  0  0  0
   -2.5755    1.0953    5.3414 P   0  0  0  0  0  0  0  0  0  0  0  0
   -4.7948   -0.0121    3.8722 N   0  0  0  0  0  0  0  0  0  0  0  0
   -5.8302    1.5282    6.8577 C   0  0  2  0  0  0  0  0  0  0  0  0
   -6.6143    2.3143    5.9569 C   0  0  2  0  0  3  0  0  0  0  0  0
   -6.1285    3.6495    6.0224 C   0  0  1  0  0  0  0  0  0  0  0  0
   -5.1547    3.7196    7.0986 C   0  0  0  0  0  0  0  0  0  0  0  0
   -4.9844    2.4329    7.6196 C   0  0  0  0  0  0  0  0  0  0  0  0
   -6.1293    0.1035    7.2108 C   0  0  0  0  0  0  0  0  0  0  0  0
   -7.8020    1.8192    5.1897 C   0  0  0  0  0  0  0  0  0  0  0  0
   -6.7575    4.8700    5.4190 C   0  0  0  0  0  0  0  0  0  0  0  0
   -4.5659    5.0028    7.5940 C   0  0  0  0  0  0  0  0  0  0  0  0
   -4.2204    2.0558    8.8518 C   0  0  0  0  0  0  0  0  0  0  0  0
   -4.9355    1.2863    3.6769 C   0  0  0  0  0  0  0  0  0  0  0  0
   -5.4798    1.7870    2.4818 C   0  0  0  0  0  0  0  0  0  0  0  0
   -5.8734    0.8581    1.5300 C   0  0  0  0  0  0  0  0  0  0  0  0
   -5.7376   -0.5099    1.7475 C   0  0  0  0  0  0  0  0  0  0  0  0
   -5.6203    3.2484    2.1926 C   0  0  0  0  0  0  0  0  0  0  0  0
   -6.1695   -1.5086    0.7185 C   0  0  0  0  0  0  0  0  0  0  0  0
   -5.1792   -0.8884    2.9558 C   0  0  0  0  0  0  0  0  0  0  0  0
   -2.5921   -0.5848    6.0762 C   0  0  0  0  0  0  0  0  0  0  0  0
   -1.7199    0.7901    3.7569 C   0  0  0  0  0  0  0  0  0  0  0  0
   -1.2285    1.8862    6.3034 C   0  0  0  0  0  0  0  0  0  0  0  0
   -7.0934    0.0435    7.7199 H   0  0  0  0  0  0  0  0  0  0  0  0
   -6.1774   -0.5116    6.3139 H   0  0  0  0  0  0  0  0  0  0  0  0
   -5.3686   -0.3071    7.8693 H   0  0  0  0  0  0  0  0  0  0  0  0
   -8.6876    1.8656    5.8276 H   0  0  0  0  0  0  0  0  0  0  0  0
   -7.9856    2.4232    4.3040 H   0  0  0  0  0  0  0  0  0  0  0  0
   -7.6616    0.7865    4.8771 H   0  0  0  0  0  0  0  0  0  0  0  0
   -7.3175    5.4047    6.1894 H   0  0  0  0  0  0  0  0  0  0  0  0
   -6.0014    5.5478    5.0249 H   0  0  0  0  0  0  0  0  0  0  0  0
   -7.4457    4.6080    4.6187 H   0  0  0  0  0  0  0  0  0  0  0  0
   -3.7821    4.8228    8.3257 H   0  0  0  0  0  0  0  0  0  0  0  0
   -4.1414    5.5744    6.7696 H   0  0  0  0  0  0  0  0  0  0  0  0
   -5.3434    5.6102    8.0619 H   0  0  0  0  0  0  0  0  0  0  0  0
   -4.9026    2.0208    9.7042 H   0  0  0  0  0  0  0  0  0  0  0  0
   -3.7585    1.0750    8.7526 H   0  0  0  0  0  0  0  0  0  0  0  0
   -3.4414    2.7827    9.0717 H   0  0  0  0  0  0  0  0  0  0  0  0
   -5.7179    3.8176    3.1132 H   0  0  0  0  0  0  0  0  0  0  0  0
   -4.7235    3.6053    1.6864 H   0  0  0  0  0  0  0  0  0  0  0  0
   -6.4787    3.4361    1.5495 H   0  0  0  0  0  0  0  0  0  0  0  0
   -7.2335   -1.4029    0.5091 H   0  0  0  0  0  0  0  0  0  0  0  0
   -5.6289   -1.3498   -0.2140 H   0  0  0  0  0  0  0  0  0  0  0  0
   -5.9811   -2.5229    1.0623 H   0  0  0  0  0  0  0  0  0  0  0  0
   -2.8389   -0.5207    7.1331 H   0  0  0  0  0  0  0  0  0  0  0  0
   -3.3471   -1.1757    5.5671 H   0  0  0  0  0  0  0  0  0  0  0  0
   -1.6132   -1.0478    5.9614 H   0  0  0  0  0  0  0  0  0  0  0  0
   -0.7522    0.3280    3.9506 H   0  0  0  0  0  0  0  0  0  0  0  0
   -2.3247    0.1361    3.1344 H   0  0  0  0  0  0  0  0  0  0  0  0
   -1.5827    1.7430    3.2499 H   0  0  0  0  0  0  0  0  0  0  0  0
   -0.3322    1.2669    6.2833 H   0  0  0  0  0  0  0  0  0  0  0  0
   -1.0177    2.8574    5.8595 H   0  0  0  0  0  0  0  0  0  0  0  0
   -1.5492    2.0305    7.3338 H   0  0  0  0  0  0  0  0  0  0  0  0
   -6.2971    1.2071    0.5967 H   0  0  0  0  0  0  0  0  0  0  0  0
   -5.0288   -1.9338    3.2032 H   0  0  0  0  0  0  0  0  0  0  0  0
  1  7  1  0  0  0  0
  1  5  1  0  0  0  0
  3 22  1  0  0  0  0
  3 24  1  0  0  0  0
  5 10  1  1  0  0  0
  5  9  1  0  0  0  0
  6 11  1  1  0  0  0
  6  7  1  0  0  0  0
  6  5  1  0  0  0  0
  7 12  1  6  0  0  0
  7  8  1  0  0  0  0
  8 13  1  0  0  0  0
  8  9  2  0  0  0  0
  9 14  1  0  0  0  0
 10 25  1  0  0  0  0
 10 27  1  0  0  0  0
 11 28  1  0  0  0  0
 12 31  1  0  0  0  0
 13 36  1  0  0  0  0
 13 34  1  0  0  0  0
 14 39  1  0  0  0  0
 14 37  1  0  0  0  0
 15  4  1  0  0  0  0
 15  1  1  0  0  0  0
 16 15  2  0  0  0  0
 17 18  2  0  0  0  0
 17 16  1  0  0  0  0
 18 21  1  0  0  0  0
 19 16  1  0  0  0  0
 19 40  1  0  0  0  0
 20 45  1  0  0  0  0
 20 18  1  0  0  0  0
 21 56  1  0  0  0  0
 21  4  2  0  0  0  0
 22 46  1  0  0  0  0
 23 49  1  0  0  0  0
 23  3  1  0  0  0  0
 24 54  1  0  0  0  0
 26 10  1  0  0  0  0
 29 11  1  0  0  0  0
 30 11  1  0  0  0  0
 32 12  1  0  0  0  0
 33 12  1  0  0  0  0
 35 13  1  0  0  0  0
 38 14  1  0  0  0  0
 41 19  1  0  0  0  0
 42 19  1  0  0  0  0
 43 20  1  0  0  0  0
 44 20  1  0  0  0  0
 47 22  1  0  0  0  0
 48 22  1  0  0  0  0
 50 23  1  0  0  0  0
 51 23  1  0  0  0  0
 52 24  1  0  0  0  0
 53 24  1  0  0  0  0
 55 17  1  0  0  0  0
M  END
$$$$
