CSD_code = YOJVOJ | q = 0 | S = 0 | Stoichiometry = C16H16Br2FeN2 | MND = 4
 OpenBabel04212202123D

 37 39  0  0  0  0  0  0  0  0999 V2000
    2.5965    2.0377    5.2871 Br  0  0  0  0  0  0  0  0  0  0  0  0
    2.6057    6.1335    4.6776 Br  0  0  0  0  0  0  0  0  0  0  0  0
    3.3770    4.0787    4.9488 Fe  0  0  0  0  0  0  0  0  0  0  0  0
    4.8241    4.1632    6.0890 N   0  0  0  0  0  0  0  0  0  0  0  0
    4.7159    3.9677    3.6852 N   0  0  0  0  0  0  0  0  0  0  0  0
    6.0262    4.0904    5.5375 C   0  0  0  0  0  0  0  0  0  0  0  0
    5.9632    4.0088    4.1290 C   0  0  0  0  0  0  0  0  0  0  0  0
    7.3117    4.1390    6.3010 C   0  0  0  0  0  0  0  0  0  0  0  0
    7.1342    4.4435    7.3293 H   0  0  0  0  0  0  0  0  0  0  0  0
    7.9947    4.8453    5.8331 H   0  0  0  0  0  0  0  0  0  0  0  0
    7.7909    3.1598    6.3053 H   0  0  0  0  0  0  0  0  0  0  0  0
    7.1751    3.9287    3.2555 C   0  0  0  0  0  0  0  0  0  0  0  0
    6.8995    3.6356    2.2457 H   0  0  0  0  0  0  0  0  0  0  0  0
    7.8755    3.2000    3.6592 H   0  0  0  0  0  0  0  0  0  0  0  0
    7.6804    4.8936    3.2130 H   0  0  0  0  0  0  0  0  0  0  0  0
    4.5987    4.1212    7.4657 C   0  0  0  0  0  0  0  0  0  0  0  0
    3.8704    5.1413    8.0805 C   0  0  0  0  0  0  0  0  0  0  0  0
    3.5517    5.9912    7.4959 H   0  0  0  0  0  0  0  0  0  0  0  0
    3.5803    5.0652    9.4294 C   0  0  0  0  0  0  0  0  0  0  0  0
    3.0194    5.8597    9.8979 H   0  0  0  0  0  0  0  0  0  0  0  0
    4.0029    3.9778   10.1764 C   0  0  0  0  0  0  0  0  0  0  0  0
    3.7694    3.9203   11.2286 H   0  0  0  0  0  0  0  0  0  0  0  0
    4.7208    2.9598    9.5684 C   0  0  0  0  0  0  0  0  0  0  0  0
    5.0449    2.1064   10.1448 H   0  0  0  0  0  0  0  0  0  0  0  0
    5.0210    3.0255    8.2226 C   0  0  0  0  0  0  0  0  0  0  0  0
    5.5579    2.2253    7.7357 H   0  0  0  0  0  0  0  0  0  0  0  0
    4.3704    4.0255    2.3344 C   0  0  0  0  0  0  0  0  0  0  0  0
    3.5603    3.0316    1.7822 C   0  0  0  0  0  0  0  0  0  0  0  0
    3.2714    2.1861    2.3884 H   0  0  0  0  0  0  0  0  0  0  0  0
    3.1512    3.1275    0.4658 C   0  0  0  0  0  0  0  0  0  0  0  0
    2.5273    2.3533    0.0456 H   0  0  0  0  0  0  0  0  0  0  0  0
    3.5355    4.2089   -0.3101 C   0  0  0  0  0  0  0  0  0  0  0  0
    3.2087    4.2823   -1.3361 H   0  0  0  0  0  0  0  0  0  0  0  0
    4.3352    5.2006    0.2359 C   0  0  0  0  0  0  0  0  0  0  0  0
    4.6301    6.0495   -0.3624 H   0  0  0  0  0  0  0  0  0  0  0  0
    4.7543    5.1149    1.5484 C   0  0  0  0  0  0  0  0  0  0  0  0
    5.3560    5.8956    1.9891 H   0  0  0  0  0  0  0  0  0  0  0  0
  2  3  1  0  0  0  0
  3  1  1  0  0  0  0
  3  4  1  0  0  0  0
  4 16  1  0  0  0  0
  5  7  1  0  0  0  0
  5  3  1  0  0  0  0
  6  4  1  0  0  0  0
  6  8  1  0  0  0  0
  7  6  2  0  0  0  0
  8 11  1  0  0  0  0
  8  9  1  0  0  0  0
 10  8  1  0  0  0  0
 12 14  1  0  0  0  0
 12  7  1  0  0  0  0
 13 12  1  0  0  0  0
 15 12  1  0  0  0  0
 16 17  2  0  0  0  0
 16 25  1  0  0  0  0
 17 19  1  0  0  0  0
 18 17  1  0  0  0  0
 19 20  1  0  0  0  0
 19 21  2  0  0  0  0
 21 22  1  0  0  0  0
 23 24  1  0  0  0  0
 23 21  1  0  0  0  0
 25 23  2  0  0  0  0
 26 25  1  0  0  0  0
 27  5  1  0  0  0  0
 28 27  1  0  0  0  0
 28 29  1  0  0  0  0
 30 28  2  0  0  0  0
 31 30  1  0  0  0  0
 32 34  2  0  0  0  0
 32 30  1  0  0  0  0
 33 32  1  0  0  0  0
 34 36  1  0  0  0  0
 35 34  1  0  0  0  0
 36 37  1  0  0  0  0
 36 27  2  0  0  0  0
M  END
$$$$
