CSD_code = YOKWIH | q = 0 | S = 0 | Stoichiometry = C15H20ClFN5OS2Tc | MND = 5
 OpenBabel04212202123D

 46 48  0  0  1  0  0  0  0  0999 V2000
    2.4735   12.5742    2.9466 Tc  0  0  0  0  0  0  0  0  0  0  0  0
    1.3563   11.9492    1.0932 Cl  0  0  0  0  0  0  0  0  0  0  0  0
    4.2995   11.5336    1.9238 S   0  0  0  0  0  0  0  0  0  0  0  0
    1.1395   14.5151    2.6829 S   0  0  0  0  0  0  0  0  0  0  0  0
    6.8051   14.7212    9.2562 F   0  0  0  0  0  0  0  0  0  0  0  0
    1.9731   11.7471    4.2709 O   0  0  0  0  0  1  0  0  0  0  0  0
    1.2549   16.9650    3.6708 N   0  0  0  0  0  0  0  0  0  0  0  0
    2.7862   15.5635    4.5652 N   0  0  0  0  0  0  0  0  0  0  0  0
    3.9738   13.7265    3.6685 N   0  0  0  0  0  0  0  0  0  0  0  0
    5.2613   13.3003    3.6583 N   0  0  0  0  0  0  0  0  0  0  0  0
    6.8356   11.8937    2.7755 N   0  0  0  0  0  0  0  0  0  0  0  0
    3.1100   18.6014    3.8027 C   0  0  0  0  0  0  0  0  0  0  0  0
    3.8398   17.8118    3.6455 H   0  0  0  0  0  0  0  0  0  0  0  0
    3.5463   19.3581    4.4494 H   0  0  0  0  0  0  0  0  0  0  0  0
    2.8801   19.0579    2.8438 H   0  0  0  0  0  0  0  0  0  0  0  0
    1.8532   18.0294    4.4542 C   0  0  0  0  0  0  0  0  0  0  0  0
    2.1102   17.6149    5.4325 H   0  0  0  0  0  0  0  0  0  0  0  0
    1.1073   18.8153    4.5820 H   0  0  0  0  0  0  0  0  0  0  0  0
    0.1140   17.2579    2.8304 C   0  0  0  0  0  0  0  0  0  0  0  0
   -0.4427   18.0751    3.2948 H   0  0  0  0  0  0  0  0  0  0  0  0
   -0.5279   16.3741    2.8020 H   0  0  0  0  0  0  0  0  0  0  0  0
    0.5072   17.6388    1.4052 C   0  0  0  0  0  0  0  0  0  0  0  0
    1.1008   18.5492    1.3933 H   0  0  0  0  0  0  0  0  0  0  0  0
   -0.3890   17.8013    0.8131 H   0  0  0  0  0  0  0  0  0  0  0  0
    1.0802   16.8365    0.9488 H   0  0  0  0  0  0  0  0  0  0  0  0
    1.8146   15.7501    3.7050 C   0  0  1  0  0  3  0  0  0  0  0  0
    3.6979   14.6197    4.6297 C   0  0  0  0  0  0  0  0  0  0  0  0
    4.5385   14.6530    5.8421 C   0  0  0  0  0  0  0  0  0  0  0  0
    4.9008   15.8680    6.4161 C   0  0  0  0  0  0  0  0  0  0  0  0
    4.5864   16.7865    5.9477 H   0  0  0  0  0  0  0  0  0  0  0  0
    5.6676   15.8975    7.5653 C   0  0  0  0  0  0  0  0  0  0  0  0
    5.9664   16.8292    8.0190 H   0  0  0  0  0  0  0  0  0  0  0  0
    6.0536   14.6985    8.1380 C   0  0  0  0  0  0  0  0  0  0  0  0
    5.6871   13.4769    7.5992 C   0  0  0  0  0  0  0  0  0  0  0  0
    5.9916   12.5635    8.0849 H   0  0  0  0  0  0  0  0  0  0  0  0
    4.9279   13.4589    6.4461 C   0  0  0  0  0  0  0  0  0  0  0  0
    4.6117   12.5182    6.0214 H   0  0  0  0  0  0  0  0  0  0  0  0
    5.5654   12.3127    2.8884 C   0  0  0  0  0  0  0  0  0  0  0  0
    7.8594   12.4449    3.6305 C   0  0  0  0  0  0  0  0  0  0  0  0
    7.4632   13.3207    4.1363 H   0  0  0  0  0  0  0  0  0  0  0  0
    8.7248   12.7265    3.0274 H   0  0  0  0  0  0  0  0  0  0  0  0
    8.1743   11.7083    4.3751 H   0  0  0  0  0  0  0  0  0  0  0  0
    7.2151   10.7344    2.0119 C   0  0  0  0  0  0  0  0  0  0  0  0
    7.3964    9.8775    2.6682 H   0  0  0  0  0  0  0  0  0  0  0  0
    8.1314   10.9525    1.4605 H   0  0  0  0  0  0  0  0  0  0  0  0
    6.4286   10.4773    1.3074 H   0  0  0  0  0  0  0  0  0  0  0  0
  1  9  1  0  0  0  0
  1  6  1  0  0  0  0
  2  1  1  0  0  0  0
  3 38  1  0  0  0  0
  3  1  1  0  0  0  0
  4  1  1  0  0  0  0
  4 26  1  0  0  0  0
  7 16  1  0  0  0  0
  8 27  2  0  0  0  0
  9 27  1  0  0  0  0
 10  9  1  0  0  0  0
 11 38  1  0  0  0  0
 11 39  1  0  0  0  0
 12 14  1  0  0  0  0
 12 16  1  0  0  0  0
 13 12  1  0  0  0  0
 15 12  1  0  0  0  0
 16 18  1  0  0  0  0
 16 17  1  0  0  0  0
 19 20  1  0  0  0  0
 19  7  1  0  0  0  0
 21 19  1  0  0  0  0
 22 19  1  0  0  0  0
 23 22  1  0  0  0  0
 24 22  1  0  0  0  0
 25 22  1  0  0  0  0
 26  7  1  1  0  0  0
 26  8  1  0  0  0  0
 27 28  1  0  0  0  0
 28 29  2  0  0  0  0
 28 36  1  0  0  0  0
 29 31  1  0  0  0  0
 30 29  1  0  0  0  0
 31 32  1  0  0  0  0
 31 33  2  0  0  0  0
 33  5  1  0  0  0  0
 34 35  1  0  0  0  0
 34 33  1  0  0  0  0
 36 34  2  0  0  0  0
 37 36  1  0  0  0  0
 38 10  2  0  0  0  0
 39 40  1  0  0  0  0
 39 42  1  0  0  0  0
 41 39  1  0  0  0  0
 43 44  1  0  0  0  0
 43 11  1  0  0  0  0
 45 43  1  0  0  0  0
 46 43  1  0  0  0  0
M  END
$$$$
