CSD_code = YOLBUY | q = 0 | S = 0 | Stoichiometry = C27H27Cl2NNiP2 | MND = 4
 OpenBabel04212202123D

 60 64  0  0  0  0  0  0  0  0999 V2000
   16.6988    3.8752    2.5766 Ni  0  0  0  0  0  0  0  0  0  0  0  0
   15.1911    3.4009    1.1133 P   0  0  0  0  0  4  0  0  0  0  0  0
   15.0034    3.3534    3.7815 P   0  0  0  0  0  4  0  0  0  0  0  0
   18.1468    4.3534    1.1586 Cl  0  0  0  0  0  0  0  0  0  0  0  0
   17.7956    4.3891    4.2679 Cl  0  0  0  0  0  0  0  0  0  0  0  0
   14.0493    3.0821    2.3649 N   0  0  0  0  0  0  0  0  0  0  0  0
   14.5390    4.8340    0.1951 C   0  0  0  0  0  0  0  0  0  0  0  0
   13.5869    4.7249   -0.8120 C   0  0  0  0  0  0  0  0  0  0  0  0
   13.2363    3.7511   -1.1252 H   0  0  0  0  0  0  0  0  0  0  0  0
   13.0999    5.8691   -1.4179 C   0  0  0  0  0  0  0  0  0  0  0  0
   12.3596    5.7876   -2.2002 H   0  0  0  0  0  0  0  0  0  0  0  0
   13.5615    7.1167   -1.0281 C   0  0  0  0  0  0  0  0  0  0  0  0
   13.1785    8.0047   -1.5086 H   0  0  0  0  0  0  0  0  0  0  0  0
   14.5220    7.2267   -0.0351 C   0  0  0  0  0  0  0  0  0  0  0  0
   14.8935    8.1976    0.2561 H   0  0  0  0  0  0  0  0  0  0  0  0
   15.0106    6.0862    0.5740 C   0  0  0  0  0  0  0  0  0  0  0  0
   15.7865    6.1466    1.3336 H   0  0  0  0  0  0  0  0  0  0  0  0
   15.0532    2.0684   -0.1049 C   0  0  0  0  0  0  0  0  0  0  0  0
   14.3430    0.8893    0.0767 C   0  0  0  0  0  0  0  0  0  0  0  0
   13.7683    0.7347    0.9782 H   0  0  0  0  0  0  0  0  0  0  0  0
   14.3669   -0.0856   -0.9055 C   0  0  0  0  0  0  0  0  0  0  0  0
   13.8046   -0.9981   -0.7689 H   0  0  0  0  0  0  0  0  0  0  0  0
   15.1121    0.1039   -2.0573 C   0  0  0  0  0  0  0  0  0  0  0  0
   15.1306   -0.6625   -2.8178 H   0  0  0  0  0  0  0  0  0  0  0  0
   15.8451    1.2689   -2.2289 C   0  0  0  0  0  0  0  0  0  0  0  0
   16.4409    1.4075   -3.1188 H   0  0  0  0  0  0  0  0  0  0  0  0
   15.8210    2.2476   -1.2550 C   0  0  0  0  0  0  0  0  0  0  0  0
   16.4017    3.1551   -1.3605 H   0  0  0  0  0  0  0  0  0  0  0  0
   14.1645    4.6089    4.7972 C   0  0  0  0  0  0  0  0  0  0  0  0
   14.5366    5.9279    4.5599 C   0  0  0  0  0  0  0  0  0  0  0  0
   15.3239    6.1287    3.8412 H   0  0  0  0  0  0  0  0  0  0  0  0
   13.9351    6.9590    5.2570 C   0  0  0  0  0  0  0  0  0  0  0  0
   14.2307    7.9808    5.0732 H   0  0  0  0  0  0  0  0  0  0  0  0
   12.9618    6.6743    6.2008 C   0  0  0  0  0  0  0  0  0  0  0  0
   12.4912    7.4755    6.7508 H   0  0  0  0  0  0  0  0  0  0  0  0
   12.5981    5.3602    6.4512 C   0  0  0  0  0  0  0  0  0  0  0  0
   11.8463    5.1399    7.1950 H   0  0  0  0  0  0  0  0  0  0  0  0
   13.1963    4.3255    5.7549 C   0  0  0  0  0  0  0  0  0  0  0  0
   12.9155    3.3024    5.9633 H   0  0  0  0  0  0  0  0  0  0  0  0
   14.9612    1.8335    4.7639 C   0  0  0  0  0  0  0  0  0  0  0  0
   15.2353    1.9060    6.1276 C   0  0  0  0  0  0  0  0  0  0  0  0
   15.3828    2.8711    6.5923 H   0  0  0  0  0  0  0  0  0  0  0  0
   15.3330    0.7452    6.8723 C   0  0  0  0  0  0  0  0  0  0  0  0
   15.5371    0.8028    7.9311 H   0  0  0  0  0  0  0  0  0  0  0  0
   15.1806   -0.4892    6.2613 C   0  0  0  0  0  0  0  0  0  0  0  0
   15.2569   -1.3939    6.8459 H   0  0  0  0  0  0  0  0  0  0  0  0
   14.9591   -0.5654    4.8952 C   0  0  0  0  0  0  0  0  0  0  0  0
   14.8753   -1.5288    4.4134 H   0  0  0  0  0  0  0  0  0  0  0  0
   14.8656    0.5915    4.1452 C   0  0  0  0  0  0  0  0  0  0  0  0
   14.7350    0.5413    3.0732 H   0  0  0  0  0  0  0  0  0  0  0  0
   12.6020    3.0468    2.1708 C   0  0  0  0  0  0  0  0  0  0  0  0
   12.4543    2.7678    1.1181 H   0  0  0  0  0  0  0  0  0  0  0  0
   11.9470    4.4115    2.3913 C   0  0  0  0  0  0  0  0  0  0  0  0
   11.9355    4.6676    3.4469 H   0  0  0  0  0  0  0  0  0  0  0  0
   10.9223    4.3885    2.0278 H   0  0  0  0  0  0  0  0  0  0  0  0
   12.4881    5.1853    1.8518 H   0  0  0  0  0  0  0  0  0  0  0  0
   11.9518    1.9961    3.0644 C   0  0  0  0  0  0  0  0  0  0  0  0
   12.3226    0.9995    2.8396 H   0  0  0  0  0  0  0  0  0  0  0  0
   10.8743    2.0055    2.9186 H   0  0  0  0  0  0  0  0  0  0  0  0
   12.1640    2.2125    4.1084 H   0  0  0  0  0  0  0  0  0  0  0  0
  1  3  1  0  0  0  0
  1  5  1  0  0  0  0
  2  6  1  0  0  0  0
  2  1  1  0  0  0  0
  3 40  1  0  0  0  0
  3 29  1  0  0  0  0
  4  1  1  0  0  0  0
  6  3  1  0  0  0  0
  7 16  1  0  0  0  0
  7  2  1  0  0  0  0
  8  7  2  0  0  0  0
  9  8  1  0  0  0  0
 10 12  2  0  0  0  0
 10  8  1  0  0  0  0
 11 10  1  0  0  0  0
 12 14  1  0  0  0  0
 13 12  1  0  0  0  0
 14 15  1  0  0  0  0
 14 16  2  0  0  0  0
 16 17  1  0  0  0  0
 18 19  1  0  0  0  0
 18  2  1  0  0  0  0
 19 20  1  0  0  0  0
 21 22  1  0  0  0  0
 21 19  2  0  0  0  0
 23 21  1  0  0  0  0
 24 23  1  0  0  0  0
 25 23  2  0  0  0  0
 25 27  1  0  0  0  0
 26 25  1  0  0  0  0
 27 18  2  0  0  0  0
 28 27  1  0  0  0  0
 29 38  1  0  0  0  0
 30 29  2  0  0  0  0
 30 32  1  0  0  0  0
 31 30  1  0  0  0  0
 32 34  2  0  0  0  0
 33 32  1  0  0  0  0
 34 36  1  0  0  0  0
 34 35  1  0  0  0  0
 36 37  1  0  0  0  0
 38 39  1  0  0  0  0
 38 36  2  0  0  0  0
 40 41  1  0  0  0  0
 41 42  1  0  0  0  0
 41 43  2  0  0  0  0
 43 44  1  0  0  0  0
 45 46  1  0  0  0  0
 45 43  1  0  0  0  0
 47 45  2  0  0  0  0
 48 47  1  0  0  0  0
 49 40  2  0  0  0  0
 49 47  1  0  0  0  0
 50 49  1  0  0  0  0
 51  6  1  0  0  0  0
 51 53  1  0  0  0  0
 51 57  1  0  0  0  0
 52 51  1  0  0  0  0
 53 54  1  0  0  0  0
 55 53  1  0  0  0  0
 56 53  1  0  0  0  0
 57 60  1  0  0  0  0
 58 57  1  0  0  0  0
 59 57  1  0  0  0  0
M  END
$$$$
