CSD_code = YOLMOC | q = 1 | S = 0 | Stoichiometry = C20H27ClN3O2Pd(1+) | MND = 4
 OpenBabel04212202123D

 54 58  0  0  1  0  0  0  0  0999 V2000
   -2.3551    4.4842    9.4083 Pd  0  0  2  0  0  0  0  0  0  0  0  0
   -1.8011    2.3125    9.7070 Cl  0  0  0  0  0  0  0  0  0  0  0  0
   -0.8009    4.5331   11.7350 O   0  0  0  0  0  0  0  0  0  0  0  0
    0.0361    5.7949    9.3685 O   0  0  0  0  0  0  0  0  0  0  0  0
   -3.6823    4.7454   11.0797 N   0  0  1  0  0  4  0  0  0  0  0  0
   -4.3285    3.9791   10.8482 H   0  0  0  0  0  0  0  0  0  0  0  0
   -3.3842    6.2002    8.6140 N   0  0  2  0  0  4  0  0  0  0  0  0
   -2.8785    7.0806    8.7069 H   0  0  0  0  0  0  0  0  0  0  0  0
   -1.6190    4.3070    7.4678 N   0  0  1  0  0  4  0  0  0  0  0  0
   -2.1242    3.4361    7.2624 H   0  0  0  0  0  0  0  0  0  0  0  0
    0.5664    4.6681   11.4054 C   0  0  0  0  0  0  0  0  0  0  0  0
    0.8918    3.8290   10.7762 H   0  0  0  0  0  0  0  0  0  0  0  0
    1.1801    4.7165   12.3141 H   0  0  0  0  0  0  0  0  0  0  0  0
   -1.1855    3.4134   12.4310 C   0  0  0  0  0  0  0  0  0  0  0  0
   -0.3611    2.3498   12.7655 C   0  0  0  0  0  0  0  0  0  0  0  0
    0.6815    2.3446   12.4935 H   0  0  0  0  0  0  0  0  0  0  0  0
   -0.8887    1.2589   13.4381 C   0  0  0  0  0  0  0  0  0  0  0  0
   -0.2429    0.4302   13.6827 H   0  0  0  0  0  0  0  0  0  0  0  0
   -2.2250    1.2210   13.7888 C   0  0  0  0  0  0  0  0  0  0  0  0
   -2.6291    0.3645   14.3038 H   0  0  0  0  0  0  0  0  0  0  0  0
   -3.0428    2.2951   13.4804 C   0  0  0  0  0  0  0  0  0  0  0  0
   -4.0835    2.2826   13.7694 H   0  0  0  0  0  0  0  0  0  0  0  0
   -2.5332    3.3949   12.8133 C   0  0  0  0  0  0  0  0  0  0  0  0
   -3.3622    4.6105   12.5136 C   0  0  0  0  0  0  0  0  0  0  0  0
   -2.7920    5.4978   12.8069 H   0  0  0  0  0  0  0  0  0  0  0  0
   -4.2924    4.5801   13.0962 H   0  0  0  0  0  0  0  0  0  0  0  0
   -4.3522    6.0358   10.8450 C   0  0  0  0  0  0  0  0  0  0  0  0
   -5.2876    6.1001   11.4188 H   0  0  0  0  0  0  0  0  0  0  0  0
   -3.6812    6.8264   11.1999 H   0  0  0  0  0  0  0  0  0  0  0  0
   -4.6429    6.2508    9.3608 C   0  0  0  0  0  0  0  0  0  0  0  0
   -5.2918    5.4433    8.9993 H   0  0  0  0  0  0  0  0  0  0  0  0
   -5.1734    7.2015    9.2186 H   0  0  0  0  0  0  0  0  0  0  0  0
   -3.5233    5.8439    7.1965 C   0  0  0  0  0  0  0  0  0  0  0  0
   -3.9133    6.6789    6.5988 H   0  0  0  0  0  0  0  0  0  0  0  0
   -4.2333    5.0094    7.1226 H   0  0  0  0  0  0  0  0  0  0  0  0
   -2.1658    5.4017    6.6498 C   0  0  0  0  0  0  0  0  0  0  0  0
   -2.2643    5.0991    5.5991 H   0  0  0  0  0  0  0  0  0  0  0  0
   -1.4657    6.2418    6.6966 H   0  0  0  0  0  0  0  0  0  0  0  0
   -0.1944    4.0345    7.1918 C   0  0  0  0  0  0  0  0  0  0  0  0
    0.1605    3.3742    7.9918 H   0  0  0  0  0  0  0  0  0  0  0  0
   -0.0980    3.5049    6.2355 H   0  0  0  0  0  0  0  0  0  0  0  0
    0.6454    5.2819    7.1303 C   0  0  0  0  0  0  0  0  0  0  0  0
    1.3313    5.6130    5.9693 C   0  0  0  0  0  0  0  0  0  0  0  0
    1.2568    4.9635    5.1099 H   0  0  0  0  0  0  0  0  0  0  0  0
    2.1220    6.7467    5.9041 C   0  0  0  0  0  0  0  0  0  0  0  0
    2.6558    6.9805    4.9973 H   0  0  0  0  0  0  0  0  0  0  0  0
    2.2193    7.5782    7.0056 C   0  0  0  0  0  0  0  0  0  0  0  0
    2.8242    8.4700    6.9623 H   0  0  0  0  0  0  0  0  0  0  0  0
    1.5370    7.2727    8.1702 C   0  0  0  0  0  0  0  0  0  0  0  0
    1.6059    7.9340    9.0204 H   0  0  0  0  0  0  0  0  0  0  0  0
    0.7557    6.1249    8.2421 C   0  0  0  0  0  0  0  0  0  0  0  0
    0.6948    5.9685   10.6179 C   0  0  0  0  0  0  0  0  0  0  0  0
    0.2068    6.7797   11.1714 H   0  0  0  0  0  0  0  0  0  0  0  0
    1.7528    6.2000   10.4712 H   0  0  0  0  0  0  0  0  0  0  0  0
  1  2  1  6  0  0  0
  1  5  1  0  0  0  0
  3 14  1  0  0  0  0
  4 52  1  0  0  0  0
  5  6  1  6  0  0  0
  5 24  1  0  0  0  0
  7  8  1  1  0  0  0
  7 30  1  0  0  0  0
  7  1  1  0  0  0  0
  9 10  1  6  0  0  0
  9  1  1  0  0  0  0
 11  3  1  0  0  0  0
 11 13  1  0  0  0  0
 12 11  1  0  0  0  0
 14 15  2  0  0  0  0
 14 23  1  0  0  0  0
 15 17  1  0  0  0  0
 16 15  1  0  0  0  0
 17 18  1  0  0  0  0
 17 19  2  0  0  0  0
 19 20  1  0  0  0  0
 21 22  1  0  0  0  0
 21 19  1  0  0  0  0
 23 21  2  0  0  0  0
 24 25  1  0  0  0  0
 24 23  1  0  0  0  0
 24 26  1  0  0  0  0
 27  5  1  0  0  0  0
 27 29  1  0  0  0  0
 27 28  1  0  0  0  0
 30 27  1  0  0  0  0
 31 30  1  0  0  0  0
 32 30  1  0  0  0  0
 33  7  1  0  0  0  0
 34 33  1  0  0  0  0
 35 33  1  0  0  0  0
 36 38  1  0  0  0  0
 36 33  1  0  0  0  0
 36  9  1  0  0  0  0
 37 36  1  0  0  0  0
 39  9  1  0  0  0  0
 39 40  1  0  0  0  0
 41 39  1  0  0  0  0
 42 39  1  0  0  0  0
 42 51  1  0  0  0  0
 43 42  2  0  0  0  0
 44 43  1  0  0  0  0
 45 43  1  0  0  0  0
 45 47  2  0  0  0  0
 46 45  1  0  0  0  0
 47 49  1  0  0  0  0
 48 47  1  0  0  0  0
 49 51  2  0  0  0  0
 49 50  1  0  0  0  0
 51  4  1  0  0  0  0
 52 53  1  0  0  0  0
 52 11  1  0  0  0  0
 54 52  1  0  0  0  0
M  END
$$$$
