CSD_code = YOLRIB | q = 0 | S = 0 | Stoichiometry = C14H10Cl2NRh | MND = 8
 OpenBabel04212202123D

 28 29  0  0  1  0  0  0  0  0999 V2000
    2.0036    0.0248    1.8608 Rh  0  0  0  0  0  0  0  0  0  0  0  0
    2.2060   -2.0558    0.9643 Cl  0  0  0  0  0 15  0  0  0  0  0  0
    0.5275   -0.8615    3.3469 Cl  0  0  0  0  0 15  0  0  0  0  0  0
    3.4945   -0.3500    3.0933 N   0  0  0  0  0  0  0  0  0  0  0  0
    4.2059    1.8655    2.4659 C   0  0  0  0  0  0  0  0  0  0  0  0
    4.4037    0.6724    3.2075 C   0  0  2  0  0  3  0  0  0  0  0  0
    3.6733   -1.4576    3.7799 C   0  0  0  0  0  0  0  0  0  0  0  0
    4.7675   -1.6443    4.6353 C   0  0  0  0  0  0  0  0  0  0  0  0
    5.6974   -0.6505    4.7759 C   0  0  0  0  0  0  0  0  0  0  0  0
    5.5341    0.5513    4.0534 C   0  0  0  0  0  0  0  0  0  0  0  0
    6.4370    1.6319    4.1317 C   0  0  0  0  0  0  0  0  0  0  0  0
    6.2266    2.7736    3.4074 C   0  0  0  0  0  0  0  0  0  0  0  0
    5.1083    2.8947    2.5707 C   0  0  0  0  0  0  0  0  0  0  0  0
    2.9956    1.8901    1.6127 C   0  0  1  0  0  0  0  0  0  0  0  0
    2.8972    1.3176    0.3117 C   0  0  0  0  0  3  0  0  0  0  0  0
    1.5149    1.3122   -0.0501 C   0  0  0  0  0  0  0  0  0  0  0  0
    0.7746    1.8480    1.0152 C   0  0  0  0  0  0  0  0  0  0  0  0
    1.6792    2.1975    2.0644 C   0  0  0  0  0  3  0  0  0  0  0  0
    2.9296   -2.2332    3.6563 H   0  0  0  0  0  0  0  0  0  0  0  0
    4.8556   -2.5762    5.1698 H   0  0  0  0  0  0  0  0  0  0  0  0
    6.5519   -0.7652    5.4259 H   0  0  0  0  0  0  0  0  0  0  0  0
    7.2981    1.5376    4.7758 H   0  0  0  0  0  0  0  0  0  0  0  0
    6.9236    3.5948    3.4744 H   0  0  0  0  0  0  0  0  0  0  0  0
    4.9541    3.8010    2.0046 H   0  0  0  0  0  0  0  0  0  0  0  0
    3.7250    1.0767   -0.3365 H   0  0  0  0  0  0  0  0  0  0  0  0
    1.1220    1.0146   -1.0090 H   0  0  0  0  0  0  0  0  0  0  0  0
   -0.2876    2.0331    1.0195 H   0  0  0  0  0  0  0  0  0  0  0  0
    1.4300    2.7347    2.9658 H   0  0  0  0  0  0  0  0  0  0  0  0
  1  4  1  0  0  0  0
  4  6  1  0  0  0  0
  4  7  1  0  0  0  0
  5 13  2  0  0  0  0
  6  5  1  6  0  0  0
  6 10  1  0  0  0  0
  7  8  2  0  0  0  0
  8  9  1  0  0  0  0
  8 20  1  0  0  0  0
  9 21  1  0  0  0  0
 10 11  1  0  0  0  0
 10  9  2  0  0  0  0
 11 22  1  0  0  0  0
 12 23  1  0  0  0  0
 12 11  2  0  0  0  0
 13 12  1  0  0  0  0
 14 15  1  6  0  0  0
 14  1  1  0  0  0  0
 14 18  1  0  0  0  0
 14  5  1  0  0  0  0
 16 15  1  0  0  0  0
 16 17  2  0  0  0  0
 17 27  1  0  0  0  0
 17 18  1  0  0  0  0
 18 28  1  0  0  0  0
 19  7  1  0  0  0  0
 24 13  1  0  0  0  0
 25 15  1  0  0  0  0
 26 16  1  0  0  0  0
M  END
$$$$
