CSD_code = YOMTOL | q = 0 | S = 0 | Stoichiometry = C9H12AuBr3N2O4 | MND = 4
 OpenBabel04212202123D

 31 31  0  0  1  0  0  0  0  0999 V2000
    3.4729    0.0516    3.9292 Au  0  0  0  0  0  0  0  0  0  0  0  0
    5.7114    0.8252    3.2672 Br  0  0  0  0  0  0  0  0  0  0  0  0
    2.7899    2.2810    4.5304 Br  0  0  0  0  0  0  0  0  0  0  0  0
    1.2575   -0.8732    4.4327 Br  0  0  0  0  0  0  0  0  0  0  0  0
    4.7158   -0.4007    6.2094 O   0  0  0  0  0  0  0  0  0  0  0  0
    5.3680    0.2562    6.5187 H   0  0  0  0  0  0  0  0  0  0  0  0
    6.1726   -1.9629    6.8732 O   0  0  0  0  0  0  0  0  0  0  0  0
    3.1159   -3.6284    0.2782 O   0  0  0  0  0  0  0  0  0  0  0  0
    2.7761   -1.6892   -0.7816 O   0  0  0  0  0  0  0  0  0  0  0  0
    2.1765   -2.1955   -1.3547 H   0  0  0  0  0  0  0  0  0  0  0  0
    4.3535   -2.7866    4.3915 N   0  0  0  0  0  0  0  0  0  0  0  0
    4.4585   -2.3133    2.2905 N   0  0  0  0  0  0  0  0  0  0  0  0
    4.0939   -1.8327    3.4849 C   0  0  0  0  0  0  0  0  0  0  0  0
    4.8915   -3.8749    3.7607 C   0  0  0  0  0  0  0  0  0  0  0  0
    5.1870   -4.7610    4.2788 H   0  0  0  0  0  0  0  0  0  0  0  0
    4.9522   -3.5788    2.4401 C   0  0  0  0  0  0  0  0  0  0  0  0
    5.2814   -4.1701    1.6131 H   0  0  0  0  0  0  0  0  0  0  0  0
    4.0970   -2.6516    5.8169 C   0  0  2  0  0  0  0  0  0  0  0  0
    3.0997   -2.2122    5.9372 H   0  0  0  0  0  0  0  0  0  0  0  0
    5.1313   -1.6596    6.3787 C   0  0  0  0  0  0  0  0  0  0  0  0
    4.1775   -3.9762    6.5571 C   0  0  0  0  0  0  0  0  0  0  0  0
    3.5300   -4.7129    6.0894 H   0  0  0  0  0  0  0  0  0  0  0  0
    3.8428   -3.8257    7.5800 H   0  0  0  0  0  0  0  0  0  0  0  0
    5.2023   -4.3381    6.5890 H   0  0  0  0  0  0  0  0  0  0  0  0
    4.2869   -1.6448    1.0233 C   0  0  2  0  0  0  0  0  0  0  0  0
    3.8414   -0.6606    1.2005 H   0  0  0  0  0  0  0  0  0  0  0  0
    3.3236   -2.4556    0.1489 C   0  0  0  0  0  0  0  0  0  0  0  0
    5.6190   -1.4726    0.2896 C   0  0  0  0  0  0  0  0  0  0  0  0
    6.3065   -0.9010    0.9088 H   0  0  0  0  0  0  0  0  0  0  0  0
    5.4503   -0.9283   -0.6351 H   0  0  0  0  0  0  0  0  0  0  0  0
    6.0623   -2.4373    0.0571 H   0  0  0  0  0  0  0  0  0  0  0  0
  1  4  1  0  0  0  0
  1  3  1  0  0  0  0
  2  1  1  0  0  0  0
  5 20  1  0  0  0  0
  5  6  1  0  0  0  0
  9 27  1  0  0  0  0
 10  9  1  0  0  0  0
 11 18  1  0  0  0  0
 12 16  1  0  0  0  0
 12 13  1  0  0  0  0
 13  1  2  0  0  0  0
 13 11  1  0  0  0  0
 14 15  1  0  0  0  0
 14 11  1  0  0  0  0
 16 14  2  0  0  0  0
 17 16  1  0  0  0  0
 18 19  1  1  0  0  0
 18 20  1  0  0  0  0
 18 21  1  0  0  0  0
 20  7  2  0  0  0  0
 21 24  1  0  0  0  0
 21 23  1  0  0  0  0
 22 21  1  0  0  0  0
 25 26  1  1  0  0  0
 25 12  1  0  0  0  0
 27  8  2  0  0  0  0
 27 25  1  0  0  0  0
 28 29  1  0  0  0  0
 28 25  1  0  0  0  0
 30 28  1  0  0  0  0
 31 28  1  0  0  0  0
M  END
$$$$
