CSD_code = YOMTUR | q = 0 | S = 0 | Stoichiometry = C9H12AuBr3N2O4 | MND = 4
 OpenBabel04212202123D

 31 31  0  0  1  0  0  0  0  0999 V2000
    1.8118    4.7836   10.0008 Au  0  0  0  0  0  0  0  0  0  0  0  0
   -0.4276    5.5388    9.3322 Br  0  0  0  0  0  0  0  0  0  0  0  0
    2.8822    6.7480    9.1074 Br  0  0  0  0  0  0  0  0  0  0  0  0
    3.9344    3.8404   10.8111 Br  0  0  0  0  0  0  0  0  0  0  0  0
    1.1777   -0.3333    8.8561 O   0  0  0  0  0  0  0  0  0  0  0  0
    1.8036    0.8243    7.0496 O   0  0  0  0  0  0  0  0  0  0  0  0
    2.2501    0.0060    6.7743 H   0  0  0  0  0  0  0  0  0  0  0  0
    2.1618    1.7624   14.0878 O   0  0  0  0  0  0  0  0  0  0  0  0
    2.9479    3.8039   14.5600 O   0  0  0  0  0  0  0  0  0  0  0  0
    3.6386    3.3450   15.0661 H   0  0  0  0  0  0  0  0  0  0  0  0
    0.4159    2.0970   10.0433 N   0  0  0  0  0  0  0  0  0  0  0  0
    0.6618    2.8711   12.0379 N   0  0  0  0  0  0  0  0  0  0  0  0
    0.9040    3.1248   10.7471 C   0  0  0  0  0  0  0  0  0  0  0  0
   -0.1281    1.1776   10.8986 C   0  0  0  0  0  0  0  0  0  0  0  0
   -0.5508    0.2577   10.5559 H   0  0  0  0  0  0  0  0  0  0  0  0
    0.0316    1.6623   12.1535 C   0  0  0  0  0  0  0  0  0  0  0  0
   -0.2281    1.2384   13.0994 H   0  0  0  0  0  0  0  0  0  0  0  0
    0.4640    1.9690    8.6066 C   0  0  1  0  0  0  0  0  0  0  0  0
    1.0282    2.8137    8.1970 H   0  0  0  0  0  0  0  0  0  0  0  0
    1.1895    0.6772    8.2140 C   0  0  0  0  0  0  0  0  0  0  0  0
   -0.9439    1.9584    8.0045 C   0  0  0  0  0  0  0  0  0  0  0  0
   -0.8742    1.9048    6.9218 H   0  0  0  0  0  0  0  0  0  0  0  0
   -1.4637    2.8752    8.2743 H   0  0  0  0  0  0  0  0  0  0  0  0
   -1.5099    1.1040    8.3667 H   0  0  0  0  0  0  0  0  0  0  0  0
    1.0685    3.7025   13.1445 C   0  0  2  0  0  0  0  0  0  0  0  0
    1.5316    4.6127   12.7501 H   0  0  0  0  0  0  0  0  0  0  0  0
    2.1243    2.9534   13.9744 C   0  0  0  0  0  0  0  0  0  0  0  0
   -0.1178    4.0783   14.0329 C   0  0  0  0  0  0  0  0  0  0  0  0
   -0.8853    4.5683   13.4375 H   0  0  0  0  0  0  0  0  0  0  0  0
    0.2155    4.7643   14.8066 H   0  0  0  0  0  0  0  0  0  0  0  0
   -0.5435    3.1969   14.5055 H   0  0  0  0  0  0  0  0  0  0  0  0
  1 13  2  0  0  0  0
  1  4  1  0  0  0  0
  2  1  1  0  0  0  0
  3  1  1  0  0  0  0
  6 20  1  0  0  0  0
  7  6  1  0  0  0  0
  9 10  1  0  0  0  0
 11 13  1  0  0  0  0
 11 14  1  0  0  0  0
 12 16  1  0  0  0  0
 12 25  1  0  0  0  0
 13 12  1  0  0  0  0
 14 16  2  0  0  0  0
 15 14  1  0  0  0  0
 16 17  1  0  0  0  0
 18 19  1  6  0  0  0
 18 11  1  0  0  0  0
 20 18  1  0  0  0  0
 20  5  2  0  0  0  0
 21 23  1  0  0  0  0
 21 24  1  0  0  0  0
 21 18  1  0  0  0  0
 22 21  1  0  0  0  0
 25 26  1  6  0  0  0
 25 27  1  0  0  0  0
 25 28  1  0  0  0  0
 27  8  2  0  0  0  0
 27  9  1  0  0  0  0
 28 31  1  0  0  0  0
 28 30  1  0  0  0  0
 29 28  1  0  0  0  0
M  END
$$$$
