CSD_code = YOMXED | q = 0 | S = 0 | Stoichiometry = C18H24Br2MoN2O2 | MND = 6
 OpenBabel04212202123D

 49 51  0  0  0  0  0  0  0  0999 V2000
    8.2014    3.3320    9.9267 Mo  0  0  0  0  0  0  0  0  0  0  0  0
    7.9394    3.3320   12.4216 Br  0  0  0  0  0  0  0  0  0  0  0  0
    9.5251    3.3320    7.7966 Br  0  0  0  0  0  0  0  0  0  0  0  0
    7.3427    1.9697    9.6322 O   0  0  0  0  0  1  0  0  0  0  0  0
    9.9592    2.0430   10.5290 N   0  0  0  0  0  0  0  0  0  0  0  0
   11.1105    2.5969   10.9388 C   0  0  0  0  0  0  0  0  0  0  0  0
   12.1995    1.8202   11.3212 C   0  0  0  0  0  0  0  0  0  0  0  0
   12.1230    0.4323   11.2840 C   0  0  0  0  0  0  0  0  0  0  0  0
   10.9137   -0.1121   10.8493 C   0  0  0  0  0  0  0  0  0  0  0  0
    9.8722    0.7187   10.4886 C   0  0  0  0  0  0  0  0  0  0  0  0
   13.2720   -0.4723   11.6762 C   0  0  0  0  0  0  0  0  0  0  0  0
   12.8033   -1.4085   12.7994 C   0  0  0  0  0  0  0  0  0  0  0  0
   14.4919    0.3081   12.1715 C   0  0  0  0  0  0  0  0  0  0  0  0
   13.6811   -1.2928   10.4440 C   0  0  0  0  0  0  0  0  0  0  0  0
   13.1020    2.3057   11.6457 H   0  0  0  0  0  0  0  0  0  0  0  0
   10.7695   -1.1777   10.7875 H   0  0  0  0  0  0  0  0  0  0  0  0
    8.9221    0.3202   10.1500 H   0  0  0  0  0  0  0  0  0  0  0  0
   13.6289   -2.0389   13.1202 H   0  0  0  0  0  0  0  0  0  0  0  0
   11.9939   -2.0538   12.4715 H   0  0  0  0  0  0  0  0  0  0  0  0
   12.4573   -0.8320   13.6545 H   0  0  0  0  0  0  0  0  0  0  0  0
   15.2778   -0.3917   12.4450 H   0  0  0  0  0  0  0  0  0  0  0  0
   14.8853    0.9601   11.3949 H   0  0  0  0  0  0  0  0  0  0  0  0
   14.2490    0.8977   13.0528 H   0  0  0  0  0  0  0  0  0  0  0  0
   13.9901   -0.6343    9.6350 H   0  0  0  0  0  0  0  0  0  0  0  0
   12.8622   -1.9106   10.0870 H   0  0  0  0  0  0  0  0  0  0  0  0
   14.5144   -1.9439   10.6963 H   0  0  0  0  0  0  0  0  0  0  0  0
    7.3427    4.6943    9.6322 O   0  0  0  0  0  1  0  0  0  0  0  0
    9.9592    4.6210   10.5290 N   0  0  0  0  0  0  0  0  0  0  0  0
   11.1105    4.0671   10.9388 C   0  0  0  0  0  0  0  0  0  0  0  0
    9.8722    5.9453   10.4886 C   0  0  0  0  0  0  0  0  0  0  0  0
   12.1995    4.8438   11.3212 C   0  0  0  0  0  0  0  0  0  0  0  0
   10.9137    6.7761   10.8493 C   0  0  0  0  0  0  0  0  0  0  0  0
    8.9221    6.3438   10.1500 H   0  0  0  0  0  0  0  0  0  0  0  0
   12.1230    6.2317   11.2840 C   0  0  0  0  0  0  0  0  0  0  0  0
   13.1020    4.3583   11.6457 H   0  0  0  0  0  0  0  0  0  0  0  0
   10.7695    7.8417   10.7875 H   0  0  0  0  0  0  0  0  0  0  0  0
   13.2720    7.1363   11.6762 C   0  0  0  0  0  0  0  0  0  0  0  0
   12.8033    8.0725   12.7994 C   0  0  0  0  0  0  0  0  0  0  0  0
   14.4919    6.3559   12.1715 C   0  0  0  0  0  0  0  0  0  0  0  0
   13.6811    7.9568   10.4440 C   0  0  0  0  0  0  0  0  0  0  0  0
   13.6289    8.7029   13.1202 H   0  0  0  0  0  0  0  0  0  0  0  0
   11.9939    8.7178   12.4715 H   0  0  0  0  0  0  0  0  0  0  0  0
   12.4573    7.4960   13.6545 H   0  0  0  0  0  0  0  0  0  0  0  0
   15.2778    7.0557   12.4450 H   0  0  0  0  0  0  0  0  0  0  0  0
   14.8853    5.7039   11.3949 H   0  0  0  0  0  0  0  0  0  0  0  0
   14.2490    5.7663   13.0528 H   0  0  0  0  0  0  0  0  0  0  0  0
   13.9901    7.2983    9.6350 H   0  0  0  0  0  0  0  0  0  0  0  0
   12.8622    8.5746   10.0870 H   0  0  0  0  0  0  0  0  0  0  0  0
   14.5144    8.6079   10.6963 H   0  0  0  0  0  0  0  0  0  0  0  0
  1  5  1  0  0  0  0
  1 28  1  0  0  0  0
  1  2  1  0  0  0  0
  3  1  1  0  0  0  0
  4  1  1  0  0  0  0
  5  6  1  0  0  0  0
  6 29  2  0  0  0  0
  6  7  1  0  0  0  0
  7 15  1  0  0  0  0
  8  7  2  0  0  0  0
  8 11  1  0  0  0  0
  9  8  1  0  0  0  0
 10  5  1  0  0  0  0
 10  9  2  0  0  0  0
 11 13  1  0  0  0  0
 11 12  1  0  0  0  0
 12 18  1  0  0  0  0
 12 20  1  0  0  0  0
 13 21  1  0  0  0  0
 13 23  1  0  0  0  0
 14 26  1  0  0  0  0
 14 11  1  0  0  0  0
 16  9  1  0  0  0  0
 17 10  1  0  0  0  0
 19 12  1  0  0  0  0
 22 13  1  0  0  0  0
 24 14  1  0  0  0  0
 25 14  1  0  0  0  0
 27  1  1  0  0  0  0
 28 29  1  0  0  0  0
 29 31  1  0  0  0  0
 30 28  1  0  0  0  0
 30 32  2  0  0  0  0
 31 35  1  0  0  0  0
 32 34  1  0  0  0  0
 33 30  1  0  0  0  0
 34 31  2  0  0  0  0
 34 37  1  0  0  0  0
 36 32  1  0  0  0  0
 37 39  1  0  0  0  0
 37 38  1  0  0  0  0
 38 41  1  0  0  0  0
 38 43  1  0  0  0  0
 39 44  1  0  0  0  0
 39 46  1  0  0  0  0
 40 49  1  0  0  0  0
 40 37  1  0  0  0  0
 42 38  1  0  0  0  0
 45 39  1  0  0  0  0
 47 40  1  0  0  0  0
 48 40  1  0  0  0  0
M  END
$$$$
