CSD_code = YONNOF | q = 0 | S = 0 | Stoichiometry = C23H37Cl2N2PPd | MND = 4
 OpenBabel04212202123D

 66 68  0  0  1  0  0  0  0  0999 V2000
    1.6533    3.3332    2.2547 C   0  0  2  0  0  3  0  0  0  0  0  0
    2.7366    2.5870    0.5016 C   0  0  0  0  0  0  0  0  0  0  0  0
    2.9864    1.9228   -0.3002 H   0  0  0  0  0  0  0  0  0  0  0  0
    3.2622    3.7955    0.8611 C   0  0  0  0  0  0  0  0  0  0  0  0
    4.0623    4.3583    0.4225 H   0  0  0  0  0  0  0  0  0  0  0  0
    0.9108    1.1330    1.2370 C   0  0  0  0  0  0  0  0  0  0  0  0
   -0.1724    1.1778    0.3492 C   0  0  0  0  0  0  0  0  0  0  0  0
   -0.9783    0.0513    0.2433 C   0  0  0  0  0  0  0  0  0  0  0  0
   -1.8229    0.0635   -0.4261 H   0  0  0  0  0  0  0  0  0  0  0  0
   -0.7030   -1.0895    0.9708 C   0  0  0  0  0  0  0  0  0  0  0  0
   -1.3454   -1.9524    0.8831 H   0  0  0  0  0  0  0  0  0  0  0  0
    0.4199   -1.1454    1.7735 C   0  0  0  0  0  0  0  0  0  0  0  0
    0.6576   -2.0618    2.2878 H   0  0  0  0  0  0  0  0  0  0  0  0
    1.2549   -0.0444    1.9122 C   0  0  0  0  0  0  0  0  0  0  0  0
   -0.4072    2.3602   -0.5631 C   0  0  0  0  0  0  0  0  0  0  0  0
    0.1519    3.2238   -0.1888 H   0  0  0  0  0  0  0  0  0  0  0  0
    0.1405    2.0178   -1.9542 C   0  0  0  0  0  0  0  0  0  0  0  0
    1.2009    1.7816   -1.9122 H   0  0  0  0  0  0  0  0  0  0  0  0
    0.0046    2.8635   -2.6237 H   0  0  0  0  0  0  0  0  0  0  0  0
   -0.3842    1.1594   -2.3674 H   0  0  0  0  0  0  0  0  0  0  0  0
   -1.8802    2.7569   -0.6756 C   0  0  0  0  0  0  0  0  0  0  0  0
   -2.3359    2.8641    0.3043 H   0  0  0  0  0  0  0  0  0  0  0  0
   -2.4429    2.0180   -1.2398 H   0  0  0  0  0  0  0  0  0  0  0  0
   -1.9608    3.7068   -1.1989 H   0  0  0  0  0  0  0  0  0  0  0  0
    2.5576   -0.1619    2.6696 C   0  0  0  0  0  0  0  0  0  0  0  0
    2.8462    0.8287    3.0338 H   0  0  0  0  0  0  0  0  0  0  0  0
    2.4895   -1.1156    3.8637 C   0  0  0  0  0  0  0  0  0  0  0  0
    1.5909   -0.9552    4.4529 H   0  0  0  0  0  0  0  0  0  0  0  0
    3.3541   -0.9574    4.5039 H   0  0  0  0  0  0  0  0  0  0  0  0
    2.5073   -2.1514    3.5340 H   0  0  0  0  0  0  0  0  0  0  0  0
    3.6454   -0.6439    1.7011 C   0  0  0  0  0  0  0  0  0  0  0  0
    3.8044    0.0698    0.8972 H   0  0  0  0  0  0  0  0  0  0  0  0
    3.3629   -1.5989    1.2630 H   0  0  0  0  0  0  0  0  0  0  0  0
    4.5844   -0.7706    2.2344 H   0  0  0  0  0  0  0  0  0  0  0  0
    1.3017    3.0618    5.2148 C   0  0  0  0  0  0  0  0  0  0  0  0
    0.6754    1.6734    5.2567 C   0  0  0  0  0  0  0  0  0  0  0  0
    1.2157    1.0466    5.9645 H   0  0  0  0  0  0  0  0  0  0  0  0
    0.7020    1.2001    4.2774 H   0  0  0  0  0  0  0  0  0  0  0  0
   -0.3602    1.7269    5.5838 H   0  0  0  0  0  0  0  0  0  0  0  0
    2.8319    3.0030    5.1323 C   0  0  0  0  0  0  0  0  0  0  0  0
    3.2428    2.5914    6.0525 H   0  0  0  0  0  0  0  0  0  0  0  0
    3.2418    4.0205    4.9995 H   0  0  0  0  0  0  0  0  0  0  0  0
    3.1716    2.3842    4.3026 H   0  0  0  0  0  0  0  0  0  0  0  0
    0.9326    3.8950    6.4436 C   0  0  0  0  0  0  0  0  0  0  0  0
    1.4447    3.5074    7.3226 H   0  0  0  0  0  0  0  0  0  0  0  0
   -0.1351    3.8717    6.6417 H   0  0  0  0  0  0  0  0  0  0  0  0
    1.2383    4.9345    6.2961 H   0  0  0  0  0  0  0  0  0  0  0  0
   -1.0024    4.2450    3.3418 C   0  0  0  0  0  0  0  0  0  0  0  0
   -1.0020    5.1328    2.0915 C   0  0  0  0  0  0  0  0  0  0  0  0
   -2.0139    5.4532    1.8501 H   0  0  0  0  0  0  0  0  0  0  0  0
   -0.5961    4.6060    1.2296 H   0  0  0  0  0  0  0  0  0  0  0  0
   -0.3903    6.0324    2.2708 H   0  0  0  0  0  0  0  0  0  0  0  0
   -1.6176    5.0387    4.4948 C   0  0  0  0  0  0  0  0  0  0  0  0
   -2.5785    5.4508    4.1916 H   0  0  0  0  0  0  0  0  0  0  0  0
   -0.9600    5.8665    4.7711 H   0  0  0  0  0  0  0  0  0  0  0  0
   -1.7842    4.4110    5.3665 H   0  0  0  0  0  0  0  0  0  0  0  0
   -1.7343    2.9298    3.1075 C   0  0  0  0  0  0  0  0  0  0  0  0
   -2.7412    3.1330    2.7440 H   0  0  0  0  0  0  0  0  0  0  0  0
   -1.8251    2.3626    4.0298 H   0  0  0  0  0  0  0  0  0  0  0  0
   -1.2192    2.3109    2.3756 H   0  0  0  0  0  0  0  0  0  0  0  0
    1.5917    7.2811    4.7842 Cl  0  0  0  0  0  0  0  0  0  0  0  0
    3.8092    7.1383    2.4349 Cl  0  0  0  0  0  0  0  0  0  0  0  0
    2.5821    4.2354    1.9355 N   0  0  0  0  0  0  0  0  0  0  0  0
    1.7276    2.2936    1.3776 N   0  0  0  0  0  0  0  0  0  0  0  0
    0.8247    4.0932    3.7221 P   0  0  0  0  0  4  0  0  0  0  0  0
    2.2155    5.7880    3.2677 Pd  0  0  0  0  0  0  0  0  0  0  0  0
  1 64  1  6  0  0  0
  1 65  1  0  0  0  0
  2  4  2  0  0  0  0
  2 64  1  0  0  0  0
  3  2  1  0  0  0  0
  4 63  1  0  0  0  0
  5  4  1  0  0  0  0
  6 64  1  0  0  0  0
  6 14  1  0  0  0  0
  7  6  2  0  0  0  0
  8  7  1  0  0  0  0
  8 10  2  0  0  0  0
  9  8  1  0  0  0  0
 10 12  1  0  0  0  0
 11 10  1  0  0  0  0
 12 14  2  0  0  0  0
 12 13  1  0  0  0  0
 14 25  1  0  0  0  0
 15 16  1  0  0  0  0
 15  7  1  0  0  0  0
 17 18  1  0  0  0  0
 17 15  1  0  0  0  0
 19 17  1  0  0  0  0
 20 17  1  0  0  0  0
 21 15  1  0  0  0  0
 21 22  1  0  0  0  0
 23 21  1  0  0  0  0
 24 21  1  0  0  0  0
 25 26  1  0  0  0  0
 25 27  1  0  0  0  0
 27 28  1  0  0  0  0
 27 29  1  0  0  0  0
 30 27  1  0  0  0  0
 31 34  1  0  0  0  0
 31 25  1  0  0  0  0
 32 31  1  0  0  0  0
 33 31  1  0  0  0  0
 35 36  1  0  0  0  0
 35 44  1  0  0  0  0
 36 39  1  0  0  0  0
 36 37  1  0  0  0  0
 38 36  1  0  0  0  0
 40 35  1  0  0  0  0
 40 41  1  0  0  0  0
 42 40  1  0  0  0  0
 43 40  1  0  0  0  0
 44 46  1  0  0  0  0
 44 45  1  0  0  0  0
 47 44  1  0  0  0  0
 48 65  1  0  0  0  0
 48 53  1  0  0  0  0
 49 52  1  0  0  0  0
 49 48  1  0  0  0  0
 50 49  1  0  0  0  0
 51 49  1  0  0  0  0
 53 55  1  0  0  0  0
 53 56  1  0  0  0  0
 54 53  1  0  0  0  0
 57 48  1  0  0  0  0
 57 59  1  0  0  0  0
 58 57  1  0  0  0  0
 60 57  1  0  0  0  0
 62 66  1  0  0  0  0
 63  1  1  0  0  0  0
 63 66  1  0  0  0  0
 65 35  1  0  0  0  0
 66 65  1  0  0  0  0
 66 61  1  0  0  0  0
M  END
$$$$
