CSD_code = YONYUX | q = 0 | S = 0 | Stoichiometry = C18H16Br2I2N6Zn | MND = 4
 OpenBabel04212202123D

 45 48  0  0  0  0  0  0  0  0999 V2000
    2.6108    0.6215    5.1496 N   0  0  0  0  0  2  0  0  0  0  0  0
    4.5767   -1.0502   11.6348 I   0  0  0  0  0  0  0  0  0  0  0  0
    3.5694    1.7499   -5.3540 I   0  0  0  0  0  0  0  0  0  0  0  0
   -0.1409    0.4227    1.8560 Br  0  0  0  0  0  0  0  0  0  0  0  0
    0.7369    1.7677    3.5917 Zn  0  0  0  0  0  0  0  0  0  0  0  0
    0.2781    2.8339    5.6371 Br  0  0  0  0  0  0  0  0  0  0  0  0
    1.9641    1.9541   -1.3173 C   0  0  0  0  0  0  0  0  0  0  0  0
    1.5194    1.2700   -0.6100 H   0  0  0  0  0  0  0  0  0  0  0  0
    0.7017    4.5709    2.0074 C   0  0  0  0  0  0  0  0  0  0  0  0
    0.1518    5.1568    2.7149 H   0  0  0  0  0  0  0  0  0  0  0  0
    2.6672    0.9975    3.9240 N   0  0  0  0  0  0  0  0  0  0  0  0
    1.9111    2.9276    1.3343 N   0  0  0  0  0  2  0  0  0  0  0  0
    2.6677    4.1982   -1.8777 C   0  0  0  0  0  0  0  0  0  0  0  0
    2.8036    5.2333   -1.6065 H   0  0  0  0  0  0  0  0  0  0  0  0
    2.1043    3.2975   -0.9834 C   0  0  0  0  0  0  0  0  0  0  0  0
    2.9331    2.4175   -3.4527 C   0  0  0  0  0  0  0  0  0  0  0  0
    2.3811    1.5145   -2.5589 C   0  0  0  0  0  0  0  0  0  0  0  0
    2.2679    0.4754   -2.8242 H   0  0  0  0  0  0  0  0  0  0  0  0
    3.0811    3.7537   -3.1204 C   0  0  0  0  0  0  0  0  0  0  0  0
    3.5198    4.4473   -3.8206 H   0  0  0  0  0  0  0  0  0  0  0  0
    1.6731    3.7047    0.2919 N   0  0  0  0  0  0  0  0  0  0  0  0
    4.7328    0.6102    4.5768 C   0  0  0  0  0  0  0  0  0  0  0  0
    3.9470    1.0098    3.5162 C   0  0  0  0  0  0  0  0  0  0  0  0
    4.2142    1.2988    2.5215 H   0  0  0  0  0  0  0  0  0  0  0  0
    4.0299    0.0345    6.9250 C   0  0  0  0  0  0  0  0  0  0  0  0
    1.3313    3.4357    2.3629 N   0  0  0  0  0  0  0  0  0  0  0  0
    0.9104    4.7688    0.6589 C   0  0  0  0  0  0  0  0  0  0  0  0
    0.4148    5.8209   -0.2557 C   0  0  0  0  0  0  0  0  0  0  0  0
   -0.5045    6.2413    0.1440 H   0  0  0  0  0  0  0  0  0  0  0  0
    0.2206    5.4095   -1.2447 H   0  0  0  0  0  0  0  0  0  0  0  0
    1.1414    6.6285   -0.3494 H   0  0  0  0  0  0  0  0  0  0  0  0
    6.2037    0.4926    4.6934 C   0  0  0  0  0  0  0  0  0  0  0  0
    6.6750    1.1382    3.9563 H   0  0  0  0  0  0  0  0  0  0  0  0
    6.5286   -0.5301    4.5001 H   0  0  0  0  0  0  0  0  0  0  0  0
    6.5367    0.7825    5.6886 H   0  0  0  0  0  0  0  0  0  0  0  0
    3.8374    0.3801    5.5753 N   0  0  0  0  0  0  0  0  0  0  0  0
    4.3267   -0.5853    9.5897 C   0  0  0  0  0  0  0  0  0  0  0  0
    4.9972   -0.8839    7.3120 C   0  0  0  0  0  0  0  0  0  0  0  0
    5.6144   -1.3802    6.5806 H   0  0  0  0  0  0  0  0  0  0  0  0
    3.1942    0.6256    7.8684 C   0  0  0  0  0  0  0  0  0  0  0  0
    2.4324    1.3213    7.5504 H   0  0  0  0  0  0  0  0  0  0  0  0
    5.1472   -1.1899    8.6524 C   0  0  0  0  0  0  0  0  0  0  0  0
    5.8970   -1.9024    8.9589 H   0  0  0  0  0  0  0  0  0  0  0  0
    3.3451    0.3136    9.2054 C   0  0  0  0  0  0  0  0  0  0  0  0
    2.7004    0.7730    9.9376 H   0  0  0  0  0  0  0  0  0  0  0  0
  1 36  1  0  0  0  0
  3 16  1  0  0  0  0
  4  5  1  0  0  0  0
  5 11  1  0  0  0  0
  5  6  1  0  0  0  0
  7 15  1  0  0  0  0
  7  8  1  0  0  0  0
  9 26  1  0  0  0  0
  9 10  1  0  0  0  0
 11  1  1  0  0  0  0
 12 26  1  0  0  0  0
 13 14  1  0  0  0  0
 13 15  2  0  0  0  0
 15 21  1  0  0  0  0
 16 19  2  0  0  0  0
 16 17  1  0  0  0  0
 17  7  2  0  0  0  0
 18 17  1  0  0  0  0
 19 13  1  0  0  0  0
 20 19  1  0  0  0  0
 21 27  1  0  0  0  0
 21 12  1  0  0  0  0
 22 32  1  0  0  0  0
 22 36  1  0  0  0  0
 23 11  1  0  0  0  0
 23 22  2  0  0  0  0
 24 23  1  0  0  0  0
 25 38  2  0  0  0  0
 25 40  1  0  0  0  0
 26  5  1  0  0  0  0
 27  9  2  0  0  0  0
 28 29  1  0  0  0  0
 28 27  1  0  0  0  0
 30 28  1  0  0  0  0
 31 28  1  0  0  0  0
 32 35  1  0  0  0  0
 33 32  1  0  0  0  0
 34 32  1  0  0  0  0
 36 25  1  0  0  0  0
 37  2  1  0  0  0  0
 38 42  1  0  0  0  0
 39 38  1  0  0  0  0
 40 44  2  0  0  0  0
 41 40  1  0  0  0  0
 42 43  1  0  0  0  0
 42 37  2  0  0  0  0
 44 37  1  0  0  0  0
 44 45  1  0  0  0  0
M  END
$$$$
