CSD_code = YOPBAI | q = 1 | S = 0 | Stoichiometry = C24H24ClN4RuS2(1+) | MND = 9
 OpenBabel04212202123D

 56 60  0  0  1  0  0  0  0  0999 V2000
    6.4395    3.4507    2.2574 C   0  0  0  0  0  0  0  0  0  0  0  0
    5.4294    3.8103    2.4077 H   0  0  0  0  0  0  0  0  0  0  0  0
    7.5246    4.3002    2.4963 C   0  0  0  0  0  0  0  0  0  0  0  0
    8.8382    3.7498    2.3913 C   0  0  0  0  0  0  0  0  0  0  0  0
    9.6870    4.3707    2.6596 H   0  0  0  0  0  0  0  0  0  0  0  0
    6.6397    2.1055    1.8589 C   0  0  2  0  0  0  0  0  0  0  0  0
    5.7798    1.4556    1.7294 H   0  0  0  0  0  0  0  0  0  0  0  0
    7.9328    1.5611    1.7633 C   0  0  1  0  0  3  0  0  0  0  0  0
    9.0359    2.4088    2.0684 C   0  0  0  0  0  0  0  0  0  0  0  0
   10.0341    1.9829    2.0971 H   0  0  0  0  0  0  0  0  0  0  0  0
    7.3391    5.7153    2.9810 C   0  0  0  0  0  0  0  0  0  0  0  0
    8.2897    6.2441    2.8553 H   0  0  0  0  0  0  0  0  0  0  0  0
    8.1452    0.1019    1.4965 C   0  0  0  0  0  0  0  0  0  0  0  0
    7.3226   -0.3181    0.9222 H   0  0  0  0  0  0  0  0  0  0  0  0
    8.2018   -0.4328    2.4457 H   0  0  0  0  0  0  0  0  0  0  0  0
    9.0763   -0.0725    0.9608 H   0  0  0  0  0  0  0  0  0  0  0  0
    6.2713    6.4670    2.1866 C   0  0  0  0  0  0  0  0  0  0  0  0
    6.2842    7.5167    2.4655 H   0  0  0  0  0  0  0  0  0  0  0  0
    5.2755    6.0783    2.3825 H   0  0  0  0  0  0  0  0  0  0  0  0
    6.4724    6.3905    1.1202 H   0  0  0  0  0  0  0  0  0  0  0  0
    6.9954    5.6805    4.4756 C   0  0  0  0  0  0  0  0  0  0  0  0
    6.9005    6.6954    4.8508 H   0  0  0  0  0  0  0  0  0  0  0  0
    7.7739    5.1747    5.0429 H   0  0  0  0  0  0  0  0  0  0  0  0
    6.0536    5.1621    4.6412 H   0  0  0  0  0  0  0  0  0  0  0  0
    7.7985    3.3637    0.2771 Ru  0  0  2  0  0  0  0  0  0  0  0  0
    8.4930    5.3881   -0.6405 Cl  0  0  0  0  0  0  0  0  0  0  0  0
    6.8264    1.1940   -2.2384 S   0  0  0  0  0  0  0  0  0  0  0  0
    3.6479    6.1819   -0.5062 S   0  0  0  0  0  0  0  0  0  0  0  0
    6.2926    3.4754   -0.9094 N   0  0  0  0  0  0  0  0  0  0  0  0
    8.9261    2.5200   -1.1452 N   0  0  0  0  0  0  0  0  0  0  0  0
    5.5515    4.4810   -0.5609 N   0  0  0  0  0  2  0  0  0  0  0  0
    2.2184    6.6093   -1.4901 C   0  0  0  0  0  0  0  0  0  0  0  0
   10.7487    1.4276   -2.9526 C   0  0  0  0  0  0  0  0  0  0  0  0
   11.4501    1.0036   -3.6527 H   0  0  0  0  0  0  0  0  0  0  0  0
    4.8000    2.9841   -2.6886 C   0  0  0  0  0  0  0  0  0  0  0  0
    4.5389    2.3482   -3.5191 H   0  0  0  0  0  0  0  0  0  0  0  0
    5.9381    2.6921   -1.9307 C   0  0  0  0  0  0  0  0  0  0  0  0
    8.5276    1.6884   -2.1118 C   0  0  1  0  0  3  0  0  0  0  0  0
    0.4596    8.1627   -1.8487 C   0  0  0  0  0  0  0  0  0  0  0  0
   -0.0649    9.0741   -1.6062 H   0  0  0  0  0  0  0  0  0  0  0  0
   10.2289    2.8344   -1.0951 C   0  0  0  0  0  0  0  0  0  0  0  0
   10.5178    3.5511   -0.3340 H   0  0  0  0  0  0  0  0  0  0  0  0
    1.5825    7.7938   -1.1304 C   0  0  0  0  0  0  0  0  0  0  0  0
    1.9654    8.3931   -0.3202 H   0  0  0  0  0  0  0  0  0  0  0  0
    1.8099    5.8276   -2.4678 N   0  0  0  0  0  0  0  0  0  0  0  0
    4.4477    4.8104   -1.2206 C   0  0  0  0  0  0  0  0  0  0  0  0
   11.1638    2.3136   -1.9662 C   0  0  0  0  0  0  0  0  0  0  0  0
   12.1972    2.6050   -1.8761 H   0  0  0  0  0  0  0  0  0  0  0  0
    9.4041    1.1155   -3.0255 C   0  0  0  0  0  0  0  0  0  0  0  0
    9.0150    0.4462   -3.7755 H   0  0  0  0  0  0  0  0  0  0  0  0
    4.0422    4.0820   -2.3533 C   0  0  0  0  0  0  0  0  0  0  0  0
    3.1617    4.3816   -2.8994 H   0  0  0  0  0  0  0  0  0  0  0  0
    0.7347    6.1908   -3.1521 C   0  0  0  0  0  0  0  0  0  0  0  0
    0.4460    5.5140   -3.9445 H   0  0  0  0  0  0  0  0  0  0  0  0
    0.0218    7.3458   -2.8835 C   0  0  0  0  0  0  0  0  0  0  0  0
   -0.8486    7.6003   -3.4653 H   0  0  0  0  0  0  0  0  0  0  0  0
  1  2  1  0  0  0  0
  1  3  2  0  0  0  0
  3 11  1  0  0  0  0
  4  3  1  0  0  0  0
  4  5  1  0  0  0  0
  6  7  1  6  0  0  0
  6  1  1  0  0  0  0
  8 13  1  1  0  0  0
  8  6  1  0  0  0  0
  8  9  1  0  0  0  0
  9 10  1  0  0  0  0
  9  4  2  0  0  0  0
 11 21  1  0  0  0  0
 12 11  1  0  0  0  0
 13 15  1  0  0  0  0
 14 13  1  0  0  0  0
 16 13  1  0  0  0  0
 17 19  1  0  0  0  0
 17 18  1  0  0  0  0
 17 11  1  0  0  0  0
 20 17  1  0  0  0  0
 21 24  1  0  0  0  0
 21 22  1  0  0  0  0
 21 23  1  0  0  0  0
 25 26  1  1  0  0  0
 25  6  1  0  0  0  0
 27 38  1  0  0  0  0
 27 37  1  0  0  0  0
 29 31  1  0  0  0  0
 29 25  1  0  0  0  0
 30 41  1  0  0  0  0
 30 25  1  0  0  0  0
 32 43  1  0  0  0  0
 32 28  1  0  0  0  0
 33 47  1  0  0  0  0
 34 33  1  0  0  0  0
 35 51  1  0  0  0  0
 35 37  2  0  0  0  0
 36 35  1  0  0  0  0
 37 29  1  0  0  0  0
 38 49  1  1  0  0  0
 38 30  1  0  0  0  0
 39 40  1  0  0  0  0
 39 43  2  0  0  0  0
 41 42  1  0  0  0  0
 43 44  1  0  0  0  0
 45 32  2  0  0  0  0
 46 31  1  0  0  0  0
 46 28  1  0  0  0  0
 47 48  1  0  0  0  0
 47 41  2  0  0  0  0
 49 33  2  0  0  0  0
 50 49  1  0  0  0  0
 51 46  2  0  0  0  0
 52 51  1  0  0  0  0
 53 55  2  0  0  0  0
 53 45  1  0  0  0  0
 54 53  1  0  0  0  0
 55 39  1  0  0  0  0
 56 55  1  0  0  0  0
M  END
$$$$
