CSD_code = YOPCOV | q = 1 | S = 0 | Stoichiometry = C24H34Cl2O9Sc(1+) | MND = 7
 OpenBabel04212202123D

 70 70  0  0  0  0  0  0  0  0999 V2000
   -1.5691   -3.5760    3.7539 Sc  0  0  0  0  0  0  0  0  0  0  0  0
    0.5731   -4.0797    3.0840 Cl  0  0  0  0  0  0  0  0  0  0  0  0
   -3.6082   -2.5268    3.9129 Cl  0  0  0  0  0  0  0  0  0  0  0  0
   -2.3447   -5.4436    4.5027 O   0  0  0  0  0  0  0  0  0  0  0  0
   -1.1603   -2.4787    5.8247 O   0  0  0  0  0  0  0  0  0  0  0  0
   -0.0149   -1.6215    5.7902 C   0  0  0  0  0  0  0  0  0  0  0  0
   -0.3373   -0.5286    4.7776 C   0  0  0  0  0  0  0  0  0  0  0  0
   -0.7247   -1.1914    3.5816 O   0  0  0  0  0  0  0  0  0  0  0  0
   -1.0184   -0.3745    2.4996 C   0  0  0  0  0  0  0  0  0  0  0  0
   -1.4042   -1.0526    1.3312 C   0  0  0  0  0  0  0  0  0  0  0  0
   -1.4692   -2.4273    1.4513 O   0  0  0  0  0  0  0  0  0  0  0  0
   -1.7380   -3.1613    0.2633 C   0  0  0  0  0  0  0  0  0  0  0  0
   -1.7261   -4.6331    0.6858 C   0  0  0  0  0  0  0  0  0  0  0  0
   -2.5201   -4.7789    1.8598 O   0  0  0  0  0  0  0  0  0  0  0  0
   -3.9281   -4.9057    1.5983 C   0  0  0  0  0  0  0  0  0  0  0  0
   -4.3657   -6.3559    1.7807 C   0  0  0  0  0  0  0  0  0  0  0  0
   -4.4312   -6.6175    3.1680 O   0  0  0  0  0  0  0  0  0  0  0  0
   -4.6734   -7.9770    3.4717 C   0  0  0  0  0  0  0  0  0  0  0  0
   -4.7754   -8.1378    4.9843 C   0  0  0  0  0  0  0  0  0  0  0  0
   -3.5226   -7.8102    5.5491 O   0  0  0  0  0  0  0  0  0  0  0  0
   -3.1223   -8.4570    6.6904 C   0  0  0  0  0  0  0  0  0  0  0  0
   -1.7616   -8.3075    7.0211 C   0  0  0  0  0  0  0  0  0  0  0  0
   -1.0404   -7.4627    6.2027 O   0  0  0  0  0  0  0  0  0  0  0  0
    0.2928   -7.1708    6.5738 C   0  0  0  0  0  0  0  0  0  0  0  0
    0.7352   -5.9310    5.7943 C   0  0  0  0  0  0  0  0  0  0  0  0
   -0.1883   -4.8621    5.9111 O   0  0  0  0  0  0  0  0  0  0  0  0
   -0.2695   -4.2670    7.1933 C   0  0  0  0  0  0  0  0  0  0  0  0
   -1.3313   -3.1721    7.0525 C   0  0  0  0  0  0  0  0  0  0  0  0
   -1.6885   -0.3355    0.1823 C   0  0  0  0  0  0  0  0  0  0  0  0
   -1.6051    1.0500    0.1916 C   0  0  0  0  0  0  0  0  0  0  0  0
   -1.2423    1.7162    1.3426 C   0  0  0  0  0  0  0  0  0  0  0  0
   -0.9472    1.0072    2.4992 C   0  0  0  0  0  0  0  0  0  0  0  0
   -3.9411   -9.2172    7.5072 C   0  0  0  0  0  0  0  0  0  0  0  0
   -3.4174   -9.8708    8.6133 C   0  0  0  0  0  0  0  0  0  0  0  0
   -2.0738   -9.7716    8.9023 C   0  0  0  0  0  0  0  0  0  0  0  0
   -1.2469   -8.9856    8.1116 C   0  0  0  0  0  0  0  0  0  0  0  0
   -3.1581   -5.8774    4.1415 H   0  0  0  0  0  0  0  0  0  0  0  0
   -1.9673   -6.1373    5.0880 H   0  0  0  0  0  0  0  0  0  0  0  0
    0.8722   -2.1838    5.4633 H   0  0  0  0  0  0  0  0  0  0  0  0
    0.1589   -1.1757    6.7763 H   0  0  0  0  0  0  0  0  0  0  0  0
   -1.1734    0.0831    5.1442 H   0  0  0  0  0  0  0  0  0  0  0  0
    0.5476    0.0959    4.6029 H   0  0  0  0  0  0  0  0  0  0  0  0
   -0.9663   -2.9709   -0.4920 H   0  0  0  0  0  0  0  0  0  0  0  0
   -2.7247   -2.8773   -0.1277 H   0  0  0  0  0  0  0  0  0  0  0  0
   -2.0854   -5.2786   -0.1223 H   0  0  0  0  0  0  0  0  0  0  0  0
   -0.7078   -4.9227    0.9697 H   0  0  0  0  0  0  0  0  0  0  0  0
   -4.1654   -4.5702    0.5867 H   0  0  0  0  0  0  0  0  0  0  0  0
   -4.4567   -4.2763    2.3236 H   0  0  0  0  0  0  0  0  0  0  0  0
   -5.3518   -6.5138    1.3240 H   0  0  0  0  0  0  0  0  0  0  0  0
   -3.6418   -7.0342    1.3043 H   0  0  0  0  0  0  0  0  0  0  0  0
   -3.8504   -8.5972    3.0886 H   0  0  0  0  0  0  0  0  0  0  0  0
   -5.6123   -8.3064    3.0086 H   0  0  0  0  0  0  0  0  0  0  0  0
   -5.5494   -7.4682    5.3783 H   0  0  0  0  0  0  0  0  0  0  0  0
   -5.0456   -9.1770    5.1952 H   0  0  0  0  0  0  0  0  0  0  0  0
    0.9580   -8.0078    6.3303 H   0  0  0  0  0  0  0  0  0  0  0  0
    0.3523   -6.9785    7.6520 H   0  0  0  0  0  0  0  0  0  0  0  0
    1.7305   -5.6231    6.1382 H   0  0  0  0  0  0  0  0  0  0  0  0
    0.7783   -6.1423    4.7239 H   0  0  0  0  0  0  0  0  0  0  0  0
    0.7077   -3.8472    7.4754 H   0  0  0  0  0  0  0  0  0  0  0  0
   -0.5827   -4.9840    7.9614 H   0  0  0  0  0  0  0  0  0  0  0  0
   -2.3285   -3.6215    6.9866 H   0  0  0  0  0  0  0  0  0  0  0  0
   -1.2935   -2.4747    7.8984 H   0  0  0  0  0  0  0  0  0  0  0  0
   -1.9775   -0.8335   -0.7279 H   0  0  0  0  0  0  0  0  0  0  0  0
   -1.8298    1.5989   -0.7085 H   0  0  0  0  0  0  0  0  0  0  0  0
   -1.1832    2.7925    1.3541 H   0  0  0  0  0  0  0  0  0  0  0  0
   -0.6670    1.5530    3.3842 H   0  0  0  0  0  0  0  0  0  0  0  0
   -4.9955   -9.3017    7.2996 H   0  0  0  0  0  0  0  0  0  0  0  0
   -4.0688  -10.4611    9.2373 H   0  0  0  0  0  0  0  0  0  0  0  0
   -1.6552  -10.2968    9.7456 H   0  0  0  0  0  0  0  0  0  0  0  0
   -0.1980   -8.9290    8.3532 H   0  0  0  0  0  0  0  0  0  0  0  0
  1  3  1  0  0  0  0
  2  1  1  0  0  0  0
  4 38  1  0  0  0  0
  5 28  1  0  0  0  0
  6  5  1  0  0  0  0
  6 40  1  0  0  0  0
  7 41  1  0  0  0  0
  7  6  1  0  0  0  0
  8  7  1  0  0  0  0
  9  8  1  0  0  0  0
 10 11  1  0  0  0  0
 10  9  2  0  0  0  0
 12 13  1  0  0  0  0
 12 11  1  0  0  0  0
 13 46  1  0  0  0  0
 13 14  1  0  0  0  0
 15 16  1  0  0  0  0
 15 14  1  0  0  0  0
 15 48  1  0  0  0  0
 16 17  1  0  0  0  0
 17 18  1  0  0  0  0
 18 19  1  0  0  0  0
 19 54  1  0  0  0  0
 19 53  1  0  0  0  0
 19 20  1  0  0  0  0
 20 21  1  0  0  0  0
 21 22  2  0  0  0  0
 21 33  1  0  0  0  0
 22 36  1  0  0  0  0
 23 24  1  0  0  0  0
 23 22  1  0  0  0  0
 24 56  1  0  0  0  0
 25 26  1  0  0  0  0
 25 57  1  0  0  0  0
 25 24  1  0  0  0  0
 26 27  1  0  0  0  0
 27 59  1  0  0  0  0
 27 60  1  0  0  0  0
 28 27  1  0  0  0  0
 28 62  1  0  0  0  0
 29 30  2  0  0  0  0
 29 10  1  0  0  0  0
 30 31  1  0  0  0  0
 31 65  1  0  0  0  0
 31 32  2  0  0  0  0
 32  9  1  0  0  0  0
 32 66  1  0  0  0  0
 33 34  2  0  0  0  0
 34 35  1  0  0  0  0
 34 68  1  0  0  0  0
 35 69  1  0  0  0  0
 36 70  1  0  0  0  0
 36 35  2  0  0  0  0
 37  4  1  0  0  0  0
 39  6  1  0  0  0  0
 42  7  1  0  0  0  0
 43 12  1  0  0  0  0
 44 12  1  0  0  0  0
 45 13  1  0  0  0  0
 47 15  1  0  0  0  0
 49 16  1  0  0  0  0
 50 16  1  0  0  0  0
 51 18  1  0  0  0  0
 52 18  1  0  0  0  0
 55 24  1  0  0  0  0
 58 25  1  0  0  0  0
 61 28  1  0  0  0  0
 63 29  1  0  0  0  0
 64 30  1  0  0  0  0
 67 33  1  0  0  0  0
M  END
$$$$
