CSD_code = YOPHUG | q = 0 | S = 0 | Stoichiometry = C17H20Cl2Zr | MND = 12
 OpenBabel04212202123D

 40 43  0  0  1  0  0  0  0  0999 V2000
    2.2149    3.0109   -0.0049 Zr  0  0  0  0  0  0  0  0  0  0  0  0
    2.3680    4.5723   -1.7245 Cl  0  0  0  0  0  0  0  0  0  0  0  0
    0.4627    1.8771   -1.0147 Cl  0  0  0  0  0  0  0  0  0  0  0  0
    0.5746    4.2476    1.4925 C   0  0  0  0  0  0  0  0  0  0  0  0
    1.6493    5.1444    1.2955 C   0  0  0  0  0  0  0  0  0  0  0  0
    2.8253    4.5507    1.8003 C   0  0  0  0  0  0  0  0  0  0  0  0
    3.4276    2.1016    2.5726 C   0  0  1  0  0  0  0  0  0  0  0  0
    2.6523    0.9237    3.2000 C   0  0  0  0  0  0  0  0  0  0  0  0
    1.2185    0.7185    2.6919 C   0  0  0  0  0  0  0  0  0  0  0  0
    0.3329    1.9696    2.8149 C   0  0  0  0  0  0  0  0  0  0  0  0
    1.0819    3.0957    2.1481 C   0  0  0  0  0  0  0  0  0  0  0  0
    2.4813    3.2795    2.3415 C   0  0  2  0  0  0  0  0  0  0  0  0
    4.6136    2.4665    3.4734 C   0  0  0  0  0  0  0  0  0  0  0  0
   -1.0207    1.7026    2.1516 C   0  0  0  0  0  0  0  0  0  0  0  0
    0.1007    2.3477    4.2872 C   0  0  0  0  0  0  0  0  0  0  0  0
    3.8894    1.7871    1.1427 C   0  0  1  0  0  0  0  0  0  0  0  0
    3.3106    0.8367    0.2540 C   0  0  0  0  0  0  0  0  0  0  0  0
    3.6953    1.1678   -1.0670 C   0  0  0  0  0  0  0  0  0  0  0  0
    4.5036    2.3178   -1.0137 C   0  0  0  0  0  0  0  0  0  0  0  0
    4.6185    2.7100    0.3361 C   0  0  0  0  0  0  0  0  0  0  0  0
   -0.4691    4.4677    1.3025 H   0  0  0  0  0  0  0  0  0  0  0  0
    1.5660    6.1551    0.9159 H   0  0  0  0  0  0  0  0  0  0  0  0
    3.7833    5.0503    1.8756 H   0  0  0  0  0  0  0  0  0  0  0  0
    2.6099    1.0852    4.2791 H   0  0  0  0  0  0  0  0  0  0  0  0
    3.2238    0.0069    3.0367 H   0  0  0  0  0  0  0  0  0  0  0  0
    1.2066    0.4299    1.6357 H   0  0  0  0  0  0  0  0  0  0  0  0
    0.7730   -0.0983    3.2653 H   0  0  0  0  0  0  0  0  0  0  0  0
    5.2616    1.6029    3.6047 H   0  0  0  0  0  0  0  0  0  0  0  0
    4.2597    2.7907    4.4496 H   0  0  0  0  0  0  0  0  0  0  0  0
    5.2005    3.2716    3.0410 H   0  0  0  0  0  0  0  0  0  0  0  0
   -1.4888    0.8300    2.6025 H   0  0  0  0  0  0  0  0  0  0  0  0
   -0.8995    1.5212    1.0849 H   0  0  0  0  0  0  0  0  0  0  0  0
   -1.6878    2.5500    2.2886 H   0  0  0  0  0  0  0  0  0  0  0  0
    1.0350    2.6083    4.7760 H   0  0  0  0  0  0  0  0  0  0  0  0
   -0.3598    1.5198    4.8215 H   0  0  0  0  0  0  0  0  0  0  0  0
   -0.5596    3.2092    4.3482 H   0  0  0  0  0  0  0  0  0  0  0  0
    2.8272   -0.0948    0.5163 H   0  0  0  0  0  0  0  0  0  0  0  0
    3.4931    0.5706   -1.9477 H   0  0  0  0  0  0  0  0  0  0  0  0
    5.0278    2.7662   -1.8481 H   0  0  0  0  0  0  0  0  0  0  0  0
    5.2697    3.5006    0.6884 H   0  0  0  0  0  0  0  0  0  0  0  0
  1 16  1  0  0  0  0
  1 12  1  0  0  0  0
  2  1  1  0  0  0  0
  3  1  1  0  0  0  0
  4 11  2  0  0  0  0
  5  4  1  0  0  0  0
  5  6  2  0  0  0  0
  6 23  1  0  0  0  0
  7  8  1  0  0  0  0
  7 13  1  1  0  0  0
  8 24  1  0  0  0  0
  9 10  1  0  0  0  0
  9  8  1  0  0  0  0
  9 27  1  0  0  0  0
 10 15  1  0  0  0  0
 11 12  1  0  0  0  0
 11 10  1  0  0  0  0
 12  6  1  1  0  0  0
 12  7  1  0  0  0  0
 13 28  1  0  0  0  0
 13 29  1  0  0  0  0
 14 33  1  0  0  0  0
 14 31  1  0  0  0  0
 14 10  1  0  0  0  0
 15 36  1  0  0  0  0
 15 34  1  0  0  0  0
 15 35  1  0  0  0  0
 16 17  1  6  0  0  0
 16  7  1  0  0  0  0
 17 37  1  0  0  0  0
 18 19  1  0  0  0  0
 18 17  2  0  0  0  0
 19 20  2  0  0  0  0
 20 40  1  0  0  0  0
 20 16  1  0  0  0  0
 21  4  1  0  0  0  0
 22  5  1  0  0  0  0
 25  8  1  0  0  0  0
 26  9  1  0  0  0  0
 30 13  1  0  0  0  0
 32 14  1  0  0  0  0
 38 18  1  0  0  0  0
 39 19  1  0  0  0  0
M  END
$$$$
