CSD_code = YOPJES | q = 0 | S = 0 | Stoichiometry = C17H20Cl2Hf | MND = 12
 OpenBabel04212202123D

 40 43  0  0  1  0  0  0  0  0999 V2000
   -2.1668    3.0339   16.3263 Hf  0  0  0  0  0  0  0  0  0  0  0  0
   -3.9109    1.9768   15.2670 Cl  0  0  0  0  0  0  0  0  0  0  0  0
   -1.9924    4.5937   14.6377 Cl  0  0  0  0  0  0  0  0  0  0  0  0
   -3.8581    4.2340   17.8522 C   0  0  0  0  0  0  0  0  0  0  0  0
   -4.9049    4.4505   17.6954 H   0  0  0  0  0  0  0  0  0  0  0  0
   -2.8001    5.1478   17.6703 C   0  0  0  0  0  0  0  0  0  0  0  0
   -2.9013    6.1691   17.3334 H   0  0  0  0  0  0  0  0  0  0  0  0
   -1.6078    4.5510   18.1353 C   0  0  0  0  0  0  0  0  0  0  0  0
   -0.6592    5.0605   18.2274 H   0  0  0  0  0  0  0  0  0  0  0  0
   -0.9746    2.1019   18.8704 C   0  0  1  0  0  0  0  0  0  0  0  0
   -1.7265    0.9156   19.5079 C   0  0  0  0  0  0  0  0  0  0  0  0
   -1.1444    0.0065   19.3397 H   0  0  0  0  0  0  0  0  0  0  0  0
   -1.7569    1.0795   20.5869 H   0  0  0  0  0  0  0  0  0  0  0  0
   -3.1623    0.6873   19.0201 C   0  0  0  0  0  0  0  0  0  0  0  0
   -3.5927   -0.1235   19.6131 H   0  0  0  0  0  0  0  0  0  0  0  0
   -3.1799    0.3726   17.9739 H   0  0  0  0  0  0  0  0  0  0  0  0
   -4.0635    1.9273   19.1271 C   0  0  0  0  0  0  0  0  0  0  0  0
   -3.3309    3.0631   18.4578 C   0  0  0  0  0  0  0  0  0  0  0  0
   -1.9342    3.2655   18.6512 C   0  0  2  0  0  0  0  0  0  0  0  0
    0.2150    2.4787   19.7612 C   0  0  0  0  0  0  0  0  0  0  0  0
    0.8739    1.6221   19.8835 H   0  0  0  0  0  0  0  0  0  0  0  0
   -0.1345    2.7941   20.7418 H   0  0  0  0  0  0  0  0  0  0  0  0
    0.7897    3.2922   19.3291 H   0  0  0  0  0  0  0  0  0  0  0  0
   -5.4108    1.6340   18.4630 C   0  0  0  0  0  0  0  0  0  0  0  0
   -5.8652    0.7568   18.9185 H   0  0  0  0  0  0  0  0  0  0  0  0
   -5.2868    1.4480   17.3984 H   0  0  0  0  0  0  0  0  0  0  0  0
   -6.0914    2.4714   18.5919 H   0  0  0  0  0  0  0  0  0  0  0  0
   -4.3064    2.3115   20.5957 C   0  0  0  0  0  0  0  0  0  0  0  0
   -4.7682    1.4843   21.1303 H   0  0  0  0  0  0  0  0  0  0  0  0
   -4.9688    3.1719   20.6489 H   0  0  0  0  0  0  0  0  0  0  0  0
   -3.3759    2.5755   21.0902 H   0  0  0  0  0  0  0  0  0  0  0  0
   -0.5217    1.7990   17.4390 C   0  0  1  0  0  0  0  0  0  0  0  0
   -1.0965    0.8496   16.5463 C   0  0  0  0  0  0  0  0  0  0  0  0
   -1.5747   -0.0811   16.8114 H   0  0  0  0  0  0  0  0  0  0  0  0
   -0.6715    1.1606   15.2328 C   0  0  0  0  0  0  0  0  0  0  0  0
   -0.8451    0.5491   14.3596 H   0  0  0  0  0  0  0  0  0  0  0  0
    0.1381    2.3042   15.2913 C   0  0  0  0  0  0  0  0  0  0  0  0
    0.6905    2.7331   14.4687 H   0  0  0  0  0  0  0  0  0  0  0  0
    0.2173    2.7188   16.6380 C   0  0  0  0  0  0  0  0  0  0  0  0
    0.8727    3.4990   16.9985 H   0  0  0  0  0  0  0  0  0  0  0  0
  1 32  1  0  0  0  0
  1 19  1  0  0  0  0
  2  1  1  0  0  0  0
  3  1  1  0  0  0  0
  4 18  2  0  0  0  0
  5  4  1  0  0  0  0
  6  4  1  0  0  0  0
  6  8  2  0  0  0  0
  7  6  1  0  0  0  0
  8  9  1  0  0  0  0
 10 11  1  0  0  0  0
 10 20  1  1  0  0  0
 11 13  1  0  0  0  0
 12 11  1  0  0  0  0
 14 17  1  0  0  0  0
 14 11  1  0  0  0  0
 14 15  1  0  0  0  0
 16 14  1  0  0  0  0
 17 28  1  0  0  0  0
 18 19  1  0  0  0  0
 18 17  1  0  0  0  0
 19  8  1  1  0  0  0
 19 10  1  0  0  0  0
 20 21  1  0  0  0  0
 20 22  1  0  0  0  0
 23 20  1  0  0  0  0
 24 27  1  0  0  0  0
 24 25  1  0  0  0  0
 24 17  1  0  0  0  0
 26 24  1  0  0  0  0
 28 30  1  0  0  0  0
 28 31  1  0  0  0  0
 28 29  1  0  0  0  0
 32 33  1  6  0  0  0
 32 10  1  0  0  0  0
 33 34  1  0  0  0  0
 35 37  1  0  0  0  0
 35 33  2  0  0  0  0
 36 35  1  0  0  0  0
 37 39  2  0  0  0  0
 38 37  1  0  0  0  0
 39 40  1  0  0  0  0
 39 32  1  0  0  0  0
M  END
$$$$
