CSD_code = YOPVOP | q = 1 | S = 0 | Stoichiometry = C25H24ClN6Ru(1+) | MND = 6
 OpenBabel04212202123D

 57 63  0  0  1  0  0  0  0  0999 V2000
    2.4984    0.5586   10.0023 Ru  0  0  0  0  0  0  0  0  0  0  0  0
    3.9827   -1.3226   10.0523 Cl  0  0  0  0  0  0  0  0  0  0  0  0
    3.2724    1.0775    8.1019 N   0  0  0  0  0  0  0  0  0  0  0  0
    1.9695   -0.0550   11.8088 N   0  0  0  0  0  0  0  0  0  0  0  0
    3.9424    1.4217   11.0665 N   0  0  0  0  0  0  0  0  0  0  0  0
    3.9792    0.1083    7.4975 N   0  0  0  0  0  0  0  0  0  0  0  0
    4.2290   -0.7173    8.0560 H   0  0  0  0  0  0  0  0  0  0  0  0
    1.0597   -0.3295    8.9467 N   0  0  0  0  0  0  0  0  0  0  0  0
    1.1369    1.9854   10.0369 N   0  0  0  0  0  0  0  0  0  0  0  0
    4.3499    0.4572    6.2567 C   0  0  2  0  0  3  0  0  0  0  0  0
    3.8356    1.7236    6.0434 C   0  0  0  0  0  0  0  0  0  0  0  0
    3.9297    2.3213    5.1610 H   0  0  0  0  0  0  0  0  0  0  0  0
    3.1697    2.0758    7.2224 C   0  0  0  0  0  0  0  0  0  0  0  0
    5.1389   -0.4382    5.3792 C   0  0  0  0  0  0  0  0  0  0  0  0
    5.7741   -1.0903    5.9735 H   0  0  0  0  0  0  0  0  0  0  0  0
    5.7555    0.1456    4.7015 H   0  0  0  0  0  0  0  0  0  0  0  0
    4.4750   -1.0610    4.7798 H   0  0  0  0  0  0  0  0  0  0  0  0
    2.4625    3.3560    7.4982 C   0  0  0  0  0  0  0  0  0  0  0  0
    1.3890    3.2455    7.3429 H   0  0  0  0  0  0  0  0  0  0  0  0
    2.8237    4.1232    6.8186 H   0  0  0  0  0  0  0  0  0  0  0  0
    2.6304    3.6815    8.5230 H   0  0  0  0  0  0  0  0  0  0  0  0
    0.8921   -0.7776   12.1085 C   0  0  0  0  0  3  0  0  0  0  0  0
    0.1746   -0.9315   11.3108 H   0  0  0  0  0  0  0  0  0  0  0  0
    0.6783   -1.3282   13.3573 C   0  0  0  0  0  0  0  0  0  0  0  0
   -0.2071   -1.9130   13.5444 H   0  0  0  0  0  0  0  0  0  0  0  0
    1.6284   -1.1243   14.3500 C   0  0  0  0  0  0  0  0  0  0  0  0
    1.5011   -1.5497   15.3325 H   0  0  0  0  0  0  0  0  0  0  0  0
    2.7439   -0.3657   14.0516 C   0  0  0  0  0  0  0  0  0  0  0  0
    3.4970   -0.1921   14.8021 H   0  0  0  0  0  0  0  0  0  0  0  0
    2.8948    0.1622   12.7699 C   0  0  0  0  0  0  0  0  0  0  0  0
    4.0248    0.9871   12.3446 C   0  0  1  0  0  3  0  0  0  0  0  0
    5.1093    1.3175   13.1557 C   0  0  0  0  0  0  0  0  0  0  0  0
    5.1652    0.9488   14.1662 H   0  0  0  0  0  0  0  0  0  0  0  0
    6.1241    2.1065   12.6477 C   0  0  0  0  0  0  0  0  0  0  0  0
    6.9764    2.3623   13.2564 H   0  0  0  0  0  0  0  0  0  0  0  0
    6.0242    2.5551   11.3368 C   0  0  0  0  0  0  0  0  0  0  0  0
    6.7935    3.1693   10.8983 H   0  0  0  0  0  0  0  0  0  0  0  0
    4.9217    2.1886   10.5889 C   0  0  0  0  0  0  0  0  0  0  0  0
    4.8171    2.5128    9.5607 H   0  0  0  0  0  0  0  0  0  0  0  0
    1.1294   -1.5488    8.4145 C   0  0  0  0  0  3  0  0  0  0  0  0
    1.9950   -2.1381    8.6934 H   0  0  0  0  0  0  0  0  0  0  0  0
    0.1634   -2.0506    7.5625 C   0  0  0  0  0  0  0  0  0  0  0  0
    0.2666   -3.0441    7.1583 H   0  0  0  0  0  0  0  0  0  0  0  0
   -0.9278   -1.2536    7.2395 C   0  0  0  0  0  0  0  0  0  0  0  0
   -1.6948   -1.6101    6.5709 H   0  0  0  0  0  0  0  0  0  0  0  0
   -1.0135    0.0095    7.7958 C   0  0  0  0  0  0  0  0  0  0  0  0
   -1.8473    0.6501    7.5607 H   0  0  0  0  0  0  0  0  0  0  0  0
   -0.0081    0.4500    8.6549 C   0  0  0  0  0  0  0  0  0  0  0  0
    0.0044    1.7417    9.3336 C   0  0  1  0  0  3  0  0  0  0  0  0
   -1.0520    2.6514    9.3193 C   0  0  0  0  0  0  0  0  0  0  0  0
   -1.9423    2.4368    8.7518 H   0  0  0  0  0  0  0  0  0  0  0  0
   -0.9555    3.8240   10.0438 C   0  0  0  0  0  0  0  0  0  0  0  0
   -1.7612    4.5398   10.0423 H   0  0  0  0  0  0  0  0  0  0  0  0
    0.2011    4.0532   10.7815 C   0  0  0  0  0  0  0  0  0  0  0  0
    0.3158    4.9478   11.3712 H   0  0  0  0  0  0  0  0  0  0  0  0
    1.2116    3.1143   10.7468 C   0  0  0  0  0  0  0  0  0  0  0  0
    2.1283    3.2710   11.3032 H   0  0  0  0  0  0  0  0  0  0  0  0
  1  9  1  0  0  0  0
  1  2  1  0  0  0  0
  1  5  1  0  0  0  0
  1  4  1  0  0  0  0
  3  1  1  0  0  0  0
  4 22  1  0  0  0  0
  4 30  1  0  0  0  0
  5 31  1  0  0  0  0
  6  7  1  0  0  0  0
  6  3  1  0  0  0  0
  8  1  1  0  0  0  0
  9 56  1  0  0  0  0
 10 14  1  6  0  0  0
 10  6  1  0  0  0  0
 11 10  1  0  0  0  0
 11 13  2  0  0  0  0
 12 11  1  0  0  0  0
 13 18  1  0  0  0  0
 13  3  1  0  0  0  0
 14 15  1  0  0  0  0
 16 14  1  0  0  0  0
 17 14  1  0  0  0  0
 18 21  1  0  0  0  0
 19 18  1  0  0  0  0
 20 18  1  0  0  0  0
 22 24  1  0  0  0  0
 23 22  1  0  0  0  0
 24 25  1  0  0  0  0
 24 26  2  0  0  0  0
 26 27  1  0  0  0  0
 28 26  1  0  0  0  0
 28 29  1  0  0  0  0
 30 28  2  0  0  0  0
 31 30  1  6  0  0  0
 31 32  1  0  0  0  0
 32 33  1  0  0  0  0
 34 32  2  0  0  0  0
 34 35  1  0  0  0  0
 36 34  1  0  0  0  0
 37 36  1  0  0  0  0
 38  5  1  0  0  0  0
 38 36  2  0  0  0  0
 39 38  1  0  0  0  0
 40 41  1  0  0  0  0
 40  8  1  0  0  0  0
 42 40  1  0  0  0  0
 43 42  1  0  0  0  0
 44 42  2  0  0  0  0
 44 46  1  0  0  0  0
 45 44  1  0  0  0  0
 46 48  2  0  0  0  0
 47 46  1  0  0  0  0
 48  8  1  0  0  0  0
 49 48  1  1  0  0  0
 49  9  1  0  0  0  0
 50 49  1  0  0  0  0
 50 52  2  0  0  0  0
 51 50  1  0  0  0  0
 52 54  1  0  0  0  0
 53 52  1  0  0  0  0
 54 55  1  0  0  0  0
 56 54  2  0  0  0  0
 56 57  1  0  0  0  0
M  END
$$$$
