CSD_code = YOQBUC | q = 0 | S = 0 | Stoichiometry = C18H16Cl2F2N2O2Zn | MND = 4
 OpenBabel04212202123D

 43 46  0  0  1  0  0  0  0  0999 V2000
   -1.7608    4.7441    3.2376 Zn  0  0  0  0  0  0  0  0  0  0  0  0
   -1.7975    3.7659    5.2084 Cl  0  0  0  0  0  0  0  0  0  0  0  0
   -0.1030    6.0733    3.1021 N   0  0  0  0  0  0  0  0  0  0  0  0
    0.8776    5.8014    2.0649 C   0  0  0  0  0  0  0  0  0  0  0  0
    0.3682    5.4456    1.1682 H   0  0  0  0  0  0  0  0  0  0  0  0
    1.5481    5.0116    2.4120 H   0  0  0  0  0  0  0  0  0  0  0  0
    1.5877    7.1552    1.8783 C   0  0  0  0  0  0  0  0  0  0  0  0
    2.6588    7.1144    2.0876 H   0  0  0  0  0  0  0  0  0  0  0  0
    1.4274    7.5954    0.8910 H   0  0  0  0  0  0  0  0  0  0  0  0
    0.9728    8.0031    2.8516 O   0  0  0  0  0  0  0  0  0  0  0  0
    0.0390    7.2869    3.4830 C   0  0  1  0  0  3  0  0  0  0  0  0
   -0.7322    7.9536    4.5238 C   0  0  0  0  0  0  0  0  0  0  0  0
   -1.3572    7.2219    5.5334 C   0  0  0  0  0  0  0  0  0  0  0  0
   -1.2355    6.1511    5.5855 H   0  0  0  0  0  0  0  0  0  0  0  0
   -2.1201    7.8728    6.4839 C   0  0  0  0  0  0  0  0  0  0  0  0
   -2.6069    7.3253    7.2756 H   0  0  0  0  0  0  0  0  0  0  0  0
   -2.2455    9.2506    6.4176 C   0  0  0  0  0  0  0  0  0  0  0  0
   -1.6044   10.0004    5.4449 C   0  0  0  0  0  0  0  0  0  0  0  0
   -1.7100   11.0737    5.4401 H   0  0  0  0  0  0  0  0  0  0  0  0
   -0.8397    9.3454    4.5009 C   0  0  0  0  0  0  0  0  0  0  0  0
   -0.3269    9.9013    3.7320 H   0  0  0  0  0  0  0  0  0  0  0  0
   -3.0091    9.8813    7.3260 F   0  0  0  0  0  0  0  0  0  0  0  0
   -1.7239    3.7651    1.2673 Cl  0  0  0  0  0  0  0  0  0  0  0  0
   -3.4187    6.0733    3.3731 N   0  0  0  0  0  0  0  0  0  0  0  0
   -4.3993    5.8014    4.4103 C   0  0  0  0  0  0  0  0  0  0  0  0
   -3.8899    5.4456    5.3070 H   0  0  0  0  0  0  0  0  0  0  0  0
   -5.0698    5.0116    4.0633 H   0  0  0  0  0  0  0  0  0  0  0  0
   -5.1094    7.1552    4.5970 C   0  0  0  0  0  0  0  0  0  0  0  0
   -6.1805    7.1144    4.3877 H   0  0  0  0  0  0  0  0  0  0  0  0
   -4.9490    7.5954    5.5843 H   0  0  0  0  0  0  0  0  0  0  0  0
   -4.4945    8.0031    3.6237 O   0  0  0  0  0  0  0  0  0  0  0  0
   -3.5607    7.2870    2.9922 C   0  0  1  0  0  3  0  0  0  0  0  0
   -2.7894    7.9536    1.9515 C   0  0  0  0  0  0  0  0  0  0  0  0
   -2.1645    7.2220    0.9418 C   0  0  0  0  0  0  0  0  0  0  0  0
   -2.2862    6.1512    0.8897 H   0  0  0  0  0  0  0  0  0  0  0  0
   -1.4016    7.8728   -0.0086 C   0  0  0  0  0  0  0  0  0  0  0  0
   -0.9147    7.3254   -0.8003 H   0  0  0  0  0  0  0  0  0  0  0  0
   -1.2761    9.2506    0.0577 C   0  0  0  0  0  0  0  0  0  0  0  0
   -1.9172   10.0004    1.0304 C   0  0  0  0  0  0  0  0  0  0  0  0
   -1.8116   11.0737    1.0352 H   0  0  0  0  0  0  0  0  0  0  0  0
   -2.6820    9.3455    1.9744 C   0  0  0  0  0  0  0  0  0  0  0  0
   -3.1947    9.9013    2.7433 H   0  0  0  0  0  0  0  0  0  0  0  0
   -0.5125    9.8814   -0.8507 F   0  0  0  0  0  0  0  0  0  0  0  0
  1 24  1  0  0  0  0
  1  2  1  0  0  0  0
  3  1  1  0  0  0  0
  3 11  1  0  0  0  0
  4  6  1  0  0  0  0
  4  3  1  0  0  0  0
  5  4  1  0  0  0  0
  7  4  1  0  0  0  0
  7  8  1  0  0  0  0
  7 10  1  0  0  0  0
  9  7  1  0  0  0  0
 10 11  1  0  0  0  0
 11 12  1  6  0  0  0
 12 13  1  0  0  0  0
 13 14  1  0  0  0  0
 13 15  2  0  0  0  0
 15 16  1  0  0  0  0
 17 15  1  0  0  0  0
 17 22  1  0  0  0  0
 18 17  2  0  0  0  0
 19 18  1  0  0  0  0
 20 12  2  0  0  0  0
 20 18  1  0  0  0  0
 21 20  1  0  0  0  0
 23  1  1  0  0  0  0
 24 25  1  0  0  0  0
 25 28  1  0  0  0  0
 25 26  1  0  0  0  0
 27 25  1  0  0  0  0
 28 30  1  0  0  0  0
 29 28  1  0  0  0  0
 31 28  1  0  0  0  0
 32 33  1  1  0  0  0
 32 24  1  0  0  0  0
 32 31  1  0  0  0  0
 33 41  1  0  0  0  0
 34 33  2  0  0  0  0
 35 34  1  0  0  0  0
 36 38  2  0  0  0  0
 36 34  1  0  0  0  0
 37 36  1  0  0  0  0
 38 39  1  0  0  0  0
 39 40  1  0  0  0  0
 39 41  2  0  0  0  0
 41 42  1  0  0  0  0
 43 38  1  0  0  0  0
M  END
$$$$
