CSD_code = YOQBOW | q = 0 | S = 0 | Stoichiometry = C20H22Cl2N2O2Zn | MND = 4
 OpenBabel04212202123D

 49 52  0  0  1  0  0  0  0  0999 V2000
   -1.4868    4.6532    3.4744 Zn  0  0  0  0  0  0  0  0  0  0  0  0
   -1.2596    3.6173    5.4053 Cl  0  0  0  0  0  0  0  0  0  0  0  0
    0.1102    5.9937    3.0923 N   0  0  0  0  0  0  0  0  0  0  0  0
    0.8943    5.7656    1.8912 C   0  0  0  0  0  0  0  0  0  0  0  0
    1.4945    7.1502    1.5868 C   0  0  0  0  0  0  0  0  0  0  0  0
    1.0557    7.9635    2.6754 O   0  0  0  0  0  0  0  0  0  0  0  0
    0.2761    7.2099    3.4589 C   0  0  1  0  0  3  0  0  0  0  0  0
   -0.3035    7.8372    4.6350 C   0  0  0  0  0  0  0  0  0  0  0  0
   -0.7068    7.0792    5.7325 C   0  0  0  0  0  0  0  0  0  0  0  0
   -1.2889    7.7017    6.8202 C   0  0  0  0  0  0  0  0  0  0  0  0
   -1.4802    9.0788    6.8449 C   0  0  0  0  0  0  0  0  0  0  0  0
   -1.0449    9.8310    5.7563 C   0  0  0  0  0  0  0  0  0  0  0  0
   -0.4558    9.2248    4.6672 C   0  0  0  0  0  0  0  0  0  0  0  0
   -2.1198    9.7527    8.0179 C   0  0  0  0  0  0  0  0  0  0  0  0
    0.2469    5.3868    1.0994 H   0  0  0  0  0  0  0  0  0  0  0  0
    1.6533    5.0086    2.1043 H   0  0  0  0  0  0  0  0  0  0  0  0
    1.1137    7.5872    0.6600 H   0  0  0  0  0  0  0  0  0  0  0  0
    2.5867    7.1555    1.5727 H   0  0  0  0  0  0  0  0  0  0  0  0
   -0.5525    6.0119    5.7411 H   0  0  0  0  0  0  0  0  0  0  0  0
   -1.5948    7.1034    7.6663 H   0  0  0  0  0  0  0  0  0  0  0  0
   -1.1723   10.9039    5.7693 H   0  0  0  0  0  0  0  0  0  0  0  0
   -0.1205    9.8108    3.8255 H   0  0  0  0  0  0  0  0  0  0  0  0
   -2.5396    9.0251    8.7079 H   0  0  0  0  0  0  0  0  0  0  0  0
   -1.3801   10.3468    8.5542 H   0  0  0  0  0  0  0  0  0  0  0  0
   -2.9092   10.4272    7.6896 H   0  0  0  0  0  0  0  0  0  0  0  0
   -1.7139    3.6172    1.5435 Cl  0  0  0  0  0  0  0  0  0  0  0  0
   -3.0839    5.9937    3.8565 N   0  0  0  0  0  0  0  0  0  0  0  0
   -3.8679    5.7657    5.0576 C   0  0  0  0  0  0  0  0  0  0  0  0
   -4.4682    7.1502    5.3618 C   0  0  0  0  0  0  0  0  0  0  0  0
   -4.0294    7.9635    4.2733 O   0  0  0  0  0  0  0  0  0  0  0  0
   -3.2498    7.2099    3.4898 C   0  0  1  0  0  3  0  0  0  0  0  0
   -2.6702    7.8372    2.3137 C   0  0  0  0  0  0  0  0  0  0  0  0
   -2.2668    7.0792    1.2162 C   0  0  0  0  0  0  0  0  0  0  0  0
   -1.6846    7.7017    0.1286 C   0  0  0  0  0  0  0  0  0  0  0  0
   -1.4934    9.0788    0.1039 C   0  0  0  0  0  0  0  0  0  0  0  0
   -1.9288    9.8309    1.1924 C   0  0  0  0  0  0  0  0  0  0  0  0
   -2.5180    9.2248    2.2814 C   0  0  0  0  0  0  0  0  0  0  0  0
   -0.8537    9.7528   -1.0691 C   0  0  0  0  0  0  0  0  0  0  0  0
   -3.2205    5.3868    5.8494 H   0  0  0  0  0  0  0  0  0  0  0  0
   -4.6269    5.0086    4.8444 H   0  0  0  0  0  0  0  0  0  0  0  0
   -4.0874    7.5873    6.2887 H   0  0  0  0  0  0  0  0  0  0  0  0
   -5.5604    7.1554    5.3760 H   0  0  0  0  0  0  0  0  0  0  0  0
   -2.4210    6.0119    1.2076 H   0  0  0  0  0  0  0  0  0  0  0  0
   -1.3787    7.1034   -0.7176 H   0  0  0  0  0  0  0  0  0  0  0  0
   -1.8015   10.9039    1.1794 H   0  0  0  0  0  0  0  0  0  0  0  0
   -2.8533    9.8108    3.1231 H   0  0  0  0  0  0  0  0  0  0  0  0
   -0.4339    9.0252   -1.7591 H   0  0  0  0  0  0  0  0  0  0  0  0
   -1.5934   10.3468   -1.6055 H   0  0  0  0  0  0  0  0  0  0  0  0
   -0.0643   10.4272   -0.7407 H   0  0  0  0  0  0  0  0  0  0  0  0
  1 27  1  0  0  0  0
  1  2  1  0  0  0  0
  3  7  1  0  0  0  0
  3  1  1  0  0  0  0
  4 16  1  0  0  0  0
  4  3  1  0  0  0  0
  5  4  1  0  0  0  0
  5  6  1  0  0  0  0
  6  7  1  0  0  0  0
  7  8  1  6  0  0  0
  8 13  2  0  0  0  0
  8  9  1  0  0  0  0
  9 19  1  0  0  0  0
  9 10  2  0  0  0  0
 10 11  1  0  0  0  0
 10 20  1  0  0  0  0
 11 14  1  0  0  0  0
 12 21  1  0  0  0  0
 12 11  2  0  0  0  0
 13 12  1  0  0  0  0
 14 24  1  0  0  0  0
 14 23  1  0  0  0  0
 15  4  1  0  0  0  0
 17  5  1  0  0  0  0
 18  5  1  0  0  0  0
 22 13  1  0  0  0  0
 25 14  1  0  0  0  0
 26  1  1  0  0  0  0
 27 28  1  0  0  0  0
 28 29  1  0  0  0  0
 28 39  1  0  0  0  0
 29 42  1  0  0  0  0
 29 41  1  0  0  0  0
 30 29  1  0  0  0  0
 31 32  1  1  0  0  0
 31 27  1  0  0  0  0
 31 30  1  0  0  0  0
 33 32  2  0  0  0  0
 34 33  1  0  0  0  0
 35 34  2  0  0  0  0
 35 36  1  0  0  0  0
 36 37  2  0  0  0  0
 37 32  1  0  0  0  0
 37 46  1  0  0  0  0
 38 49  1  0  0  0  0
 38 35  1  0  0  0  0
 40 28  1  0  0  0  0
 43 33  1  0  0  0  0
 44 34  1  0  0  0  0
 45 36  1  0  0  0  0
 47 38  1  0  0  0  0
 48 38  1  0  0  0  0
M  END
$$$$
