CSD_code = YOQBIQ | q = 0 | S = 0 | Stoichiometry = C20H22Cl2N2O2Zn | MND = 4
 OpenBabel04212202123D

 49 52  0  0  1  0  0  0  0  0999 V2000
    3.9632    5.4431    9.2014 Zn  0  0  0  0  0  0  0  0  0  0  0  0
    5.3698    4.0226   10.1177 Cl  0  0  0  0  0  0  0  0  0  0  0  0
    2.0562    4.8446    8.2556 Cl  0  0  0  0  0  0  0  0  0  0  0  0
    3.7302    6.9042   10.7177 N   0  0  0  0  0  0  0  0  0  0  0  0
    3.6388    8.1778   10.6174 C   0  0  2  0  0  3  0  0  0  0  0  0
    4.0293    8.8862   11.6809 O   0  0  0  0  0  0  0  0  0  0  0  0
    4.4629    7.9639   12.6819 C   0  0  0  0  0  0  0  0  0  0  0  0
    3.8698    8.1331   13.5836 H   0  0  0  0  0  0  0  0  0  0  0  0
    5.5169    8.1613   12.8940 H   0  0  0  0  0  0  0  0  0  0  0  0
    4.2237    6.5826   12.0450 C   0  0  0  0  0  0  0  0  0  0  0  0
    5.1280    5.9785   11.9610 H   0  0  0  0  0  0  0  0  0  0  0  0
    3.4673    5.9944   12.5705 H   0  0  0  0  0  0  0  0  0  0  0  0
    3.1498    8.9044    9.4556 C   0  0  0  0  0  0  0  0  0  0  0  0
    2.2753    8.2911    8.5625 C   0  0  0  0  0  0  0  0  0  0  0  0
    1.9230    7.2910    8.7572 H   0  0  0  0  0  0  0  0  0  0  0  0
    1.8355    8.9609    7.4303 C   0  0  0  0  0  0  0  0  0  0  0  0
    2.2815   10.2601    7.2055 C   0  0  0  0  0  0  0  0  0  0  0  0
    1.9533   10.7900    6.3222 H   0  0  0  0  0  0  0  0  0  0  0  0
    3.1261   10.8862    8.1073 C   0  0  0  0  0  0  0  0  0  0  0  0
    3.4487   11.9008    7.9254 H   0  0  0  0  0  0  0  0  0  0  0  0
    3.5575   10.2201    9.2385 C   0  0  0  0  0  0  0  0  0  0  0  0
    4.2148   10.6968    9.9483 H   0  0  0  0  0  0  0  0  0  0  0  0
    0.8830    8.2940    6.4877 C   0  0  0  0  0  0  0  0  0  0  0  0
    1.1580    8.4818    5.4513 H   0  0  0  0  0  0  0  0  0  0  0  0
   -0.1217    8.6883    6.6394 H   0  0  0  0  0  0  0  0  0  0  0  0
    0.8555    7.2223    6.6673 H   0  0  0  0  0  0  0  0  0  0  0  0
    4.8797    6.5628    7.6568 N   0  0  0  0  0  0  0  0  0  0  0  0
    5.5777    7.6350    7.7023 C   0  0  1  0  0  3  0  0  0  0  0  0
    5.5969    8.3773    6.5908 O   0  0  0  0  0  0  0  0  0  0  0  0
    4.7726    7.7300    5.6211 C   0  0  0  0  0  0  0  0  0  0  0  0
    5.3715    7.5505    4.7257 H   0  0  0  0  0  0  0  0  0  0  0  0
    3.9430    8.3994    5.3787 H   0  0  0  0  0  0  0  0  0  0  0  0
    4.3185    6.4377    6.3229 C   0  0  0  0  0  0  0  0  0  0  0  0
    3.2353    6.3357    6.3911 H   0  0  0  0  0  0  0  0  0  0  0  0
    4.7189    5.5342    5.8561 H   0  0  0  0  0  0  0  0  0  0  0  0
    6.3410    8.1156    8.8447 C   0  0  0  0  0  0  0  0  0  0  0  0
    6.6040    9.4814    8.9531 C   0  0  0  0  0  0  0  0  0  0  0  0
    6.2502   10.1436    8.1774 H   0  0  0  0  0  0  0  0  0  0  0  0
    7.2929    9.9864   10.0432 C   0  0  0  0  0  0  0  0  0  0  0  0
    7.7392    9.0991   11.0192 C   0  0  0  0  0  0  0  0  0  0  0  0
    8.2784    9.4825   11.8740 H   0  0  0  0  0  0  0  0  0  0  0  0
    7.5124    7.7391   10.8985 C   0  0  0  0  0  0  0  0  0  0  0  0
    7.8858    7.0600   11.6505 H   0  0  0  0  0  0  0  0  0  0  0  0
    6.8131    7.2361    9.8157 C   0  0  0  0  0  0  0  0  0  0  0  0
    6.6510    6.1750    9.7154 H   0  0  0  0  0  0  0  0  0  0  0  0
    7.5470   11.4556   10.1840 C   0  0  0  0  0  0  0  0  0  0  0  0
    6.9943   11.8527   11.0353 H   0  0  0  0  0  0  0  0  0  0  0  0
    7.2386   11.9914    9.2902 H   0  0  0  0  0  0  0  0  0  0  0  0
    8.6046   11.6448   10.3590 H   0  0  0  0  0  0  0  0  0  0  0  0
  1  2  1  0  0  0  0
  1  4  1  0  0  0  0
  3  1  1  0  0  0  0
  4 10  1  0  0  0  0
  5 13  1  1  0  0  0
  5  4  1  0  0  0  0
  5  6  1  0  0  0  0
  6  7  1  0  0  0  0
  7  9  1  0  0  0  0
  7  8  1  0  0  0  0
 10 12  1  0  0  0  0
 10  7  1  0  0  0  0
 11 10  1  0  0  0  0
 14 15  1  0  0  0  0
 14 13  2  0  0  0  0
 16 14  1  0  0  0  0
 17 16  2  0  0  0  0
 17 19  1  0  0  0  0
 18 17  1  0  0  0  0
 19 21  2  0  0  0  0
 20 19  1  0  0  0  0
 21 13  1  0  0  0  0
 21 22  1  0  0  0  0
 23 25  1  0  0  0  0
 23 26  1  0  0  0  0
 23 16  1  0  0  0  0
 24 23  1  0  0  0  0
 27 28  1  0  0  0  0
 27  1  1  0  0  0  0
 28 36  1  1  0  0  0
 29 28  1  0  0  0  0
 30 33  1  0  0  0  0
 30 29  1  0  0  0  0
 31 30  1  0  0  0  0
 32 30  1  0  0  0  0
 33 34  1  0  0  0  0
 33 27  1  0  0  0  0
 35 33  1  0  0  0  0
 36 37  2  0  0  0  0
 36 44  1  0  0  0  0
 37 39  1  0  0  0  0
 38 37  1  0  0  0  0
 39 46  1  0  0  0  0
 39 40  2  0  0  0  0
 40 41  1  0  0  0  0
 42 40  1  0  0  0  0
 42 43  1  0  0  0  0
 44 42  2  0  0  0  0
 45 44  1  0  0  0  0
 46 49  1  0  0  0  0
 46 47  1  0  0  0  0
 48 46  1  0  0  0  0
M  END
$$$$
