CSD_code = YOQCAK | q = 0 | S = 0 | Stoichiometry = C22H15Cl2N2O3ReS | MND = 6
 OpenBabel04212202123D

 46 49  0  0  0  0  0  0  0  0999 V2000
    9.8262    0.6017    2.4046 C   0  0  0  0  0  2  0  0  0  0  0  0
    9.5393    2.8411    4.1257 C   0  0  0  0  0  2  0  0  0  0  0  0
   10.6068    0.2757    5.0530 C   0  0  0  0  0  2  0  0  0  0  0  0
    5.9951    0.9891    4.2715 C   0  0  0  0  0  0  0  0  0  0  0  0
    4.6941    0.8001    3.7928 C   0  0  0  0  0  0  0  0  0  0  0  0
    4.5286    0.8603    2.7283 H   0  0  0  0  0  0  0  0  0  0  0  0
    3.6569    0.5236    4.6585 C   0  0  0  0  0  0  0  0  0  0  0  0
    2.6623    0.3754    4.2664 H   0  0  0  0  0  0  0  0  0  0  0  0
    3.8893    0.4158    6.0218 C   0  0  0  0  0  0  0  0  0  0  0  0
    3.0823    0.1816    6.6983 H   0  0  0  0  0  0  0  0  0  0  0  0
    5.1679    0.6018    6.5154 C   0  0  0  0  0  0  0  0  0  0  0  0
    5.3718    0.5063    7.5708 H   0  0  0  0  0  0  0  0  0  0  0  0
    6.2053    0.9031    5.6498 C   0  0  0  0  0  0  0  0  0  0  0  0
    7.5999    2.9675    6.7992 C   0  0  0  0  0  0  0  0  0  0  0  0
    8.5741    3.2560    7.1917 H   0  0  0  0  0  0  0  0  0  0  0  0
    7.3878    3.5216    5.8857 H   0  0  0  0  0  0  0  0  0  0  0  0
    6.5159    3.1084    7.8085 C   0  0  0  0  0  0  0  0  0  0  0  0
    6.7474    2.7711    9.1381 C   0  0  0  0  0  0  0  0  0  0  0  0
    7.7319    2.4423    9.4382 H   0  0  0  0  0  0  0  0  0  0  0  0
    5.7271    2.8502   10.0671 C   0  0  0  0  0  0  0  0  0  0  0  0
    5.9172    2.5880   11.0971 H   0  0  0  0  0  0  0  0  0  0  0  0
    4.4628    3.2625    9.6774 C   0  0  0  0  0  0  0  0  0  0  0  0
    3.6660    3.3219   10.4033 H   0  0  0  0  0  0  0  0  0  0  0  0
    4.2241    3.5989    8.3561 C   0  0  0  0  0  0  0  0  0  0  0  0
    3.2411    3.9214    8.0474 H   0  0  0  0  0  0  0  0  0  0  0  0
    5.2440    3.5182    7.4244 C   0  0  0  0  0  0  0  0  0  0  0  0
    5.0534    3.7818    6.3932 H   0  0  0  0  0  0  0  0  0  0  0  0
    7.4988    1.5901    1.1320 C   0  0  0  0  0  0  0  0  0  0  0  0
    7.3975    0.7767   -0.0046 C   0  0  0  0  0  0  0  0  0  0  0  0
    6.7642   -0.0957    0.0324 H   0  0  0  0  0  0  0  0  0  0  0  0
    8.1479    1.0512   -1.1251 C   0  0  0  0  0  0  0  0  0  0  0  0
    8.1003    0.4039   -1.9864 H   0  0  0  0  0  0  0  0  0  0  0  0
    8.9653    2.1752   -1.1464 C   0  0  0  0  0  0  0  0  0  0  0  0
    9.0294    3.0264   -0.0527 C   0  0  0  0  0  0  0  0  0  0  0  0
    9.6447    3.9111   -0.0911 H   0  0  0  0  0  0  0  0  0  0  0  0
    8.3140    2.7297    1.0883 C   0  0  0  0  0  0  0  0  0  0  0  0
    8.3352    3.4055    1.9291 H   0  0  0  0  0  0  0  0  0  0  0  0
    7.0677    1.2375    3.3874 N   0  0  0  0  0  0  0  0  0  0  0  0
    6.6848    1.2940    2.1873 N   0  0  0  0  0  2  0  0  0  0  0  0
    9.8221    3.9569    4.1576 O   0  0  0  0  0  1  0  0  0  0  0  0
   11.4061   -0.2940    5.6244 O   0  0  0  0  0  1  0  0  0  0  0  0
   10.3546    0.2859    1.4371 O   0  0  0  0  0  1  0  0  0  0  0  0
    7.8192    1.1761    6.3443 S   0  0  2  0  0  3  0  0  0  0  0  0
    8.2257   -1.2330    4.4256 Cl  0  0  0  0  0  0  0  0  0  0  0  0
    9.8912    2.5266   -2.5541 Cl  0  0  0  0  0  0  0  0  0  0  0  0
    9.0144    0.9765    4.1388 Re  0  0  0  0  0  0  0  0  0  0  0  0
  1 46  1  0  0  0  0
  2 46  1  0  0  0  0
  2 40  1  0  0  0  0
  3 41  1  0  0  0  0
  4 13  1  0  0  0  0
  5  4  2  0  0  0  0
  5  7  1  0  0  0  0
  6  5  1  0  0  0  0
  7  9  2  0  0  0  0
  8  7  1  0  0  0  0
  9 11  1  0  0  0  0
  9 10  1  0  0  0  0
 11 12  1  0  0  0  0
 13 43  1  0  0  0  0
 13 11  2  0  0  0  0
 14 15  1  0  0  0  0
 14 17  1  0  0  0  0
 16 14  1  0  0  0  0
 17 18  1  0  0  0  0
 18 19  1  0  0  0  0
 18 20  2  0  0  0  0
 20 21  1  0  0  0  0
 22 20  1  0  0  0  0
 22 23  1  0  0  0  0
 24 22  2  0  0  0  0
 25 24  1  0  0  0  0
 26 17  2  0  0  0  0
 26 24  1  0  0  0  0
 27 26  1  0  0  0  0
 28 39  1  0  0  0  0
 29 30  1  0  0  0  0
 29 28  2  0  0  0  0
 31 29  1  0  0  0  0
 32 31  1  0  0  0  0
 33 31  2  0  0  0  0
 33 34  1  0  0  0  0
 34 36  2  0  0  0  0
 35 34  1  0  0  0  0
 36 28  1  0  0  0  0
 36 37  1  0  0  0  0
 38 46  1  0  0  0  0
 38  4  1  0  0  0  0
 39 38  1  0  0  0  0
 42  1  1  0  0  0  0
 43 14  1  6  0  0  0
 45 33  1  0  0  0  0
 46 44  1  0  0  0  0
 46  3  1  0  0  0  0
 46 43  1  0  0  0  0
M  END
$$$$
