CSD_code = YOQDAK | q = 0 | S = 0 | Stoichiometry = C12H15Br2NO2Zn | MND = 4
 OpenBabel04212202123D

 33 34  0  0  1  0  0  0  0  0999 V2000
   -3.0247    2.4327    1.3560 Zn  0  0  0  0  0  0  0  0  0  0  0  0
   -4.6875    1.6363    2.8159 Br  0  0  0  0  0  0  0  0  0  0  0  0
   -2.3947    2.5169   -0.8889 Br  0  0  0  0  0  0  0  0  0  0  0  0
   -0.8604    4.2324    4.4059 O   0  0  0  0  0  0  0  0  0  0  0  0
   -1.4117    0.9104    2.0546 O   0  0  0  0  0  0  0  0  0  0  0  0
   -1.8001    3.6349    2.4859 N   0  0  0  0  0  0  0  0  0  0  0  0
   -1.5512    5.0645    2.3115 C   0  0  0  0  0  0  0  0  0  0  0  0
   -0.9695    5.4596    3.6928 C   0  0  0  0  0  0  0  0  0  0  0  0
    0.0237    5.9077    3.6208 H   0  0  0  0  0  0  0  0  0  0  0  0
   -1.6298    6.1281    4.2530 H   0  0  0  0  0  0  0  0  0  0  0  0
   -1.3747    3.2706    3.6392 C   0  0  2  0  0  3  0  0  0  0  0  0
   -1.3944    1.9287    4.2015 C   0  0  0  0  0  0  0  0  0  0  0  0
   -1.3809    1.8114    5.5924 C   0  0  0  0  0  0  0  0  0  0  0  0
   -1.3757    2.7145    6.1818 H   0  0  0  0  0  0  0  0  0  0  0  0
   -1.3902    0.5750    6.2017 C   0  0  0  0  0  0  0  0  0  0  0  0
   -1.3936    0.5011    7.2772 H   0  0  0  0  0  0  0  0  0  0  0  0
   -1.4018   -0.5676    5.4195 C   0  0  0  0  0  0  0  0  0  0  0  0
   -1.4167   -1.5425    5.8815 H   0  0  0  0  0  0  0  0  0  0  0  0
   -1.4001   -0.4763    4.0397 C   0  0  0  0  0  0  0  0  0  0  0  0
   -1.4223   -1.3812    3.4553 H   0  0  0  0  0  0  0  0  0  0  0  0
   -1.4058    0.7639    3.4113 C   0  0  0  0  0  0  0  0  0  0  0  0
   -2.8582    5.7902    2.0032 C   0  0  0  0  0  0  0  0  0  0  0  0
   -3.2514    5.4632    1.0413 H   0  0  0  0  0  0  0  0  0  0  0  0
   -2.6820    6.8618    1.9527 H   0  0  0  0  0  0  0  0  0  0  0  0
   -3.6018    5.5903    2.7736 H   0  0  0  0  0  0  0  0  0  0  0  0
   -0.5365    5.2686    1.1863 C   0  0  0  0  0  0  0  0  0  0  0  0
    0.3877    4.7381    1.4075 H   0  0  0  0  0  0  0  0  0  0  0  0
   -0.3209    6.3280    1.0745 H   0  0  0  0  0  0  0  0  0  0  0  0
   -0.9293    4.8918    0.2456 H   0  0  0  0  0  0  0  0  0  0  0  0
   -1.0875   -0.2185    1.2537 C   0  0  0  0  0  0  0  0  0  0  0  0
   -0.1542   -0.6734    1.5923 H   0  0  0  0  0  0  0  0  0  0  0  0
   -0.9596    0.1600    0.2400 H   0  0  0  0  0  0  0  0  0  0  0  0
   -1.8928   -0.9584    1.2623 H   0  0  0  0  0  0  0  0  0  0  0  0
  1  6  1  0  0  0  0
  1  2  1  0  0  0  0
  3  1  1  0  0  0  0
  5 21  1  0  0  0  0
  6 11  1  0  0  0  0
  7  6  1  0  0  0  0
  7  8  1  0  0  0  0
  8 10  1  0  0  0  0
  8  4  1  0  0  0  0
  9  8  1  0  0  0  0
 11 12  1  1  0  0  0
 11  4  1  0  0  0  0
 12 13  1  0  0  0  0
 13 14  1  0  0  0  0
 13 15  2  0  0  0  0
 15 16  1  0  0  0  0
 17 18  1  0  0  0  0
 17 15  1  0  0  0  0
 19 17  2  0  0  0  0
 20 19  1  0  0  0  0
 21 19  1  0  0  0  0
 21 12  2  0  0  0  0
 22  7  1  0  0  0  0
 22 25  1  0  0  0  0
 23 22  1  0  0  0  0
 24 22  1  0  0  0  0
 26 27  1  0  0  0  0
 26  7  1  0  0  0  0
 28 26  1  0  0  0  0
 29 26  1  0  0  0  0
 30 33  1  0  0  0  0
 30 31  1  0  0  0  0
 30  5  1  0  0  0  0
 32 30  1  0  0  0  0
M  END
$$$$
