CSD_code = YOQFIU | q = 0 | S = 0 | Stoichiometry = C10H7F7IIrO4 | MND = 6
 OpenBabel04212202123D

 30 30  0  0  1  0  0  0  0  0999 V2000
    0.9991   11.5147    8.8710 Ir  0  0  0  0  0  0  0  0  0  0  0  0
    3.5529   10.6443    8.6988 I   0  0  0  0  0  0  0  0  0  0  0  0
   -1.8039   10.8213    8.9742 F   0  0  0  0  0  0  0  0  0  0  0  0
   -1.3561   12.4731   10.2881 F   0  0  0  0  0  0  0  0  0  0  0  0
   -0.9886   14.1410    8.1540 F   0  0  0  0  0  0  0  0  0  0  0  0
   -1.3698   12.5263    6.7649 F   0  0  0  0  0  0  0  0  0  0  0  0
   -3.8616   12.1184    7.8736 F   0  0  0  0  0  0  0  0  0  0  0  0
   -3.5132   13.6881    9.3048 F   0  0  0  0  0  0  0  0  0  0  0  0
   -3.5265   14.1313    7.2038 F   0  0  0  0  0  0  0  0  0  0  0  0
    0.4247   10.1530    7.4536 O   0  0  0  0  0  0  0  0  0  0  0  0
    0.6030   10.1302   10.3305 O   0  0  0  0  0  0  0  0  0  0  0  0
    1.8907   13.2920   11.1546 O   0  0  0  0  0  1  0  0  0  0  0  0
    1.7248   13.2618    6.5054 O   0  0  0  0  0  1  0  0  0  0  0  0
    0.1319    8.9369    7.6648 C   0  0  1  0  0  3  0  0  0  0  0  0
    0.0783    8.3002    8.9038 C   0  0  0  0  0  0  0  0  0  0  0  0
   -0.1767    7.2535    8.9118 H   0  0  0  0  0  0  0  0  0  0  0  0
    0.2897    8.9173   10.1364 C   0  0  0  0  0  0  0  0  0  0  0  0
   -0.1856    8.1267    6.4384 C   0  0  0  0  0  0  0  0  0  0  0  0
   -0.1425    8.7600    5.5568 H   0  0  0  0  0  0  0  0  0  0  0  0
   -1.1782    7.6928    6.5289 H   0  0  0  0  0  0  0  0  0  0  0  0
    0.5361    7.3188    6.3401 H   0  0  0  0  0  0  0  0  0  0  0  0
    0.1365    8.0829   11.3788 C   0  0  0  0  0  0  0  0  0  0  0  0
    0.2752    8.7028   12.2603 H   0  0  0  0  0  0  0  0  0  0  0  0
    0.8807    7.2894   11.3747 H   0  0  0  0  0  0  0  0  0  0  0  0
   -0.8510    7.6287   11.4016 H   0  0  0  0  0  0  0  0  0  0  0  0
    1.5402   12.7014   10.2601 C   0  0  0  0  0  2  0  0  0  0  0  0
    1.4171   12.6929    7.4293 C   0  0  0  0  0  2  0  0  0  0  0  0
   -1.0676   11.9620    9.0549 C   0  0  0  0  0  0  0  0  0  0  0  0
   -1.6361   12.9567    8.0184 C   0  0  0  0  0  0  0  0  0  0  0  0
   -3.1639   13.2250    8.1103 C   0  0  0  0  0  0  0  0  0  0  0  0
  1 28  1  0  0  0  0
  1 26  1  0  0  0  0
  1 11  1  0  0  0  0
  2  1  1  0  0  0  0
  3 28  1  0  0  0  0
  6 29  1  0  0  0  0
  7 30  1  0  0  0  0
  9 30  1  0  0  0  0
 10 14  1  0  0  0  0
 10  1  1  0  0  0  0
 13 27  1  0  0  0  0
 14 18  1  1  0  0  0
 14 15  1  0  0  0  0
 15 16  1  0  0  0  0
 15 17  2  0  0  0  0
 17 11  1  0  0  0  0
 17 22  1  0  0  0  0
 18 20  1  0  0  0  0
 19 18  1  0  0  0  0
 21 18  1  0  0  0  0
 22 25  1  0  0  0  0
 22 23  1  0  0  0  0
 24 22  1  0  0  0  0
 26 12  1  0  0  0  0
 27  1  1  0  0  0  0
 28  4  1  0  0  0  0
 29 30  1  0  0  0  0
 29  5  1  0  0  0  0
 29 28  1  0  0  0  0
 30  8  1  0  0  0  0
M  END
$$$$
