CSD_code = YORFES | q = -1 | S = 0 | Stoichiometry = C10H15Cl3Ir(1-) | MND = 8
 OpenBabel04212202123D

 29 27  0  0  1  0  0  0  0  0999 V2000
    5.0103    7.7334   15.0722 Ir  0  0  0  0  0  0  0  0  0  0  0  0
    2.6880    7.6009   15.2737 Cl  0  0  0  0  0 15  0  0  0  0  0  0
    5.2835    7.5862   17.4056 Cl  0  0  0  0  0 15  0  0  0  0  0  0
    4.8843   10.0676   15.1546 Cl  0  0  0  0  0 15  0  0  0  0  0  0
    6.0091    5.7880   14.5563 C   0  0  2  0  0  0  0  0  0  0  0  0
    7.0096    6.8311   14.5574 C   0  0  0  0  0  0  0  0  0  0  0  0
    6.6847    7.7500   13.5318 C   0  0  0  0  0  0  0  0  0  0  0  0
    5.4527    7.3204   12.9300 C   0  0  1  0  0  0  0  0  0  0  0  0
    5.0877    6.0653   13.5157 C   0  0  1  0  0  3  0  0  0  0  0  0
    8.2275    6.8072   15.4244 C   0  0  0  0  0  0  0  0  0  0  0  0
    8.8350    5.9266   15.2014 H   0  0  0  0  0  0  0  0  0  0  0  0
    7.9347    6.7650   16.4733 H   0  0  0  0  0  0  0  0  0  0  0  0
    8.8313    7.6997   15.2774 H   0  0  0  0  0  0  0  0  0  0  0  0
    7.4652    8.9463   13.0902 C   0  0  0  0  0  0  0  0  0  0  0  0
    8.4540    8.9571   13.5437 H   0  0  0  0  0  0  0  0  0  0  0  0
    6.9450    9.8599   13.3830 H   0  0  0  0  0  0  0  0  0  0  0  0
    7.5743    8.9434   12.0048 H   0  0  0  0  0  0  0  0  0  0  0  0
    4.8196    7.9382   11.7235 C   0  0  0  0  0  0  0  0  0  0  0  0
    5.2785    7.5542   10.8069 H   0  0  0  0  0  0  0  0  0  0  0  0
    4.9422    9.0187   11.7468 H   0  0  0  0  0  0  0  0  0  0  0  0
    3.7552    7.7160   11.6999 H   0  0  0  0  0  0  0  0  0  0  0  0
    3.9383    5.2189   13.0703 C   0  0  0  0  0  0  0  0  0  0  0  0
    4.0301    4.2057   13.4561 H   0  0  0  0  0  0  0  0  0  0  0  0
    3.9003    5.1797   11.9814 H   0  0  0  0  0  0  0  0  0  0  0  0
    2.9998    5.6411   13.4348 H   0  0  0  0  0  0  0  0  0  0  0  0
    6.0875    4.5617   15.4084 C   0  0  0  0  0  0  0  0  0  0  0  0
    5.1666    3.9867   15.3499 H   0  0  0  0  0  0  0  0  0  0  0  0
    6.2454    4.8433   16.4485 H   0  0  0  0  0  0  0  0  0  0  0  0
    6.9216    3.9290   15.0921 H   0  0  0  0  0  0  0  0  0  0  0  0
  5  6  1  0  0  0  0
  5  1  1  0  0  0  0
  5 26  1  1  0  0  0
  6 10  1  0  0  0  0
  7  6  2  0  0  0  0
  8 18  1  6  0  0  0
  8  9  1  0  0  0  0
  8  7  1  0  0  0  0
  8  1  1  0  0  0  0
  9 22  1  6  0  0  0
  9  5  1  0  0  0  0
 10 12  1  0  0  0  0
 11 10  1  0  0  0  0
 13 10  1  0  0  0  0
 14 16  1  0  0  0  0
 14  7  1  0  0  0  0
 14 15  1  0  0  0  0
 17 14  1  0  0  0  0
 18 20  1  0  0  0  0
 19 18  1  0  0  0  0
 21 18  1  0  0  0  0
 22 25  1  0  0  0  0
 22 23  1  0  0  0  0
 24 22  1  0  0  0  0
 26 28  1  0  0  0  0
 27 26  1  0  0  0  0
 29 26  1  0  0  0  0
M  END
$$$$
