CSD_code = YORTIJ | q = 0 | S = 0 | Stoichiometry = C15H29ClN6Ti | MND = 8
 OpenBabel04212202123D

 52 52  0  0  1  0  0  0  0  0999 V2000
   -0.0337    4.1092   14.4583 Ti  0  0  0  0  0  0  0  0  0  0  0  0
   -2.2224    3.8439   14.8172 Cl  0  0  0  0  0  0  0  0  0  0  0  0
    0.2158    3.1337   12.9806 N   0  0  0  0  0  2  0  0  0  0  0  0
    1.4959    1.3496   12.1779 N   0  0  0  0  0  0  0  0  0  0  0  0
   -0.7553    1.5688   11.5452 N   0  0  0  0  0  0  0  0  0  0  0  0
    0.6020    3.0098   15.7265 N   0  0  0  0  0  2  0  0  0  0  0  0
    2.0702    1.8941   17.1428 N   0  0  0  0  0  0  0  0  0  0  0  0
    0.0848    0.8434   16.4993 N   0  0  0  0  0  0  0  0  0  0  0  0
   -0.2664    6.2567   13.4673 C   0  0  0  0  0  0  0  0  0  0  0  0
   -0.9556    6.5241   12.6748 H   0  0  0  0  0  0  0  0  0  0  0  0
    1.0693    5.8459   13.2973 C   0  0  0  0  0  0  0  0  0  0  0  0
    1.5912    5.7504   12.3518 H   0  0  0  0  0  0  0  0  0  0  0  0
    1.6514    5.7129   14.5778 C   0  0  1  0  0  0  0  0  0  0  0  0
    2.6987    5.5189   14.7792 H   0  0  0  0  0  0  0  0  0  0  0  0
    0.6733    6.0634   15.5363 C   0  0  0  0  0  0  0  0  0  0  0  0
    0.8389    6.1791   16.6019 H   0  0  0  0  0  0  0  0  0  0  0  0
   -0.5058    6.4001   14.8468 C   0  0  0  0  0  0  0  0  0  0  0  0
   -1.4136    6.7881   15.2942 H   0  0  0  0  0  0  0  0  0  0  0  0
    0.3090    2.0794   12.2956 C   0  0  0  0  0  3  0  0  0  0  0  0
    2.5981    1.8037   12.9972 C   0  0  0  0  0  0  0  0  0  0  0  0
    2.2042    2.1228   13.9666 H   0  0  0  0  0  0  0  0  0  0  0  0
    3.1293    2.6503   12.5393 H   0  0  0  0  0  0  0  0  0  0  0  0
    3.2967    0.9757   13.1279 H   0  0  0  0  0  0  0  0  0  0  0  0
    1.9123    0.8794   10.8723 C   0  0  0  0  0  0  0  0  0  0  0  0
    1.0526    0.7800   10.2171 H   0  0  0  0  0  0  0  0  0  0  0  0
    2.4075   -0.0899   10.9707 H   0  0  0  0  0  0  0  0  0  0  0  0
    2.6190    1.5821   10.4131 H   0  0  0  0  0  0  0  0  0  0  0  0
   -1.9463    2.3965   11.5372 C   0  0  0  0  0  0  0  0  0  0  0  0
   -1.6551    3.4286   11.3374 H   0  0  0  0  0  0  0  0  0  0  0  0
   -2.4802    2.3673   12.4963 H   0  0  0  0  0  0  0  0  0  0  0  0
   -2.6042    2.0429   10.7434 H   0  0  0  0  0  0  0  0  0  0  0  0
   -1.0570    0.1551   11.6610 C   0  0  0  0  0  0  0  0  0  0  0  0
   -0.1596   -0.4033   11.9112 H   0  0  0  0  0  0  0  0  0  0  0  0
   -1.4582   -0.2102   10.7127 H   0  0  0  0  0  0  0  0  0  0  0  0
   -1.8053   -0.0181   12.4443 H   0  0  0  0  0  0  0  0  0  0  0  0
    0.8894    1.9861   16.4013 C   0  0  0  0  0  3  0  0  0  0  0  0
    2.9076    3.0708   17.1561 C   0  0  0  0  0  0  0  0  0  0  0  0
    2.2731    3.9508   17.2568 H   0  0  0  0  0  0  0  0  0  0  0  0
    3.4995    3.1685   16.2352 H   0  0  0  0  0  0  0  0  0  0  0  0
    3.5847    3.0081   18.0089 H   0  0  0  0  0  0  0  0  0  0  0  0
    2.8179    0.6551   17.1465 C   0  0  0  0  0  0  0  0  0  0  0  0
    2.1685   -0.1730   16.8793 H   0  0  0  0  0  0  0  0  0  0  0  0
    3.2406    0.4793   18.1390 H   0  0  0  0  0  0  0  0  0  0  0  0
    3.6422    0.6993   16.4236 H   0  0  0  0  0  0  0  0  0  0  0  0
   -0.2522    0.3659   17.8263 C   0  0  0  0  0  0  0  0  0  0  0  0
    0.5516    0.5860   18.5226 H   0  0  0  0  0  0  0  0  0  0  0  0
   -0.4153   -0.7137   17.7922 H   0  0  0  0  0  0  0  0  0  0  0  0
   -1.1706    0.8436   18.1910 H   0  0  0  0  0  0  0  0  0  0  0  0
   -1.0342    0.7741   15.5823 C   0  0  0  0  0  0  0  0  0  0  0  0
   -0.7175    1.1670   14.6121 H   0  0  0  0  0  0  0  0  0  0  0  0
   -1.8956    1.3601   15.9289 H   0  0  0  0  0  0  0  0  0  0  0  0
   -1.3292   -0.2726   15.4842 H   0  0  0  0  0  0  0  0  0  0  0  0
  1 13  1  0  0  0  0
  1  2  1  0  0  0  0
  1  6  1  0  0  0  0
  3  1  1  0  0  0  0
  4 19  1  0  0  0  0
  4 20  1  0  0  0  0
  5 32  1  0  0  0  0
  5 19  1  0  0  0  0
  6 36  1  0  0  0  0
  7 41  1  0  0  0  0
  7 37  1  0  0  0  0
  8 45  1  0  0  0  0
  9 17  1  0  0  0  0
 10  9  1  0  0  0  0
 11  9  2  0  0  0  0
 11 13  1  0  0  0  0
 12 11  1  0  0  0  0
 13 14  1  1  0  0  0
 13 15  1  0  0  0  0
 15 16  1  0  0  0  0
 17 18  1  0  0  0  0
 17 15  2  0  0  0  0
 19  3  1  0  0  0  0
 20 23  1  0  0  0  0
 20 21  1  0  0  0  0
 22 20  1  0  0  0  0
 24 26  1  0  0  0  0
 24  4  1  0  0  0  0
 25 24  1  0  0  0  0
 27 24  1  0  0  0  0
 28  5  1  0  0  0  0
 28 30  1  0  0  0  0
 29 28  1  0  0  0  0
 31 28  1  0  0  0  0
 32 33  1  0  0  0  0
 32 35  1  0  0  0  0
 34 32  1  0  0  0  0
 36  8  1  0  0  0  0
 36  7  1  0  0  0  0
 37 38  1  0  0  0  0
 37 40  1  0  0  0  0
 39 37  1  0  0  0  0
 41 43  1  0  0  0  0
 42 41  1  0  0  0  0
 44 41  1  0  0  0  0
 45 48  1  0  0  0  0
 45 46  1  0  0  0  0
 47 45  1  0  0  0  0
 49 51  1  0  0  0  0
 49  8  1  0  0  0  0
 50 49  1  0  0  0  0
 52 49  1  0  0  0  0
M  END
$$$$
