CSD_code = YORTOP | q = 0 | S = 0 | Stoichiometry = C15H22ClN3Ti | MND = 12
 OpenBabel04212202123D

 42 43  0  0  1  0  0  0  0  0999 V2000
   10.5500    0.4305    6.0521 Ti  0  0  1  0  0  0  0  0  0  0  0  0
   11.0285    0.8533    8.2313 Cl  0  0  0  0  0  0  0  0  0  0  0  0
   11.4314    1.8136    5.3731 N   0  0  0  0  0  2  0  0  0  0  0  0
   12.2704    3.0157    3.5714 N   0  0  0  0  0  0  0  0  0  0  0  0
   12.8850    3.6285    5.7365 N   0  0  0  0  0  0  0  0  0  0  0  0
   10.6234   -1.9052    5.4641 C   0  0  0  0  0  0  0  0  0  0  0  0
    9.7734   -2.5629    5.3412 H   0  0  0  0  0  0  0  0  0  0  0  0
   11.2828   -1.2178    4.4231 C   0  0  0  0  0  0  0  0  0  0  0  0
   11.0205   -1.2625    3.3731 H   0  0  0  0  0  0  0  0  0  0  0  0
   12.4624   -0.6552    4.9535 C   0  0  0  0  0  0  0  0  0  0  0  0
   13.2421   -0.1585    4.3895 H   0  0  0  0  0  0  0  0  0  0  0  0
   12.5022   -0.9495    6.3275 C   0  0  0  0  0  0  0  0  0  0  0  0
   13.3123   -0.7129    7.0069 H   0  0  0  0  0  0  0  0  0  0  0  0
   11.3594   -1.7216    6.6434 C   0  0  1  0  0  0  0  0  0  0  0  0
   11.1608   -2.1834    7.6029 H   0  0  0  0  0  0  0  0  0  0  0  0
    8.3559    0.8355    7.0554 C   0  0  0  0  0  0  0  0  0  0  0  0
    8.1510    0.8686    8.1173 H   0  0  0  0  0  0  0  0  0  0  0  0
    8.6765    1.9459    6.2472 C   0  0  0  0  0  0  0  0  0  0  0  0
    8.7411    2.9748    6.5806 H   0  0  0  0  0  0  0  0  0  0  0  0
    8.7429    1.5023    4.9083 C   0  0  0  0  0  3  0  0  0  0  0  0
    8.8463    2.1369    4.0377 H   0  0  0  0  0  0  0  0  0  0  0  0
    8.4965    0.1152    4.8997 C   0  0  2  0  0  0  0  0  0  0  0  0
    8.3599   -0.4925    4.0138 H   0  0  0  0  0  0  0  0  0  0  0  0
    8.2555   -0.2929    6.2311 C   0  0  0  0  0  3  0  0  0  0  0  0
    7.9146   -1.2703    6.5472 H   0  0  0  0  0  0  0  0  0  0  0  0
   12.1455    2.7491    4.9180 C   0  0  0  0  0  3  0  0  0  0  0  0
   11.6216    2.1627    2.6071 C   0  0  0  0  0  0  0  0  0  0  0  0
   11.3000    1.2473    3.1065 H   0  0  0  0  0  0  0  0  0  0  0  0
   12.3218    1.9195    1.8033 H   0  0  0  0  0  0  0  0  0  0  0  0
   10.7484    2.6571    2.1659 H   0  0  0  0  0  0  0  0  0  0  0  0
   12.6391    4.3185    3.0731 C   0  0  0  0  0  0  0  0  0  0  0  0
   12.8530    4.9844    3.9042 H   0  0  0  0  0  0  0  0  0  0  0  0
   11.8151    4.7395    2.4872 H   0  0  0  0  0  0  0  0  0  0  0  0
   13.5175    4.2509    2.4240 H   0  0  0  0  0  0  0  0  0  0  0  0
   12.4725    3.6543    7.1271 C   0  0  0  0  0  0  0  0  0  0  0  0
   11.3843    3.6955    7.1754 H   0  0  0  0  0  0  0  0  0  0  0  0
   12.8916    4.5490    7.5885 H   0  0  0  0  0  0  0  0  0  0  0  0
   12.8092    2.7706    7.6820 H   0  0  0  0  0  0  0  0  0  0  0  0
   14.3268    3.5107    5.6075 C   0  0  0  0  0  0  0  0  0  0  0  0
   14.6090    3.4045    4.5636 H   0  0  0  0  0  0  0  0  0  0  0  0
   14.7049    2.6417    6.1629 H   0  0  0  0  0  0  0  0  0  0  0  0
   14.7915    4.4105    6.0130 H   0  0  0  0  0  0  0  0  0  0  0  0
  1 14  1  0  0  0  0
  1  2  1  1  0  0  0
  3  1  1  0  0  0  0
  4 26  1  0  0  0  0
  5 35  1  0  0  0  0
  6 14  1  0  0  0  0
  7  6  1  0  0  0  0
  8 10  1  0  0  0  0
  8  6  2  0  0  0  0
  9  8  1  0  0  0  0
 10 12  2  0  0  0  0
 11 10  1  0  0  0  0
 12 14  1  0  0  0  0
 12 13  1  0  0  0  0
 14 15  1  1  0  0  0
 16 17  1  0  0  0  0
 18 19  1  0  0  0  0
 18 16  2  0  0  0  0
 20 18  1  0  0  0  0
 21 20  1  0  0  0  0
 22 23  1  6  0  0  0
 22 20  1  0  0  0  0
 22  1  1  0  0  0  0
 22 24  1  0  0  0  0
 24 25  1  0  0  0  0
 24 16  1  0  0  0  0
 26  3  1  0  0  0  0
 26  5  1  0  0  0  0
 27 28  1  0  0  0  0
 27  4  1  0  0  0  0
 29 27  1  0  0  0  0
 30 27  1  0  0  0  0
 31  4  1  0  0  0  0
 31 32  1  0  0  0  0
 33 31  1  0  0  0  0
 34 31  1  0  0  0  0
 35 36  1  0  0  0  0
 35 37  1  0  0  0  0
 35 38  1  0  0  0  0
 39  5  1  0  0  0  0
 39 42  1  0  0  0  0
 39 41  1  0  0  0  0
 40 39  1  0  0  0  0
M  END
$$$$
