CSD_code = YORTOR | q = 0 | S = 0 | Stoichiometry = C13H9Cl2N3O2Zn | MND = 4
 OpenBabel04212202123D

 30 33  0  0  1  0  0  0  0  0999 V2000
    3.1593    5.2147    7.5634 Zn  0  0  0  0  0  0  0  0  0  0  0  0
    3.9762    7.0935    8.2423 Cl  0  0  0  0  0  0  0  0  0  0  0  0
    1.3607    2.7951    7.7457 C   0  0  0  0  0  0  0  0  0  0  0  0
    1.9412    0.7657    7.1191 N   0  0  0  0  0  2  0  0  0  0  0  0
    3.6081    3.3674    8.4610 O   0  0  0  0  0  0  0  0  0  0  0  0
    3.0264    1.3330    7.6508 O   0  0  0  0  0  0  0  0  0  0  0  0
    2.4351    4.3896    5.5781 Cl  0  0  0  0  0  0  0  0  0  0  0  0
    2.7519    2.6140    8.0164 C   0  0  0  0  0  0  0  0  0  0  0  0
    0.9856    1.6354    7.1761 N   0  0  0  0  0  0  0  0  0  0  0  0
    1.1970    5.0551    8.4032 N   0  0  0  0  0  0  0  0  0  0  0  0
    0.5445    3.9100    8.1656 C   0  0  2  0  0  3  0  0  0  0  0  0
    0.5298    6.1071    8.8534 C   0  0  0  0  0  0  0  0  0  0  0  0
    1.1225    6.9950    9.0252 H   0  0  0  0  0  0  0  0  0  0  0  0
   -0.8342    6.0813    9.0924 C   0  0  0  0  0  0  0  0  0  0  0  0
   -1.3397    6.9618    9.4533 H   0  0  0  0  0  0  0  0  0  0  0  0
   -1.5221    4.8995    8.8595 C   0  0  0  0  0  0  0  0  0  0  0  0
   -2.5842    4.8339    9.0409 H   0  0  0  0  0  0  0  0  0  0  0  0
   -0.8287    3.7960    8.3983 C   0  0  0  0  0  0  0  0  0  0  0  0
   -1.3369    2.8598    8.2312 H   0  0  0  0  0  0  0  0  0  0  0  0
   -0.2308    1.3648    6.5056 C   0  0  0  0  0  0  0  0  0  0  0  0
   -0.6969    2.3000    5.5891 C   0  0  0  0  0  0  0  0  0  0  0  0
   -0.1257    3.1976    5.4030 H   0  0  0  0  0  0  0  0  0  0  0  0
   -1.8681    2.0303    4.9047 C   0  0  0  0  0  0  0  0  0  0  0  0
   -2.2385    2.7426    4.1844 H   0  0  0  0  0  0  0  0  0  0  0  0
   -2.5548    0.8474    5.1333 C   0  0  0  0  0  0  0  0  0  0  0  0
   -3.4692    0.6453    4.5971 H   0  0  0  0  0  0  0  0  0  0  0  0
   -2.0658   -0.0841    6.0355 C   0  0  0  0  0  0  0  0  0  0  0  0
   -2.5950   -1.0098    6.1999 H   0  0  0  0  0  0  0  0  0  0  0  0
   -0.8920    0.1658    6.7252 C   0  0  0  0  0  0  0  0  0  0  0  0
   -0.4880   -0.5495    7.4239 H   0  0  0  0  0  0  0  0  0  0  0  0
  1  2  1  0  0  0  0
  1 10  1  0  0  0  0
  1  5  1  0  0  0  0
  3  8  2  0  0  0  0
  4  9  1  0  0  0  0
  4  6  1  0  0  0  0
  6  8  1  0  0  0  0
  7  1  1  0  0  0  0
  8  5  1  0  0  0  0
  9  3  1  0  0  0  0
 10 12  1  0  0  0  0
 11  3  1  1  0  0  0
 11 18  1  0  0  0  0
 11 10  1  0  0  0  0
 12 13  1  0  0  0  0
 12 14  2  0  0  0  0
 14 15  1  0  0  0  0
 16 17  1  0  0  0  0
 16 14  1  0  0  0  0
 18 16  2  0  0  0  0
 19 18  1  0  0  0  0
 20 29  1  0  0  0  0
 20  9  1  0  0  0  0
 21 20  2  0  0  0  0
 22 21  1  0  0  0  0
 23 25  2  0  0  0  0
 23 21  1  0  0  0  0
 24 23  1  0  0  0  0
 25 27  1  0  0  0  0
 26 25  1  0  0  0  0
 27 28  1  0  0  0  0
 27 29  2  0  0  0  0
 29 30  1  0  0  0  0
M  END
$$$$
