CSD_code = YORXOT | q = 0 | S = 0 | Stoichiometry = C20H22I2N2NiS2 | MND = 4
 OpenBabel04212202123D

 49 52  0  0  1  0  0  0  0  0999 V2000
    8.4014   12.2862   -0.0004 Ni  0  0  0  0  0  0  0  0  0  0  0  0
    9.2108   14.5035    0.7841 I   0  0  0  0  0  0  0  0  0  0  0  0
    9.3887   10.9490    2.7496 S   0  0  0  0  0  0  0  0  0  0  0  0
    7.0650   11.9077    2.4470 N   0  0  0  0  0  0  0  0  0  0  0  0
    8.1997   11.7326    1.7735 C   0  0  0  0  0  0  0  0  0  0  0  0
    7.0584   11.4449    3.7508 C   0  0  0  0  0  0  0  0  0  0  0  0
    6.0432   11.4776    4.7022 C   0  0  0  0  0  0  0  0  0  0  0  0
    5.0810   11.9094    4.4866 H   0  0  0  0  0  0  0  0  0  0  0  0
    6.2827   10.9415    5.9515 C   0  0  0  0  0  0  0  0  0  0  0  0
    5.4966   10.9656    6.6904 H   0  0  0  0  0  0  0  0  0  0  0  0
    7.5099   10.3731    6.2778 C   0  0  0  0  0  0  0  0  0  0  0  0
    7.6656    9.9618    7.2626 H   0  0  0  0  0  0  0  0  0  0  0  0
    8.5294   10.3324    5.3489 C   0  0  0  0  0  0  0  0  0  0  0  0
    9.4888    9.8975    5.5792 H   0  0  0  0  0  0  0  0  0  0  0  0
    8.2888   10.8700    4.0964 C   0  0  0  0  0  0  0  0  0  0  0  0
    5.9427   12.5597    1.7634 C   0  0  0  0  0  0  0  0  0  0  0  0
    6.3165   12.7860    0.7368 H   0  0  0  0  0  0  0  0  0  0  0  0
    4.7569   11.6123    1.6188 C   0  0  0  0  0  0  0  0  0  0  0  0
    5.0711   10.6815    1.1506 H   0  0  0  0  0  0  0  0  0  0  0  0
    4.0073   12.0758    0.9827 H   0  0  0  0  0  0  0  0  0  0  0  0
    4.3002   11.3799    2.5761 H   0  0  0  0  0  0  0  0  0  0  0  0
    5.5885   13.8877    2.4232 C   0  0  0  0  0  0  0  0  0  0  0  0
    5.1692   13.7522    3.4156 H   0  0  0  0  0  0  0  0  0  0  0  0
    4.8577   14.4062    1.8079 H   0  0  0  0  0  0  0  0  0  0  0  0
    6.4722   14.5176    2.5043 H   0  0  0  0  0  0  0  0  0  0  0  0
    7.5927   10.0707   -0.7843 I   0  0  0  0  0  0  0  0  0  0  0  0
    7.4148   13.6254   -2.7496 S   0  0  0  0  0  0  0  0  0  0  0  0
    9.7387   12.6669   -2.4469 N   0  0  0  0  0  0  0  0  0  0  0  0
    8.6042   12.8427   -1.7732 C   0  0  2  0  0  3  0  0  0  0  0  0
    9.7452   13.1296   -3.7507 C   0  0  0  0  0  0  0  0  0  0  0  0
   10.7603   13.0967   -4.7022 C   0  0  0  0  0  0  0  0  0  0  0  0
   11.7226   12.6650   -4.4866 H   0  0  0  0  0  0  0  0  0  0  0  0
   10.5209   13.6329   -5.9516 C   0  0  0  0  0  0  0  0  0  0  0  0
   11.3071   13.6088   -6.6904 H   0  0  0  0  0  0  0  0  0  0  0  0
    9.2937   14.2013   -6.2777 C   0  0  0  0  0  0  0  0  0  0  0  0
    9.1380   14.6126   -7.2626 H   0  0  0  0  0  0  0  0  0  0  0  0
    8.2742   14.2420   -5.3489 C   0  0  0  0  0  0  0  0  0  0  0  0
    7.3148   14.6769   -5.5792 H   0  0  0  0  0  0  0  0  0  0  0  0
    8.5148   13.7045   -4.0964 C   0  0  0  0  0  0  0  0  0  0  0  0
   10.8610   12.0147   -1.7634 C   0  0  0  0  0  0  0  0  0  0  0  0
   10.4872   11.7885   -0.7368 H   0  0  0  0  0  0  0  0  0  0  0  0
   12.0467   12.9621   -1.6188 C   0  0  0  0  0  0  0  0  0  0  0  0
   11.7326   13.8929   -1.1506 H   0  0  0  0  0  0  0  0  0  0  0  0
   12.7963   12.4985   -0.9827 H   0  0  0  0  0  0  0  0  0  0  0  0
   12.5035   13.1944   -2.5761 H   0  0  0  0  0  0  0  0  0  0  0  0
   11.2151   10.6867   -2.4231 C   0  0  0  0  0  0  0  0  0  0  0  0
   11.6344   10.8222   -3.4155 H   0  0  0  0  0  0  0  0  0  0  0  0
   11.9459   10.1681   -1.8079 H   0  0  0  0  0  0  0  0  0  0  0  0
   10.3314   10.0568   -2.5043 H   0  0  0  0  0  0  0  0  0  0  0  0
  1  2  1  0  0  0  0
  1  5  2  0  0  0  0
  3 15  1  0  0  0  0
  4  6  1  0  0  0  0
  5  4  1  0  0  0  0
  5  3  1  0  0  0  0
  6 15  2  0  0  0  0
  6  7  1  0  0  0  0
  7  9  2  0  0  0  0
  8  7  1  0  0  0  0
  9 11  1  0  0  0  0
  9 10  1  0  0  0  0
 11 12  1  0  0  0  0
 13 14  1  0  0  0  0
 13 11  2  0  0  0  0
 15 13  1  0  0  0  0
 16 22  1  0  0  0  0
 16  4  1  0  0  0  0
 17 16  1  0  0  0  0
 18 16  1  0  0  0  0
 18 21  1  0  0  0  0
 19 18  1  0  0  0  0
 20 18  1  0  0  0  0
 22 25  1  0  0  0  0
 22 23  1  0  0  0  0
 24 22  1  0  0  0  0
 26  1  1  0  0  0  0
 27 29  1  0  0  0  0
 28 29  1  0  0  0  0
 28 40  1  0  0  0  0
 29  1  1  6  0  0  0
 30 28  1  0  0  0  0
 31 32  1  0  0  0  0
 31 30  2  0  0  0  0
 33 31  1  0  0  0  0
 34 33  1  0  0  0  0
 35 33  2  0  0  0  0
 35 37  1  0  0  0  0
 36 35  1  0  0  0  0
 37 39  2  0  0  0  0
 38 37  1  0  0  0  0
 39 30  1  0  0  0  0
 39 27  1  0  0  0  0
 40 42  1  0  0  0  0
 40 41  1  0  0  0  0
 42 43  1  0  0  0  0
 42 44  1  0  0  0  0
 45 42  1  0  0  0  0
 46 48  1  0  0  0  0
 46 40  1  0  0  0  0
 47 46  1  0  0  0  0
 49 46  1  0  0  0  0
M  END
$$$$
