CSD_code = YORXUZ | q = 0 | S = 0 | Stoichiometry = C22H26I2N2NiS2 | MND = 4
 OpenBabel04212202123D

 55 58  0  0  1  0  0  0  0  0999 V2000
    4.3396    7.4396    0.0003 Ni  0  0  0  0  0  0  0  0  0  0  0  0
    2.0812    7.6828    1.0665 I   0  0  0  0  0  0  0  0  0  0  0  0
    5.5365    5.5248    2.1536 S   0  0  0  0  0  0  0  0  0  0  0  0
    5.3432    7.9923    2.6758 N   0  0  0  0  0  0  0  0  0  0  0  0
    5.0763    7.1305    1.6954 C   0  0  0  0  0  0  0  0  0  0  0  0
    5.9154    7.4517    3.8164 C   0  0  0  0  0  0  0  0  0  0  0  0
    6.3049    8.0946    4.9869 C   0  0  0  0  0  0  0  0  0  0  0  0
    6.1782    9.1575    5.1168 H   0  0  0  0  0  0  0  0  0  0  0  0
    6.8655    7.3440    6.0006 C   0  0  0  0  0  0  0  0  0  0  0  0
    7.1713    7.8367    6.9105 H   0  0  0  0  0  0  0  0  0  0  0  0
    7.0425    5.9692    5.8750 C   0  0  0  0  0  0  0  0  0  0  0  0
    7.4830    5.4104    6.6856 H   0  0  0  0  0  0  0  0  0  0  0  0
    6.6590    5.3151    4.7222 C   0  0  0  0  0  0  0  0  0  0  0  0
    6.7875    4.2510    4.6048 H   0  0  0  0  0  0  0  0  0  0  0  0
    6.0991    6.0688    3.7048 C   0  0  0  0  0  0  0  0  0  0  0  0
    4.9230    9.3845    2.6143 C   0  0  0  0  0  0  0  0  0  0  0  0
    5.4119    9.9270    3.4232 H   0  0  0  0  0  0  0  0  0  0  0  0
    3.8393    9.4161    2.7810 H   0  0  0  0  0  0  0  0  0  0  0  0
    5.2565   10.0752    1.2876 C   0  0  0  0  0  0  0  0  0  0  0  0
    4.9080    9.4311    0.4452 H   0  0  0  0  0  0  0  0  0  0  0  0
    4.4928   11.3913    1.1941 C   0  0  0  0  0  0  0  0  0  0  0  0
    3.4192   11.2174    1.2238 H   0  0  0  0  0  0  0  0  0  0  0  0
    4.7319   11.8955    0.2612 H   0  0  0  0  0  0  0  0  0  0  0  0
    4.7613   12.0487    2.0192 H   0  0  0  0  0  0  0  0  0  0  0  0
    6.7592   10.2966    1.1603 C   0  0  0  0  0  0  0  0  0  0  0  0
    7.1029   10.9980    1.9193 H   0  0  0  0  0  0  0  0  0  0  0  0
    7.0018   10.7019    0.1812 H   0  0  0  0  0  0  0  0  0  0  0  0
    7.3071    9.3640    1.2789 H   0  0  0  0  0  0  0  0  0  0  0  0
    6.5979    7.1950   -1.0675 I   0  0  0  0  0  0  0  0  0  0  0  0
    3.1418    9.3560   -2.1505 S   0  0  0  0  0  0  0  0  0  0  0  0
    3.3346    6.8891   -2.6756 N   0  0  0  0  0  0  0  0  0  0  0  0
    3.6022    7.7496   -1.6944 C   0  0  2  0  0  3  0  0  0  0  0  0
    2.7611    7.4309   -3.8150 C   0  0  0  0  0  0  0  0  0  0  0  0
    2.3702    6.7893   -4.9857 C   0  0  0  0  0  0  0  0  0  0  0  0
    2.4967    5.7266   -5.1171 H   0  0  0  0  0  0  0  0  0  0  0  0
    1.8081    7.5411   -5.9979 C   0  0  0  0  0  0  0  0  0  0  0  0
    1.5012    7.0495   -6.9080 H   0  0  0  0  0  0  0  0  0  0  0  0
    1.6313    8.9157   -5.8704 C   0  0  0  0  0  0  0  0  0  0  0  0
    1.1897    9.4755   -6.6798 H   0  0  0  0  0  0  0  0  0  0  0  0
    2.0162    9.5686   -4.7173 C   0  0  0  0  0  0  0  0  0  0  0  0
    1.8879   10.6325   -4.5985 H   0  0  0  0  0  0  0  0  0  0  0  0
    2.5775    8.8137   -3.7016 C   0  0  0  0  0  0  0  0  0  0  0  0
    3.7550    5.4969   -2.6161 C   0  0  0  0  0  0  0  0  0  0  0  0
    3.2656    4.9553   -3.4253 H   0  0  0  0  0  0  0  0  0  0  0  0
    4.8386    5.4657   -2.7839 H   0  0  0  0  0  0  0  0  0  0  0  0
    3.4229    4.8045   -1.2899 C   0  0  0  0  0  0  0  0  0  0  0  0
    3.7720    5.4477   -0.4471 H   0  0  0  0  0  0  0  0  0  0  0  0
    4.1869    3.4884   -1.1989 C   0  0  0  0  0  0  0  0  0  0  0  0
    5.2605    3.6626   -1.2294 H   0  0  0  0  0  0  0  0  0  0  0  0
    3.9488    2.9830   -0.2664 H   0  0  0  0  0  0  0  0  0  0  0  0
    3.9177    2.8320   -2.0245 H   0  0  0  0  0  0  0  0  0  0  0  0
    1.9204    4.5826   -1.1615 C   0  0  0  0  0  0  0  0  0  0  0  0
    1.5762    3.8823   -1.9212 H   0  0  0  0  0  0  0  0  0  0  0  0
    1.6787    4.1757   -0.1831 H   0  0  0  0  0  0  0  0  0  0  0  0
    1.3722    5.5152   -1.2782 H   0  0  0  0  0  0  0  0  0  0  0  0
  1  2  1  0  0  0  0
  1  5  2  0  0  0  0
  3 15  1  0  0  0  0
  4  6  1  0  0  0  0
  5  3  1  0  0  0  0
  5  4  1  0  0  0  0
  6  7  1  0  0  0  0
  7  8  1  0  0  0  0
  7  9  2  0  0  0  0
  9 10  1  0  0  0  0
 11  9  1  0  0  0  0
 11 12  1  0  0  0  0
 13 11  2  0  0  0  0
 14 13  1  0  0  0  0
 15  6  2  0  0  0  0
 15 13  1  0  0  0  0
 16  4  1  0  0  0  0
 16 18  1  0  0  0  0
 16 17  1  0  0  0  0
 19 16  1  0  0  0  0
 20 19  1  0  0  0  0
 21 22  1  0  0  0  0
 21 19  1  0  0  0  0
 21 24  1  0  0  0  0
 23 21  1  0  0  0  0
 25 28  1  0  0  0  0
 25 19  1  0  0  0  0
 25 26  1  0  0  0  0
 27 25  1  0  0  0  0
 29  1  1  0  0  0  0
 30 32  1  0  0  0  0
 31 43  1  0  0  0  0
 31 32  1  0  0  0  0
 32  1  1  1  0  0  0
 33 42  1  0  0  0  0
 33 31  1  0  0  0  0
 34 33  2  0  0  0  0
 35 34  1  0  0  0  0
 36 38  2  0  0  0  0
 36 34  1  0  0  0  0
 37 36  1  0  0  0  0
 38 40  1  0  0  0  0
 39 38  1  0  0  0  0
 40 41  1  0  0  0  0
 40 42  2  0  0  0  0
 42 30  1  0  0  0  0
 43 46  1  0  0  0  0
 44 43  1  0  0  0  0
 45 43  1  0  0  0  0
 46 48  1  0  0  0  0
 46 52  1  0  0  0  0
 46 47  1  0  0  0  0
 48 50  1  0  0  0  0
 49 48  1  0  0  0  0
 51 48  1  0  0  0  0
 52 54  1  0  0  0  0
 53 52  1  0  0  0  0
 55 52  1  0  0  0  0
M  END
$$$$
