CSD_code = YOSVOT | q = 0 | S = 0 | Stoichiometry = C18H14AuClN3PS | MND = 2
 OpenBabel04212202123D

 39 42  0  0  0  0  0  0  0  0999 V2000
    1.3104   17.4327   16.0064 Au  0  0  0  0  0  0  0  0  0  0  0  0
   -1.5346   19.8290   12.5746 S   0  0  0  0  0  0  0  0  0  0  0  0
    3.1167   17.0780   17.3114 Cl  0  0  0  0  0  0  0  0  0  0  0  0
   -0.4476   17.7669   14.6596 P   0  0  0  0  0  4  0  0  0  0  0  0
    0.6850   21.1290   12.7752 N   0  0  0  0  0  0  0  0  0  0  0  0
   -0.8122   22.0996   11.2568 N   0  0  0  0  0  0  0  0  0  0  0  0
   -0.7967   23.8454    9.9454 C   0  0  0  0  0  0  0  0  0  0  0  0
   -0.5581   24.7324    9.3950 H   0  0  0  0  0  0  0  0  0  0  0  0
   -0.7361   16.4916   13.4015 C   0  0  0  0  0  0  0  0  0  0  0  0
    0.2688   15.5580   13.1728 C   0  0  0  0  0  0  0  0  0  0  0  0
    1.1713   15.5930   13.7702 H   0  0  0  0  0  0  0  0  0  0  0  0
    0.1028   14.5940   12.1940 C   0  0  0  0  0  0  0  0  0  0  0  0
    0.8819   13.8680   12.0176 H   0  0  0  0  0  0  0  0  0  0  0  0
   -1.0621   14.5630   11.4453 C   0  0  0  0  0  0  0  0  0  0  0  0
   -1.1915   13.8107   10.6818 H   0  0  0  0  0  0  0  0  0  0  0  0
   -2.0650   15.4936   11.6734 C   0  0  0  0  0  0  0  0  0  0  0  0
   -2.9725   15.4654   11.0890 H   0  0  0  0  0  0  0  0  0  0  0  0
   -1.9078   16.4598   12.6485 C   0  0  0  0  0  0  0  0  0  0  0  0
   -2.6897   17.1844   12.8334 H   0  0  0  0  0  0  0  0  0  0  0  0
   -2.0509   17.9733   15.4729 C   0  0  0  0  0  0  0  0  0  0  0  0
   -2.8174   16.8500   15.7735 C   0  0  0  0  0  0  0  0  0  0  0  0
   -2.4857   15.8728   15.4485 H   0  0  0  0  0  0  0  0  0  0  0  0
   -3.9975   16.9942   16.4786 C   0  0  0  0  0  0  0  0  0  0  0  0
   -4.5969   16.1251   16.7047 H   0  0  0  0  0  0  0  0  0  0  0  0
   -4.4079   18.2499   16.8983 C   0  0  0  0  0  0  0  0  0  0  0  0
   -5.3309   18.3588   17.4474 H   0  0  0  0  0  0  0  0  0  0  0  0
   -3.6319   19.3647   16.6242 C   0  0  0  0  0  0  0  0  0  0  0  0
   -3.9462   20.3406   16.9629 H   0  0  0  0  0  0  0  0  0  0  0  0
   -2.4494   19.2301   15.9209 C   0  0  0  0  0  0  0  0  0  0  0  0
   -1.8327   20.0957   15.7175 H   0  0  0  0  0  0  0  0  0  0  0  0
    0.7863   20.0832   13.6141 C   0  0  0  0  0  0  0  0  0  0  0  0
    1.6851   19.9547   14.1918 H   0  0  0  0  0  0  0  0  0  0  0  0
   -0.2999   19.2533   13.6662 C   0  0  0  0  0  0  0  0  0  0  0  0
   -0.4483   21.1487   12.1608 C   0  0  0  0  0  0  0  0  0  0  0  0
   -0.0376   23.1647   10.8427 C   0  0  0  0  0  0  0  0  0  0  0  0
    0.9486   23.3127   11.2275 H   0  0  0  0  0  0  0  0  0  0  0  0
   -1.9998   22.2093   10.5754 C   0  0  0  0  0  0  0  0  0  0  0  0
   -2.8029   21.5102   10.7004 H   0  0  0  0  0  0  0  0  0  0  0  0
   -2.0119   23.2371    9.7932 N   0  0  0  0  0  0  0  0  0  0  0  0
  1  3  1  0  0  0  0
  2 33  1  0  0  0  0
  4 20  1  0  0  0  0
  4  1  1  0  0  0  0
  5 31  1  0  0  0  0
  6 34  1  0  0  0  0
  7 35  2  0  0  0  0
  8  7  1  0  0  0  0
  9  4  1  0  0  0  0
 10  9  1  0  0  0  0
 10 11  1  0  0  0  0
 12 10  2  0  0  0  0
 13 12  1  0  0  0  0
 14 16  2  0  0  0  0
 14 12  1  0  0  0  0
 15 14  1  0  0  0  0
 16 18  1  0  0  0  0
 17 16  1  0  0  0  0
 18 19  1  0  0  0  0
 18  9  2  0  0  0  0
 20 21  2  0  0  0  0
 20 29  1  0  0  0  0
 21 23  1  0  0  0  0
 22 21  1  0  0  0  0
 23 24  1  0  0  0  0
 23 25  2  0  0  0  0
 25 26  1  0  0  0  0
 27 25  1  0  0  0  0
 27 28  1  0  0  0  0
 29 27  2  0  0  0  0
 30 29  1  0  0  0  0
 31 33  2  0  0  0  0
 31 32  1  0  0  0  0
 33  4  1  0  0  0  0
 34  2  1  0  0  0  0
 34  5  2  0  0  0  0
 35 36  1  0  0  0  0
 35  6  1  0  0  0  0
 37 38  1  0  0  0  0
 37  6  1  0  0  0  0
 39  7  1  0  0  0  0
 39 37  2  0  0  0  0
M  END
$$$$
