CSD_code = YOSYIQ | q = 0 | S = 0 | Stoichiometry = C11H21Cl2NO3RuS3 | MND = 6
 OpenBabel04212202123D

 42 43  0  0  0  0  0  0  0  0999 V2000
    1.3730    2.3893   11.2072 C   0  0  0  0  0  3  0  0  0  0  0  0
    1.6727    2.5509   10.1777 H   0  0  0  0  0  0  0  0  0  0  0  0
    0.3277    1.5410   11.5252 C   0  0  0  0  0  0  0  0  0  0  0  0
   -0.2041    1.0304   10.7395 H   0  0  0  0  0  0  0  0  0  0  0  0
   -0.0057    1.3609   12.8574 C   0  0  0  0  0  0  0  0  0  0  0  0
   -0.8094    0.7019   13.1473 H   0  0  0  0  0  0  0  0  0  0  0  0
    0.7214    2.0463   13.8160 C   0  0  0  0  0  0  0  0  0  0  0  0
    0.4946    1.9383   14.8652 H   0  0  0  0  0  0  0  0  0  0  0  0
    1.7512    2.8918   13.4246 C   0  0  0  0  0  0  0  0  0  0  0  0
    2.5491    3.6599   14.4210 C   0  0  0  0  0  0  0  0  0  0  0  0
    2.5381    3.2218   15.4157 H   0  0  0  0  0  0  0  0  0  0  0  0
    2.1905    4.6928   14.4550 H   0  0  0  0  0  0  0  0  0  0  0  0
    4.8780    2.1974   14.4015 C   0  0  0  0  0  0  0  0  0  0  0  0
    5.8947    2.0637   14.0495 H   0  0  0  0  0  0  0  0  0  0  0  0
    4.2504    1.4075   14.0051 H   0  0  0  0  0  0  0  0  0  0  0  0
    4.8511    2.2470   15.4838 H   0  0  0  0  0  0  0  0  0  0  0  0
    3.8592    7.3025   12.9202 C   0  0  0  0  0  0  0  0  0  0  0  0
    3.2016    8.1204   13.1895 H   0  0  0  0  0  0  0  0  0  0  0  0
    4.6782    7.6261   12.2907 H   0  0  0  0  0  0  0  0  0  0  0  0
    4.2407    6.8095   13.8088 H   0  0  0  0  0  0  0  0  0  0  0  0
    2.5133    7.1582   10.5524 C   0  0  0  0  0  0  0  0  0  0  0  0
    1.8476    6.6113    9.8929 H   0  0  0  0  0  0  0  0  0  0  0  0
    3.4588    7.3503   10.0574 H   0  0  0  0  0  0  0  0  0  0  0  0
    2.0466    8.0680   10.9113 H   0  0  0  0  0  0  0  0  0  0  0  0
    7.1280    4.4748   11.9768 C   0  0  0  0  0  0  0  0  0  0  0  0
    8.0280    4.9543   11.6102 H   0  0  0  0  0  0  0  0  0  0  0  0
    7.2126    3.3935   11.9523 H   0  0  0  0  0  0  0  0  0  0  0  0
    6.8949    4.8231   12.9788 H   0  0  0  0  0  0  0  0  0  0  0  0
    6.3979    4.2608    9.3493 C   0  0  0  0  0  0  0  0  0  0  0  0
    5.7118    4.5459    8.5577 H   0  0  0  0  0  0  0  0  0  0  0  0
    6.4253    3.1804    9.4452 H   0  0  0  0  0  0  0  0  0  0  0  0
    7.3805    4.6857    9.1831 H   0  0  0  0  0  0  0  0  0  0  0  0
    2.0682    3.0505   12.1307 N   0  0  0  0  0  0  0  0  0  0  0  0
    4.9553    4.8248   14.4819 O   0  0  0  0  0  1  0  0  0  0  0  0
    1.6288    5.9445   12.7284 O   0  0  0  0  0  1  0  0  0  0  0  0
    5.7282    6.3725   10.7818 O   0  0  0  0  0  1  0  0  0  0  0  0
    4.2587    3.7776   13.7480 S   0  0  2  0  0  0  0  0  0  0  0  0
    2.8757    6.1001   11.9782 S   0  0  0  0  0  0  0  0  0  0  0  0
    5.7328    4.9200   10.9000 S   0  0  0  0  0  0  0  0  0  0  0  0
    3.1586    4.3141    9.3435 Cl  0  0  0  0  0  0  0  0  0  0  0  0
    4.7603    1.9332   11.2190 Cl  0  0  0  0  0  0  0  0  0  0  0  0
    3.7801    4.0354   11.5854 Ru  0  0  0  0  0  0  0  0  0  0  0  0
  1  3  1  0  0  0  0
  1 33  1  0  0  0  0
  2  1  1  0  0  0  0
  3  5  2  0  0  0  0
  4  3  1  0  0  0  0
  5  6  1  0  0  0  0
  5  7  1  0  0  0  0
  7  8  1  0  0  0  0
  9  7  2  0  0  0  0
  9 10  1  0  0  0  0
 10 12  1  0  0  0  0
 10 11  1  0  0  0  0
 13 16  1  0  0  0  0
 14 13  1  0  0  0  0
 15 13  1  0  0  0  0
 17 18  1  0  0  0  0
 17 20  1  0  0  0  0
 19 17  1  0  0  0  0
 21 24  1  0  0  0  0
 21 38  1  0  0  0  0
 22 21  1  0  0  0  0
 23 21  1  0  0  0  0
 25 28  1  0  0  0  0
 26 25  1  0  0  0  0
 27 25  1  0  0  0  0
 29 31  1  0  0  0  0
 29 39  1  0  0  0  0
 30 29  1  0  0  0  0
 32 29  1  0  0  0  0
 33  9  1  0  0  0  0
 36 39  1  0  0  0  0
 37 13  1  0  0  0  0
 37 10  1  0  0  0  0
 37 34  1  1  0  0  0
 38 35  1  0  0  0  0
 38 17  1  0  0  0  0
 39 42  1  0  0  0  0
 39 25  1  0  0  0  0
 40 42  1  0  0  0  0
 41 42  1  0  0  0  0
 42 38  1  0  0  0  0
 42 33  1  0  0  0  0
 42 37  1  0  0  0  0
M  END
$$$$
