CSD_code = YOTBEP | q = 0 | S = 0 | Stoichiometry = C12H28Br2N2SiZn | MND = 4
 OpenBabel04212202123D

 46 47  0  0  0  0  0  0  0  0999 V2000
   -1.8860    3.8685    5.9120 Br  0  0  0  0  0  0  0  0  0  0  0  0
    1.8651    2.3435    7.7608 Br  0  0  0  0  0  0  0  0  0  0  0  0
    1.3704    4.4969   11.0420 C   0  0  0  0  0  0  0  0  0  0  0  0
    1.9324    3.8050   10.4224 H   0  0  0  0  0  0  0  0  0  0  0  0
    1.0463    3.9624   11.9310 H   0  0  0  0  0  0  0  0  0  0  0  0
    2.0610    5.2666   11.3720 H   0  0  0  0  0  0  0  0  0  0  0  0
   -0.7083    6.8126   11.0890 C   0  0  0  0  0  0  0  0  0  0  0  0
    0.1152    7.4898   11.2880 H   0  0  0  0  0  0  0  0  0  0  0  0
   -1.1302    6.5336   12.0487 H   0  0  0  0  0  0  0  0  0  0  0  0
   -1.4692    7.3657   10.5472 H   0  0  0  0  0  0  0  0  0  0  0  0
   -1.6692    4.1046   10.0932 C   0  0  0  0  0  0  0  0  0  0  0  0
   -2.0427    3.9148   11.1080 H   0  0  0  0  0  0  0  0  0  0  0  0
   -2.4615    4.6620    9.5844 H   0  0  0  0  0  0  0  0  0  0  0  0
   -2.8480    2.3053    9.0441 C   0  0  0  0  0  0  0  0  0  0  0  0
   -3.3440    3.0244    8.3877 H   0  0  0  0  0  0  0  0  0  0  0  0
   -3.4450    2.2113    9.9634 H   0  0  0  0  0  0  0  0  0  0  0  0
   -2.7761    0.9527    8.3489 C   0  0  0  0  0  0  0  0  0  0  0  0
   -2.2034    1.0456    7.4216 H   0  0  0  0  0  0  0  0  0  0  0  0
   -3.7862    0.6390    8.0833 H   0  0  0  0  0  0  0  0  0  0  0  0
   -2.1072   -0.0673    9.2601 C   0  0  0  0  0  0  0  0  0  0  0  0
   -2.7189   -0.2192   10.1533 H   0  0  0  0  0  0  0  0  0  0  0  0
   -2.0084   -1.0269    8.7518 H   0  0  0  0  0  0  0  0  0  0  0  0
   -0.7355    0.4650    9.6532 C   0  0  0  0  0  0  0  0  0  0  0  0
   -0.2554   -0.1948   10.3770 H   0  0  0  0  0  0  0  0  0  0  0  0
   -0.0975    0.4992    8.7693 H   0  0  0  0  0  0  0  0  0  0  0  0
   -0.8501    1.8550   10.2710 C   0  0  0  0  0  0  0  0  0  0  0  0
   -1.4222    1.7824   11.2093 H   0  0  0  0  0  0  0  0  0  0  0  0
    0.1462    2.2278   10.5086 H   0  0  0  0  0  0  0  0  0  0  0  0
    1.1082    6.3894    7.7930 C   0  0  0  0  0  0  0  0  0  0  0  0
    1.1771    6.0837    6.2936 C   0  0  0  0  0  0  0  0  0  0  0  0
    1.5210    5.0643    6.1222 H   0  0  0  0  0  0  0  0  0  0  0  0
    1.8801    6.7552    5.8077 H   0  0  0  0  0  0  0  0  0  0  0  0
    0.2044    6.2140    5.8229 H   0  0  0  0  0  0  0  0  0  0  0  0
    0.6891    7.8512    7.9798 C   0  0  0  0  0  0  0  0  0  0  0  0
   -0.2844    8.0326    7.5273 H   0  0  0  0  0  0  0  0  0  0  0  0
    1.4117    8.5086    7.5039 H   0  0  0  0  0  0  0  0  0  0  0  0
    0.6361    8.1040    9.0349 H   0  0  0  0  0  0  0  0  0  0  0  0
    2.4779    6.1609    8.4217 C   0  0  0  0  0  0  0  0  0  0  0  0
    2.4882    6.4977    9.4538 H   0  0  0  0  0  0  0  0  0  0  0  0
    3.2272    6.7224    7.8703 H   0  0  0  0  0  0  0  0  0  0  0  0
    2.7497    5.1106    8.3882 H   0  0  0  0  0  0  0  0  0  0  0  0
   -0.7985    5.8158    8.0205 H   0  0  0  0  0  0  0  0  0  0  0  0
    0.0915    5.4984    8.4070 N   0  0  0  0  0  4  0  0  0  0  0  0
   -1.5105    2.8230    9.3824 N   0  0  0  0  0  4  0  0  0  0  0  0
   -0.1275    5.2606   10.1500 Si  0  0  0  0  0  0  0  0  0  0  0  0
   -0.2720    3.3503    7.5801 Zn  0  0  0  0  0  0  0  0  0  0  0  0
  1 46  1  0  0  0  0
  3  6  1  0  0  0  0
  3  5  1  0  0  0  0
  4  3  1  0  0  0  0
  7  8  1  0  0  0  0
  7  9  1  0  0  0  0
 10  7  1  0  0  0  0
 11 45  1  0  0  0  0
 11 12  1  0  0  0  0
 13 11  1  0  0  0  0
 14 44  1  0  0  0  0
 14 16  1  0  0  0  0
 15 14  1  0  0  0  0
 17 14  1  0  0  0  0
 17 20  1  0  0  0  0
 18 17  1  0  0  0  0
 19 17  1  0  0  0  0
 20 23  1  0  0  0  0
 20 21  1  0  0  0  0
 22 20  1  0  0  0  0
 23 26  1  0  0  0  0
 23 24  1  0  0  0  0
 25 23  1  0  0  0  0
 26 28  1  0  0  0  0
 26 27  1  0  0  0  0
 29 34  1  0  0  0  0
 29 43  1  0  0  0  0
 29 38  1  0  0  0  0
 30 29  1  0  0  0  0
 31 30  1  0  0  0  0
 32 30  1  0  0  0  0
 33 30  1  0  0  0  0
 34 37  1  0  0  0  0
 35 34  1  0  0  0  0
 36 34  1  0  0  0  0
 38 39  1  0  0  0  0
 40 38  1  0  0  0  0
 41 38  1  0  0  0  0
 42 43  1  0  0  0  0
 43 45  1  0  0  0  0
 44 11  1  0  0  0  0
 44 26  1  0  0  0  0
 45  3  1  0  0  0  0
 45  7  1  0  0  0  0
 46  2  1  0  0  0  0
 46 43  1  0  0  0  0
 46 44  1  0  0  0  0
M  END
$$$$
