CSD_code = YOVHAS | q = 1 | S = 0 | Stoichiometry = C26H37Cl2MoP2(1+) | MND = 9
 OpenBabel04212202123D

 68 66  0  0  1  0  0  0  0  0999 V2000
    8.3591    0.8119   15.5295 Mo  0  0  0  0  0  0  0  0  0  0  0  0
   10.1025   -0.6249   16.3664 Cl  0  0  0  0  0 15  0  0  0  0  0  0
    7.8883    3.0692   16.2155 Cl  0  0  0  0  0 15  0  0  0  0  0  0
    7.5569    0.5043   17.8462 P   0  0  0  0  0  0  0  0  0  0  0  0
   10.4198    2.0144   14.9552 P   0  0  0  0  0  0  0  0  0  0  0  0
    8.8626    1.0265   19.0210 C   0  0  0  0  0  0  0  0  0  0  0  0
    6.1790    1.5436   18.4367 C   0  0  0  0  0  0  0  0  0  0  0  0
    7.1240   -1.1545   18.4492 C   0  0  0  0  0  0  0  0  0  0  0  0
    8.1210   -2.1154   18.6036 C   0  0  0  0  0  0  0  0  0  0  0  0
    7.8047   -3.3859   19.0485 C   0  0  0  0  0  0  0  0  0  0  0  0
    6.4917   -3.7166   19.3410 C   0  0  0  0  0  0  0  0  0  0  0  0
    5.4954   -2.7664   19.1932 C   0  0  0  0  0  0  0  0  0  0  0  0
    5.8060   -1.4927   18.7499 C   0  0  0  0  0  0  0  0  0  0  0  0
   11.7370    1.1450   14.0432 C   0  0  0  0  0  0  0  0  0  0  0  0
   10.3618    3.5935   14.0419 C   0  0  0  0  0  0  0  0  0  0  0  0
   11.2407    2.4935   16.5153 C   0  0  0  0  0  0  0  0  0  0  0  0
   10.9201    3.7023   17.1316 C   0  0  0  0  0  0  0  0  0  0  0  0
   11.5397    4.0669   18.3139 C   0  0  0  0  0  0  0  0  0  0  0  0
   12.4805    3.2323   18.8950 C   0  0  0  0  0  0  0  0  0  0  0  0
   12.8095    2.0343   18.2823 C   0  0  0  0  0  0  0  0  0  0  0  0
   12.1946    1.6625   17.0999 C   0  0  0  0  0  0  0  0  0  0  0  0
    8.2511   -0.4817   13.6883 C   0  0  1  0  0  0  0  0  0  0  0  0
    7.3322   -0.9981   14.6660 C   0  0  1  0  0  3  0  0  0  0  0  0
    6.2797   -0.0346   14.8304 C   0  0  0  0  0  0  0  0  0  0  0  0
    6.5577    1.0704   13.9810 C   0  0  0  0  0  0  0  0  0  0  0  0
    7.7650    0.8059   13.2731 C   0  0  2  0  0  3  0  0  0  0  0  0
    9.2730   -1.3207   12.9858 C   0  0  0  0  0  0  0  0  0  0  0  0
    7.2949   -2.4266   15.1112 C   0  0  0  0  0  0  0  0  0  0  0  0
    4.9618   -0.3062   15.4798 C   0  0  0  0  0  0  0  0  0  0  0  0
    5.6526    2.2343   13.7404 C   0  0  0  0  0  0  0  0  0  0  0  0
    8.2154    1.5672   12.0673 C   0  0  0  0  0  0  0  0  0  0  0  0
    8.4785    0.9253   20.0379 H   0  0  0  0  0  0  0  0  0  0  0  0
    9.7584    0.4153   18.9080 H   0  0  0  0  0  0  0  0  0  0  0  0
    9.1197    2.0724   18.8269 H   0  0  0  0  0  0  0  0  0  0  0  0
    6.4931    2.5858   18.4137 H   0  0  0  0  0  0  0  0  0  0  0  0
    5.3006    1.4320   17.8054 H   0  0  0  0  0  0  0  0  0  0  0  0
    5.9363    1.2635   19.4622 H   0  0  0  0  0  0  0  0  0  0  0  0
    9.1471   -1.8740   18.3750 H   0  0  0  0  0  0  0  0  0  0  0  0
    8.5872   -4.1192   19.1685 H   0  0  0  0  0  0  0  0  0  0  0  0
    6.2460   -4.7082   19.6877 H   0  0  0  0  0  0  0  0  0  0  0  0
    4.4710   -3.0139   19.4267 H   0  0  0  0  0  0  0  0  0  0  0  0
    5.0142   -0.7649   18.6556 H   0  0  0  0  0  0  0  0  0  0  0  0
   11.8583    0.1284   14.4098 H   0  0  0  0  0  0  0  0  0  0  0  0
   11.4712    1.1121   12.9878 H   0  0  0  0  0  0  0  0  0  0  0  0
   12.6727    1.6937   14.1562 H   0  0  0  0  0  0  0  0  0  0  0  0
   11.2963    4.1311   14.2071 H   0  0  0  0  0  0  0  0  0  0  0  0
   10.2540    3.3882   12.9788 H   0  0  0  0  0  0  0  0  0  0  0  0
    9.5254    4.2049   14.3733 H   0  0  0  0  0  0  0  0  0  0  0  0
   10.1892    4.3647   16.6910 H   0  0  0  0  0  0  0  0  0  0  0  0
   11.2871    5.0072   18.7799 H   0  0  0  0  0  0  0  0  0  0  0  0
   12.9588    3.5170   19.8193 H   0  0  0  0  0  0  0  0  0  0  0  0
   13.5503    1.3853   18.7239 H   0  0  0  0  0  0  0  0  0  0  0  0
   12.4630    0.7251   16.6362 H   0  0  0  0  0  0  0  0  0  0  0  0
    8.7676   -2.0592   12.3613 H   0  0  0  0  0  0  0  0  0  0  0  0
    9.9148   -0.7200   12.3472 H   0  0  0  0  0  0  0  0  0  0  0  0
    9.8950   -1.8562   13.7018 H   0  0  0  0  0  0  0  0  0  0  0  0
    6.8788   -3.0469   14.3155 H   0  0  0  0  0  0  0  0  0  0  0  0
    8.2973   -2.7880   15.3348 H   0  0  0  0  0  0  0  0  0  0  0  0
    6.6806   -2.5526   15.9995 H   0  0  0  0  0  0  0  0  0  0  0  0
    4.4599    0.6138   15.7712 H   0  0  0  0  0  0  0  0  0  0  0  0
    4.3208   -0.8205   14.7604 H   0  0  0  0  0  0  0  0  0  0  0  0
    5.0709   -0.9506   16.3490 H   0  0  0  0  0  0  0  0  0  0  0  0
    6.2167    3.1220   13.4612 H   0  0  0  0  0  0  0  0  0  0  0  0
    4.9640    1.9972   12.9275 H   0  0  0  0  0  0  0  0  0  0  0  0
    5.0667    2.4699   14.6265 H   0  0  0  0  0  0  0  0  0  0  0  0
    9.2685    1.3984   11.8548 H   0  0  0  0  0  0  0  0  0  0  0  0
    7.6410    1.2269   11.2032 H   0  0  0  0  0  0  0  0  0  0  0  0
    8.0416    2.6349   12.1830 H   0  0  0  0  0  0  0  0  0  0  0  0
  4  7  1  0  0  0  0
  4  8  1  0  0  0  0
  4  6  1  0  0  0  0
  5 16  1  0  0  0  0
  6 32  1  0  0  0  0
  7 37  1  0  0  0  0
  8  9  2  0  0  0  0
  8 13  1  0  0  0  0
  9 10  1  0  0  0  0
 10 39  1  0  0  0  0
 10 11  2  0  0  0  0
 11 40  1  0  0  0  0
 12 11  1  0  0  0  0
 12 41  1  0  0  0  0
 13 12  2  0  0  0  0
 14 45  1  0  0  0  0
 14 43  1  0  0  0  0
 14  5  1  0  0  0  0
 15 46  1  0  0  0  0
 15 48  1  0  0  0  0
 15  5  1  0  0  0  0
 16 21  2  0  0  0  0
 16 17  1  0  0  0  0
 17 18  2  0  0  0  0
 18 50  1  0  0  0  0
 18 19  1  0  0  0  0
 19 51  1  0  0  0  0
 20 52  1  0  0  0  0
 20 19  2  0  0  0  0
 21 20  1  0  0  0  0
 22 23  1  0  0  0  0
 22  1  1  1  0  0  0
 23 24  1  0  0  0  0
 23 28  1  6  0  0  0
 24 29  1  0  0  0  0
 25 24  2  0  0  0  0
 26 31  1  6  0  0  0
 26 22  1  0  0  0  0
 26 25  1  0  0  0  0
 27 22  1  0  0  0  0
 27 56  1  0  0  0  0
 28 58  1  0  0  0  0
 28 59  1  0  0  0  0
 29 60  1  0  0  0  0
 29 62  1  0  0  0  0
 30 25  1  0  0  0  0
 30 65  1  0  0  0  0
 31 68  1  0  0  0  0
 33  6  1  0  0  0  0
 34  6  1  0  0  0  0
 35  7  1  0  0  0  0
 36  7  1  0  0  0  0
 38  9  1  0  0  0  0
 42 13  1  0  0  0  0
 44 14  1  0  0  0  0
 47 15  1  0  0  0  0
 49 17  1  0  0  0  0
 53 21  1  0  0  0  0
 54 27  1  0  0  0  0
 55 27  1  0  0  0  0
 57 28  1  0  0  0  0
 61 29  1  0  0  0  0
 63 30  1  0  0  0  0
 64 30  1  0  0  0  0
 66 31  1  0  0  0  0
 67 31  1  0  0  0  0
M  END
$$$$
