CSD_code = YOVXOY | q = 0 | S = 0 | Stoichiometry = C18H20Cl2N2O4Pt | MND = 4
 OpenBabel04212202123D

 47 49  0  0  0  0  0  0  0  0999 V2000
   12.9822    5.0283   11.3911 Pt  0  0  0  0  0  0  0  0  0  0  0  0
   14.9824    5.2354   12.3589 Cl  0  0  0  0  0  0  0  0  0  0  0  0
   14.0322    4.6345    9.4626 Cl  0  0  0  0  0  0  0  0  0  0  0  0
   11.9435    5.3596   13.0570 N   0  0  0  0  0  0  0  0  0  0  0  0
   11.1498    4.8694   10.6290 N   0  0  0  0  0  0  0  0  0  0  0  0
    8.1088    5.8055   16.1395 O   0  0  0  0  0  0  0  0  0  0  0  0
    9.8310    6.2715   17.5087 O   0  0  0  0  0  0  0  0  0  0  0  0
    6.2196    4.9265   10.3132 O   0  0  0  0  0  0  0  0  0  0  0  0
    6.7914    4.4338    8.1946 O   0  0  0  0  0  0  0  0  0  0  0  0
   12.4487    5.6045   14.2685 C   0  0  0  0  0  0  0  0  0  0  0  0
   13.5297    5.6308   14.3285 H   0  0  0  0  0  0  0  0  0  0  0  0
   11.6525    5.8109   15.3742 C   0  0  0  0  0  0  0  0  0  0  0  0
   12.0801    6.0100   16.3435 H   0  0  0  0  0  0  0  0  0  0  0  0
   10.2639    5.7571   15.2293 C   0  0  0  0  0  0  0  0  0  0  0  0
    9.7378    5.5055   13.9699 C   0  0  0  0  0  0  0  0  0  0  0  0
    8.6697    5.4624   13.8408 H   0  0  0  0  0  0  0  0  0  0  0  0
   10.5989    5.3134   12.8943 C   0  0  0  0  0  0  0  0  0  0  0  0
   10.1535    5.0511   11.5297 C   0  0  0  0  0  0  0  0  0  0  0  0
    8.8177    4.9928   11.1455 C   0  0  0  0  0  0  0  0  0  0  0  0
    8.0271    5.1435   11.8607 H   0  0  0  0  0  0  0  0  0  0  0  0
    8.4992    4.7411    9.8183 C   0  0  0  0  0  0  0  0  0  0  0  0
    9.5406    4.5481    8.9070 C   0  0  0  0  0  0  0  0  0  0  0  0
    9.3133    4.3484    7.8723 H   0  0  0  0  0  0  0  0  0  0  0  0
   10.8423    4.6219    9.3534 C   0  0  0  0  0  0  0  0  0  0  0  0
   11.6848    4.4836    8.6870 H   0  0  0  0  0  0  0  0  0  0  0  0
    7.0887    4.6751    9.3375 C   0  0  0  0  0  0  0  0  0  0  0  0
    4.8192    4.9092    9.9741 C   0  0  0  0  0  0  0  0  0  0  0  0
    4.7191    5.3016    8.9541 H   0  0  0  0  0  0  0  0  0  0  0  0
    4.1126    5.8164   10.9701 C   0  0  0  0  0  0  0  0  0  0  0  0
    4.2237    5.4221   11.9771 H   0  0  0  0  0  0  0  0  0  0  0  0
    3.0560    5.8738   10.7269 H   0  0  0  0  0  0  0  0  0  0  0  0
    4.5365    6.8168   10.9374 H   0  0  0  0  0  0  0  0  0  0  0  0
    4.2982    3.4775   10.0207 C   0  0  0  0  0  0  0  0  0  0  0  0
    4.8266    2.8641    9.2950 H   0  0  0  0  0  0  0  0  0  0  0  0
    3.2390    3.4656    9.7816 H   0  0  0  0  0  0  0  0  0  0  0  0
    4.4439    3.0575   11.0134 H   0  0  0  0  0  0  0  0  0  0  0  0
    9.3977    5.9736   16.4242 C   0  0  0  0  0  0  0  0  0  0  0  0
    7.1639    5.9908   17.2115 C   0  0  0  0  0  0  0  0  0  0  0  0
    7.5181    6.8281   17.8263 H   0  0  0  0  0  0  0  0  0  0  0  0
    7.0960    4.7289   18.0638 C   0  0  0  0  0  0  0  0  0  0  0  0
    6.8018    3.8787   17.4524 H   0  0  0  0  0  0  0  0  0  0  0  0
    6.3689    4.8636   18.8591 H   0  0  0  0  0  0  0  0  0  0  0  0
    8.0667    4.5266   18.5095 H   0  0  0  0  0  0  0  0  0  0  0  0
    5.8280    6.3252   16.5651 C   0  0  0  0  0  0  0  0  0  0  0  0
    5.9212    7.2075   15.9373 H   0  0  0  0  0  0  0  0  0  0  0  0
    5.0868    6.5174   17.3349 H   0  0  0  0  0  0  0  0  0  0  0  0
    5.4939    5.4921   15.9517 H   0  0  0  0  0  0  0  0  0  0  0  0
  1  2  1  0  0  0  0
  1  4  1  0  0  0  0
  3  1  1  0  0  0  0
  4 10  1  0  0  0  0
  5  1  1  0  0  0  0
  5 18  1  0  0  0  0
  6 37  1  0  0  0  0
  6 38  1  0  0  0  0
  9 26  2  0  0  0  0
 10 11  1  0  0  0  0
 10 12  2  0  0  0  0
 12 13  1  0  0  0  0
 14 12  1  0  0  0  0
 14 37  1  0  0  0  0
 15 14  2  0  0  0  0
 16 15  1  0  0  0  0
 17  4  1  0  0  0  0
 17 15  1  0  0  0  0
 18 17  2  0  0  0  0
 19 18  1  0  0  0  0
 19 20  1  0  0  0  0
 21 19  2  0  0  0  0
 22 24  2  0  0  0  0
 22 21  1  0  0  0  0
 23 22  1  0  0  0  0
 24  5  1  0  0  0  0
 25 24  1  0  0  0  0
 26 21  1  0  0  0  0
 26  8  1  0  0  0  0
 27 33  1  0  0  0  0
 27  8  1  0  0  0  0
 27 29  1  0  0  0  0
 28 27  1  0  0  0  0
 29 30  1  0  0  0  0
 31 29  1  0  0  0  0
 32 29  1  0  0  0  0
 33 36  1  0  0  0  0
 34 33  1  0  0  0  0
 35 33  1  0  0  0  0
 37  7  2  0  0  0  0
 38 39  1  0  0  0  0
 38 40  1  0  0  0  0
 40 43  1  0  0  0  0
 40 42  1  0  0  0  0
 41 40  1  0  0  0  0
 44 38  1  0  0  0  0
 44 46  1  0  0  0  0
 45 44  1  0  0  0  0
 47 44  1  0  0  0  0
M  END
$$$$
