CSD_code = YOWGAT | q = 0 | S = 0 | Stoichiometry = C8H14Cl2N2PdS | MND = 4
 OpenBabel04212202123D

 28 29  0  0  0  0  0  0  0  0999 V2000
    3.4444   -1.4538   -1.3005 Pd  0  0  0  0  0  0  0  0  0  0  0  0
    3.7887   -3.1661   -2.8630 S   0  0  1  0  0  3  0  0  0  0  0  0
    3.5425    0.0497   -2.6473 C   0  0  0  0  0  0  0  0  0  0  0  0
    3.4470    1.0209   -4.6609 C   0  0  0  0  0  0  0  0  0  0  0  0
    3.1977    1.1196   -5.6974 H   0  0  0  0  0  0  0  0  0  0  0  0
    4.0791    1.8684   -3.8166 C   0  0  0  0  0  0  0  0  0  0  0  0
    4.4860    2.8437   -3.9870 H   0  0  0  0  0  0  0  0  0  0  0  0
    2.5347   -1.2925   -4.4576 C   0  0  0  0  0  0  0  0  0  0  0  0
    2.1310   -1.0746   -5.4497 H   0  0  0  0  0  0  0  0  0  0  0  0
    1.7127   -1.6134   -3.8011 H   0  0  0  0  0  0  0  0  0  0  0  0
    3.5751   -2.4127   -4.5375 C   0  0  0  0  0  0  0  0  0  0  0  0
    4.5322   -2.0338   -4.8925 H   0  0  0  0  0  0  0  0  0  0  0  0
    3.2253   -3.2046   -5.1986 H   0  0  0  0  0  0  0  0  0  0  0  0
    5.5994   -3.3542   -2.7357 C   0  0  0  0  0  0  0  0  0  0  0  0
    5.7189   -4.0997   -1.9486 H   0  0  0  0  0  0  0  0  0  0  0  0
    5.9506   -3.7655   -3.6825 H   0  0  0  0  0  0  0  0  0  0  0  0
    6.3162   -2.0701   -2.3572 C   0  0  0  0  0  0  0  0  0  0  0  0
    6.1959   -1.3054   -3.1269 H   0  0  0  0  0  0  0  0  0  0  0  0
    7.3802   -2.2657   -2.2336 H   0  0  0  0  0  0  0  0  0  0  0  0
    5.9187   -1.6944   -1.3959 H   0  0  0  0  0  0  0  0  0  0  0  0
    4.7894    1.8355   -1.4502 C   0  0  0  0  0  0  0  0  0  0  0  0
    4.3888    2.8302   -1.2582 H   0  0  0  0  0  0  0  0  0  0  0  0
    5.8635    1.9103   -1.6309 H   0  0  0  0  0  0  0  0  0  0  0  0
    4.5946    1.2031   -0.5794 H   0  0  0  0  0  0  0  0  0  0  0  0
    3.5171   -3.2348    0.0896 Cl  0  0  0  0  0  0  0  0  0  0  0  0
    2.8960   -0.0966    0.3995 Cl  0  0  0  0  0  0  0  0  0  0  0  0
    3.1231   -0.0899   -3.9274 N   0  0  0  0  0  0  0  0  0  0  0  0
    4.1363    1.2551   -2.5937 N   0  0  0  0  0  0  0  0  0  0  0  0
  1 25  1  0  0  0  0
  1 26  1  0  0  0  0
  2 14  1  6  0  0  0
  2  1  1  0  0  0  0
  3 28  1  0  0  0  0
  3  1  2  0  0  0  0
  4 27  1  0  0  0  0
  4  6  2  0  0  0  0
  5  4  1  0  0  0  0
  6 28  1  0  0  0  0
  7  6  1  0  0  0  0
  8 27  1  0  0  0  0
  8 10  1  0  0  0  0
  9  8  1  0  0  0  0
 11  8  1  0  0  0  0
 11  2  1  0  0  0  0
 12 11  1  0  0  0  0
 13 11  1  0  0  0  0
 14 17  1  0  0  0  0
 14 15  1  0  0  0  0
 16 14  1  0  0  0  0
 17 19  1  0  0  0  0
 17 20  1  0  0  0  0
 18 17  1  0  0  0  0
 21 22  1  0  0  0  0
 21 24  1  0  0  0  0
 23 21  1  0  0  0  0
 27  3  1  0  0  0  0
 28 21  1  0  0  0  0
M  END
$$$$
