CSD_code = YOWGEX | q = 0 | S = 0 | Stoichiometry = C16H28Cl2N4PdS2 | MND = 4
 OpenBabel04212202123D

 53 54  0  0  1  0  0  0  0  0999 V2000
    7.7479   -0.6764    4.8668 Pd  0  0  0  0  0  0  0  0  0  0  0  0
    6.8342   -2.7828    4.8186 Cl  0  0  0  0  0  0  0  0  0  0  0  0
    6.2635   -0.0583    6.0533 C   0  0  0  0  0  0  0  0  0  0  0  0
    4.2481    0.6322    6.6937 C   0  0  0  0  0  0  0  0  0  0  0  0
    3.2066    0.8634    6.5997 H   0  0  0  0  0  0  0  0  0  0  0  0
    5.0802    0.7341    7.7584 C   0  0  0  0  0  0  0  0  0  0  0  0
    4.8944    1.0722    8.7571 H   0  0  0  0  0  0  0  0  0  0  0  0
    4.5208   -0.1498    4.3210 C   0  0  0  0  0  0  0  0  0  0  0  0
    3.4418    0.0238    4.2918 H   0  0  0  0  0  0  0  0  0  0  0  0
    4.7213   -1.2068    4.0979 H   0  0  0  0  0  0  0  0  0  0  0  0
    5.2409    0.7168    3.2839 C   0  0  0  0  0  0  0  0  0  0  0  0
    6.3233    0.4819    3.2849 H   0  0  0  0  0  0  0  0  0  0  0  0
    5.1052    1.7800    3.4855 H   0  0  0  0  0  0  0  0  0  0  0  0
    3.1376    1.3676    1.5244 C   0  0  0  0  0  0  0  0  0  0  0  0
    2.5742    0.9543    0.6887 H   0  0  0  0  0  0  0  0  0  0  0  0
    2.5781    1.1971    2.4439 H   0  0  0  0  0  0  0  0  0  0  0  0
    3.4261    2.8406    1.3053 C   0  0  0  0  0  0  0  0  0  0  0  0
    2.4921    3.3952    1.2354 H   0  0  0  0  0  0  0  0  0  0  0  0
    3.9859    2.9795    0.3835 H   0  0  0  0  0  0  0  0  0  0  0  0
    4.0091    3.2547    2.1257 H   0  0  0  0  0  0  0  0  0  0  0  0
    7.5022    0.2372    8.1508 C   0  0  0  0  0  0  0  0  0  0  0  0
    7.4553    0.9811    8.9441 H   0  0  0  0  0  0  0  0  0  0  0  0
    8.3726    0.4413    7.5167 H   0  0  0  0  0  0  0  0  0  0  0  0
    7.6101   -0.7562    8.5955 H   0  0  0  0  0  0  0  0  0  0  0  0
    6.3124    0.3078    7.3427 N   0  0  0  0  0  0  0  0  0  0  0  0
    4.9923    0.1408    5.6551 N   0  0  0  0  0  0  0  0  0  0  0  0
    4.6604    0.3588    1.5979 S   0  0  0  0  0  0  0  0  0  0  0  0
    8.6614    1.4300    4.9145 Cl  0  0  0  0  0  0  0  0  0  0  0  0
    9.2322   -1.2943    3.6801 C   0  0  2  0  0  3  0  0  0  0  0  0
   11.2477   -1.9848    3.0397 C   0  0  0  0  0  0  0  0  0  0  0  0
   12.2892   -2.2159    3.1337 H   0  0  0  0  0  0  0  0  0  0  0  0
   10.4156   -2.0866    1.9750 C   0  0  0  0  0  0  0  0  0  0  0  0
   10.6014   -2.4247    0.9763 H   0  0  0  0  0  0  0  0  0  0  0  0
   10.9749   -1.2028    5.4124 C   0  0  0  0  0  0  0  0  0  0  0  0
   12.0540   -1.3761    5.4416 H   0  0  0  0  0  0  0  0  0  0  0  0
   10.7741   -0.1459    5.6356 H   0  0  0  0  0  0  0  0  0  0  0  0
   10.2550   -2.0697    6.4494 C   0  0  0  0  0  0  0  0  0  0  0  0
    9.1726   -1.8352    6.4483 H   0  0  0  0  0  0  0  0  0  0  0  0
   10.3912   -3.1328    6.2478 H   0  0  0  0  0  0  0  0  0  0  0  0
   12.3584   -2.7194    8.2092 C   0  0  0  0  0  0  0  0  0  0  0  0
   12.9211   -2.3060    9.0453 H   0  0  0  0  0  0  0  0  0  0  0  0
   12.9183   -2.5483    7.2901 H   0  0  0  0  0  0  0  0  0  0  0  0
   12.0707   -4.1926    8.4278 C   0  0  0  0  0  0  0  0  0  0  0  0
   13.0050   -4.7467    8.4980 H   0  0  0  0  0  0  0  0  0  0  0  0
   11.5105   -4.3322    9.3492 H   0  0  0  0  0  0  0  0  0  0  0  0
   11.4884   -4.6068    7.6070 H   0  0  0  0  0  0  0  0  0  0  0  0
    7.9936   -1.5896    1.5826 C   0  0  0  0  0  0  0  0  0  0  0  0
    8.0414   -2.3321    0.7880 H   0  0  0  0  0  0  0  0  0  0  0  0
    7.1233   -1.7956    2.2162 H   0  0  0  0  0  0  0  0  0  0  0  0
    7.8847   -0.5955    1.1395 H   0  0  0  0  0  0  0  0  0  0  0  0
    9.1834   -1.6603    2.3907 N   0  0  0  0  0  0  0  0  0  0  0  0
   10.5034   -1.4934    4.0783 N   0  0  0  0  0  0  0  0  0  0  0  0
   10.8350   -1.7113    8.1355 S   0  0  0  0  0  0  0  0  0  0  0  0
  1 28  1  0  0  0  0
  1  3  2  0  0  0  0
  2  1  1  0  0  0  0
  3 25  1  0  0  0  0
  4  6  2  0  0  0  0
  5  4  1  0  0  0  0
  6  7  1  0  0  0  0
  8 26  1  0  0  0  0
  9  8  1  0  0  0  0
 10  8  1  0  0  0  0
 11 12  1  0  0  0  0
 11 13  1  0  0  0  0
 11  8  1  0  0  0  0
 14 27  1  0  0  0  0
 14 16  1  0  0  0  0
 15 14  1  0  0  0  0
 17 14  1  0  0  0  0
 17 20  1  0  0  0  0
 18 17  1  0  0  0  0
 19 17  1  0  0  0  0
 21 24  1  0  0  0  0
 21 22  1  0  0  0  0
 23 21  1  0  0  0  0
 25  6  1  0  0  0  0
 25 21  1  0  0  0  0
 26  3  1  0  0  0  0
 26  4  1  0  0  0  0
 27 11  1  0  0  0  0
 29 52  1  0  0  0  0
 29  1  1  1  0  0  0
 30 31  1  0  0  0  0
 30 52  1  0  0  0  0
 32 51  1  0  0  0  0
 32 30  2  0  0  0  0
 33 32  1  0  0  0  0
 34 35  1  0  0  0  0
 34 36  1  0  0  0  0
 34 37  1  0  0  0  0
 37 53  1  0  0  0  0
 38 37  1  0  0  0  0
 39 37  1  0  0  0  0
 40 43  1  0  0  0  0
 40 41  1  0  0  0  0
 42 40  1  0  0  0  0
 43 44  1  0  0  0  0
 43 45  1  0  0  0  0
 46 43  1  0  0  0  0
 47 49  1  0  0  0  0
 47 51  1  0  0  0  0
 48 47  1  0  0  0  0
 50 47  1  0  0  0  0
 51 29  1  0  0  0  0
 52 34  1  0  0  0  0
 53 40  1  0  0  0  0
M  END
$$$$
