CSD_code = YOWHAT | q = 0 | S = 0 | Stoichiometry = C22H22Br2N4W | MND = 6
 OpenBabel04212202123D

 51 55  0  0  0  0  0  0  0  0999 V2000
    2.3217    4.7385    1.1863 W   0  0  0  0  0  0  0  0  0  0  0  0
    4.0084    3.3353    2.4562 Br  0  0  0  0  0  0  0  0  0  0  0  0
    4.1828    6.2232    0.3167 Br  0  0  0  0  0  0  0  0  0  0  0  0
    2.4371    3.5115   -0.4540 N   0  0  0  0  0  0  0  0  0  0  0  0
    3.6168    3.0637   -0.9542 C   0  0  0  0  0  3  0  0  0  0  0  0
    4.5183    3.3933   -0.4477 H   0  0  0  0  0  0  0  0  0  0  0  0
    3.7217    2.2346   -2.0437 C   0  0  0  0  0  0  0  0  0  0  0  0
    4.7006    1.9251   -2.3755 H   0  0  0  0  0  0  0  0  0  0  0  0
    2.5785    1.7973   -2.7150 C   0  0  0  0  0  0  0  0  0  0  0  0
    1.3637    2.2553   -2.2086 C   0  0  0  0  0  0  0  0  0  0  0  0
    0.4329    1.9645   -2.6720 H   0  0  0  0  0  0  0  0  0  0  0  0
    1.3325    3.0848   -1.1121 C   0  0  0  0  0  0  0  0  0  0  0  0
    0.3778    3.4341   -0.7305 H   0  0  0  0  0  0  0  0  0  0  0  0
    2.6632    0.8845   -3.8935 C   0  0  0  0  0  0  0  0  0  0  0  0
    2.9672   -0.1132   -3.5748 H   0  0  0  0  0  0  0  0  0  0  0  0
    3.4059    1.2451   -4.6032 H   0  0  0  0  0  0  0  0  0  0  0  0
    1.7018    0.8076   -4.3951 H   0  0  0  0  0  0  0  0  0  0  0  0
    2.1087    6.0204    2.9026 N   0  0  0  0  0  0  0  0  0  0  0  0
    1.9239    5.5213    4.1353 C   0  0  0  0  0  3  0  0  0  0  0  0
    1.9955    4.4443    4.2410 H   0  0  0  0  0  0  0  0  0  0  0  0
    1.6639    6.3013    5.2414 C   0  0  0  0  0  0  0  0  0  0  0  0
    1.5297    5.8279    6.2016 H   0  0  0  0  0  0  0  0  0  0  0  0
    1.5820    7.6855    5.1154 C   0  0  0  0  0  0  0  0  0  0  0  0
    1.7740    8.2027    3.8349 C   0  0  0  0  0  0  0  0  0  0  0  0
    1.7284    9.2667    3.6616 H   0  0  0  0  0  0  0  0  0  0  0  0
    2.0306    7.3561    2.7798 C   0  0  0  0  0  0  0  0  0  0  0  0
    2.1893    7.7639    1.7875 H   0  0  0  0  0  0  0  0  0  0  0  0
    1.3269    8.5755    6.2849 C   0  0  0  0  0  0  0  0  0  0  0  0
    2.2556    9.0607    6.5864 H   0  0  0  0  0  0  0  0  0  0  0  0
    0.9468    8.0088    7.1309 H   0  0  0  0  0  0  0  0  0  0  0  0
    0.6144    9.3563    6.0261 H   0  0  0  0  0  0  0  0  0  0  0  0
    0.6826    3.7998    1.8824 N   0  0  0  0  0  0  0  0  0  0  0  0
    0.6610    2.6101    2.5352 C   0  0  0  0  0  3  0  0  0  0  0  0
    1.5925    2.0571    2.5492 H   0  0  0  0  0  0  0  0  0  0  0  0
   -0.4473    2.0967    3.1522 C   0  0  0  0  0  0  0  0  0  0  0  0
   -0.3829    1.1467    3.6572 H   0  0  0  0  0  0  0  0  0  0  0  0
   -1.6535    2.8120    3.1190 C   0  0  0  0  0  0  0  0  0  0  0  0
   -2.5338    2.4360    3.6138 H   0  0  0  0  0  0  0  0  0  0  0  0
   -1.6817    3.9912    2.4136 C   0  0  0  0  0  0  0  0  0  0  0  0
   -2.5942    4.5596    2.3340 H   0  0  0  0  0  0  0  0  0  0  0  0
   -0.5253    4.4650    1.7843 C   0  0  0  0  0  0  0  0  0  0  0  0
    0.8053    5.8031    0.3982 N   0  0  0  0  0  0  0  0  0  0  0  0
    0.9152    6.7704   -0.5474 C   0  0  0  0  0  3  0  0  0  0  0  0
    1.8859    6.8686   -1.0183 H   0  0  0  0  0  0  0  0  0  0  0  0
   -0.1109    7.5959   -0.9196 C   0  0  0  0  0  0  0  0  0  0  0  0
    0.0573    8.3462   -1.6748 H   0  0  0  0  0  0  0  0  0  0  0  0
   -1.3686    7.4550   -0.3148 C   0  0  0  0  0  0  0  0  0  0  0  0
   -2.1856    8.1067   -0.5778 H   0  0  0  0  0  0  0  0  0  0  0  0
   -1.5308    6.4436    0.6015 C   0  0  0  0  0  0  0  0  0  0  0  0
   -2.4878    6.2767    1.0689 H   0  0  0  0  0  0  0  0  0  0  0  0
   -0.4548    5.6135    0.9344 C   0  0  0  0  0  0  0  0  0  0  0  0
  1 32  1  0  0  0  0
  1  2  1  0  0  0  0
  1 18  1  0  0  0  0
  3  1  1  0  0  0  0
  4  1  1  0  0  0  0
  5  4  1  0  0  0  0
  5  6  1  0  0  0  0
  7  5  1  0  0  0  0
  8  7  1  0  0  0  0
  9 10  1  0  0  0  0
  9  7  2  0  0  0  0
 10 12  2  0  0  0  0
 11 10  1  0  0  0  0
 12 13  1  0  0  0  0
 12  4  1  0  0  0  0
 14 15  1  0  0  0  0
 14  9  1  0  0  0  0
 16 14  1  0  0  0  0
 17 14  1  0  0  0  0
 18 19  1  0  0  0  0
 19 20  1  0  0  0  0
 19 21  1  0  0  0  0
 21 22  1  0  0  0  0
 23 21  2  0  0  0  0
 23 28  1  0  0  0  0
 24 23  1  0  0  0  0
 25 24  1  0  0  0  0
 26 18  1  0  0  0  0
 26 24  2  0  0  0  0
 27 26  1  0  0  0  0
 28 29  1  0  0  0  0
 28 30  1  0  0  0  0
 31 28  1  0  0  0  0
 32 33  1  0  0  0  0
 33 34  1  0  0  0  0
 33 35  1  0  0  0  0
 35 36  1  0  0  0  0
 37 35  2  0  0  0  0
 37 38  1  0  0  0  0
 39 37  1  0  0  0  0
 40 39  1  0  0  0  0
 41 32  1  0  0  0  0
 41 39  2  0  0  0  0
 42 51  1  0  0  0  0
 42  1  1  0  0  0  0
 43 42  1  0  0  0  0
 44 43  1  0  0  0  0
 45 43  1  0  0  0  0
 45 47  2  0  0  0  0
 46 45  1  0  0  0  0
 47 49  1  0  0  0  0
 48 47  1  0  0  0  0
 49 51  2  0  0  0  0
 49 50  1  0  0  0  0
 51 41  1  0  0  0  0
M  END
$$$$
