CSD_code = YOXGOI | q = 0 | S = 0 | Stoichiometry = C17H20Br2N4Pd | MND = 4
 OpenBabel04212202123D

 44 46  0  0  0  0  0  0  0  0999 V2000
    8.1994    2.9650    9.2410 Pd  0  0  0  0  0  0  0  0  0  0  0  0
    6.4587    4.6494    9.6193 Br  0  0  0  0  0  0  0  0  0  0  0  0
   10.1097    1.5317    8.6975 Br  0  0  0  0  0  0  0  0  0  0  0  0
   10.1655    5.0223    9.7264 N   0  0  0  0  0  0  0  0  0  0  0  0
    9.5698    4.2611   11.6192 N   0  0  0  0  0  0  0  0  0  0  0  0
   10.8518    5.7348   10.6368 N   0  0  0  0  0  0  0  0  0  0  0  0
    6.9704    1.9477    8.0005 N   0  0  0  0  0  0  0  0  0  0  0  0
    9.3789    4.1096   10.2882 C   0  0  0  0  0  0  0  0  0  0  0  0
   10.4787    5.2611   11.7792 C   0  0  0  0  0  0  0  0  0  0  0  0
   10.8344    5.6080   12.7273 H   0  0  0  0  0  0  0  0  0  0  0  0
   10.2886    5.2985    8.3066 C   0  0  0  0  0  0  0  0  0  0  0  0
    9.5962    4.5984    7.7901 H   0  0  0  0  0  0  0  0  0  0  0  0
   11.7228    5.0300    7.8671 C   0  0  0  0  0  0  0  0  0  0  0  0
   12.4039    5.6577    8.4365 H   0  0  0  0  0  0  0  0  0  0  0  0
   11.8346    5.2513    6.8097 H   0  0  0  0  0  0  0  0  0  0  0  0
   11.9770    3.9850    8.0334 H   0  0  0  0  0  0  0  0  0  0  0  0
    9.8522    6.7362    8.0458 C   0  0  0  0  0  0  0  0  0  0  0  0
    8.8215    6.8820    8.3646 H   0  0  0  0  0  0  0  0  0  0  0  0
    9.9233    6.9591    6.9851 H   0  0  0  0  0  0  0  0  0  0  0  0
   10.4921    7.4205    8.5975 H   0  0  0  0  0  0  0  0  0  0  0  0
    8.8748    3.5117   12.6472 C   0  0  0  0  0  0  0  0  0  0  0  0
    7.8803    3.9535   12.7887 H   0  0  0  0  0  0  0  0  0  0  0  0
    9.4440    3.6010   13.5762 H   0  0  0  0  0  0  0  0  0  0  0  0
    8.7552    2.0698   12.2144 C   0  0  0  0  0  0  0  0  0  0  0  0
    7.5660    1.5981   11.6494 C   0  0  0  0  0  0  0  0  0  0  0  0
    6.6793    2.2313   11.6549 H   0  0  0  0  0  0  0  0  0  0  0  0
    7.4898    0.2803   11.2087 C   0  0  0  0  0  0  0  0  0  0  0  0
    6.5626   -0.1053   10.8060 H   0  0  0  0  0  0  0  0  0  0  0  0
    8.5944   -0.5513   11.3015 C   0  0  0  0  0  0  0  0  0  0  0  0
    8.5370   -1.5657   10.9372 H   0  0  0  0  0  0  0  0  0  0  0  0
    9.7732   -0.0804   11.8528 C   0  0  0  0  0  0  0  0  0  0  0  0
   10.6370   -0.7236   11.9146 H   0  0  0  0  0  0  0  0  0  0  0  0
    9.8525    1.2234   12.3104 C   0  0  0  0  0  0  0  0  0  0  0  0
   10.7776    1.5914   12.7313 H   0  0  0  0  0  0  0  0  0  0  0  0
    7.3164    1.8797    6.7155 C   0  0  0  0  0  3  0  0  0  0  0  0
    8.3079    2.2411    6.4508 H   0  0  0  0  0  0  0  0  0  0  0  0
    6.4753    1.3640    5.7451 C   0  0  0  0  0  0  0  0  0  0  0  0
    6.7991    1.3340    4.7170 H   0  0  0  0  0  0  0  0  0  0  0  0
    5.2266    0.8946    6.1198 C   0  0  0  0  0  0  0  0  0  0  0  0
    4.5475    0.4844    5.3881 H   0  0  0  0  0  0  0  0  0  0  0  0
    4.8675    0.9728    7.4560 C   0  0  0  0  0  0  0  0  0  0  0  0
    3.9031    0.6311    7.7967 H   0  0  0  0  0  0  0  0  0  0  0  0
    5.7649    1.5126    8.3598 C   0  0  0  0  0  0  0  0  0  0  0  0
    5.4993    1.6181    9.4062 H   0  0  0  0  0  0  0  0  0  0  0  0
  1  2  1  0  0  0  0
  1  8  2  0  0  0  0
  3  1  1  0  0  0  0
  4  8  1  0  0  0  0
  4  6  1  0  0  0  0
  5  9  1  0  0  0  0
  5 21  1  0  0  0  0
  6  9  2  0  0  0  0
  7 43  1  0  0  0  0
  7  1  1  0  0  0  0
  8  5  1  0  0  0  0
  9 10  1  0  0  0  0
 11  4  1  0  0  0  0
 12 11  1  0  0  0  0
 13 16  1  0  0  0  0
 13 11  1  0  0  0  0
 13 14  1  0  0  0  0
 15 13  1  0  0  0  0
 17 11  1  0  0  0  0
 17 18  1  0  0  0  0
 17 20  1  0  0  0  0
 19 17  1  0  0  0  0
 21 22  1  0  0  0  0
 21 23  1  0  0  0  0
 24 33  1  0  0  0  0
 24 21  1  0  0  0  0
 25 26  1  0  0  0  0
 25 24  2  0  0  0  0
 27 29  2  0  0  0  0
 27 25  1  0  0  0  0
 28 27  1  0  0  0  0
 29 31  1  0  0  0  0
 30 29  1  0  0  0  0
 31 32  1  0  0  0  0
 31 33  2  0  0  0  0
 33 34  1  0  0  0  0
 35  7  1  0  0  0  0
 36 35  1  0  0  0  0
 37 39  2  0  0  0  0
 37 35  1  0  0  0  0
 38 37  1  0  0  0  0
 39 41  1  0  0  0  0
 40 39  1  0  0  0  0
 41 42  1  0  0  0  0
 41 43  2  0  0  0  0
 43 44  1  0  0  0  0
M  END
$$$$
