CSD_code = YOXGIC | q = 0 | S = 0 | Stoichiometry = C28H35Cl2N3Pd | MND = 4
 OpenBabel04212202123D

 69 72  0  0  0  0  0  0  0  0999 V2000
    1.3061    2.5265   10.7415 Pd  0  0  0  0  0  0  0  0  0  0  0  0
    2.7079    2.8483   12.5334 Cl  0  0  0  0  0  0  0  0  0  0  0  0
   -0.2491    2.1790    9.0848 Cl  0  0  0  0  0  0  0  0  0  0  0  0
    3.0972    2.0013    8.5041 N   0  0  0  0  0  0  0  0  0  0  0  0
    3.4881    3.9388    9.4086 N   0  0  0  0  0  0  0  0  0  0  0  0
   -0.1424    2.1897   12.0484 N   0  0  0  0  0  0  0  0  0  0  0  0
    2.7293    2.8476    9.4623 C   0  0  0  0  0  0  0  0  0  0  0  0
    4.2751    2.4710    7.7798 C   0  0  0  0  0  0  0  0  0  0  0  0
    4.1480    2.3906    6.7009 H   0  0  0  0  0  0  0  0  0  0  0  0
    5.1458    1.8699    8.0725 H   0  0  0  0  0  0  0  0  0  0  0  0
    4.3900    3.9227    8.2598 C   0  0  0  0  0  0  0  0  0  0  0  0
    5.4070    4.1977    8.5368 H   0  0  0  0  0  0  0  0  0  0  0  0
    4.0312    4.6357    7.5060 H   0  0  0  0  0  0  0  0  0  0  0  0
    2.4698    0.7393    8.3214 C   0  0  0  0  0  0  0  0  0  0  0  0
    1.7394    0.4950    7.1554 C   0  0  0  0  0  0  0  0  0  0  0  0
    1.6031    1.5111    6.0556 C   0  0  0  0  0  0  0  0  0  0  0  0
    1.8898    2.4995    6.4139 H   0  0  0  0  0  0  0  0  0  0  0  0
    0.5483    1.5675    5.7805 H   0  0  0  0  0  0  0  0  0  0  0  0
    2.4200    1.1272    4.8206 C   0  0  0  0  0  0  0  0  0  0  0  0
    3.4751    1.0129    5.0643 H   0  0  0  0  0  0  0  0  0  0  0  0
    2.3224    1.8884    4.0496 H   0  0  0  0  0  0  0  0  0  0  0  0
    2.0695    0.1812    4.4154 H   0  0  0  0  0  0  0  0  0  0  0  0
    1.0713   -0.7145    7.0275 C   0  0  0  0  0  0  0  0  0  0  0  0
    0.4955   -0.9028    6.1336 H   0  0  0  0  0  0  0  0  0  0  0  0
    1.0859   -1.6454    8.0471 C   0  0  0  0  0  0  0  0  0  0  0  0
    0.5330   -2.5678    7.9467 H   0  0  0  0  0  0  0  0  0  0  0  0
    1.7866   -1.3812    9.2074 C   0  0  0  0  0  0  0  0  0  0  0  0
    1.7729   -2.0993   10.0144 H   0  0  0  0  0  0  0  0  0  0  0  0
    2.4989   -0.1973    9.3644 C   0  0  0  0  0  0  0  0  0  0  0  0
    3.2975    0.0100   10.6292 C   0  0  0  0  0  0  0  0  0  0  0  0
    3.8325    0.9630   10.6063 H   0  0  0  0  0  0  0  0  0  0  0  0
    2.6159    0.0369   11.4935 H   0  0  0  0  0  0  0  0  0  0  0  0
    4.3261   -1.1035   10.8381 C   0  0  0  0  0  0  0  0  0  0  0  0
    3.8489   -2.0723   10.9590 H   0  0  0  0  0  0  0  0  0  0  0  0
    4.9137   -0.8980   11.7295 H   0  0  0  0  0  0  0  0  0  0  0  0
    4.9990   -1.1613    9.9841 H   0  0  0  0  0  0  0  0  0  0  0  0
    3.3248    5.0271   10.3078 C   0  0  0  0  0  0  0  0  0  0  0  0
    2.0962    5.7014   10.3516 C   0  0  0  0  0  0  0  0  0  0  0  0
    0.9716    5.4134    9.3860 C   0  0  0  0  0  0  0  0  0  0  0  0
    0.1091    5.0081    9.9392 H   0  0  0  0  0  0  0  0  0  0  0  0
    1.2693    4.6614    8.6503 H   0  0  0  0  0  0  0  0  0  0  0  0
    0.5334    6.6669    8.6260 C   0  0  0  0  0  0  0  0  0  0  0  0
    0.1305    7.4226    9.2947 H   0  0  0  0  0  0  0  0  0  0  0  0
   -0.2357    6.4062    7.9030 H   0  0  0  0  0  0  0  0  0  0  0  0
    1.3783    7.1005    8.0934 H   0  0  0  0  0  0  0  0  0  0  0  0
    1.9222    6.6928   11.3109 C   0  0  0  0  0  0  0  0  0  0  0  0
    0.9709    7.1996   11.3796 H   0  0  0  0  0  0  0  0  0  0  0  0
    2.9371    7.0273   12.1856 C   0  0  0  0  0  0  0  0  0  0  0  0
    2.7805    7.7962   12.9279 H   0  0  0  0  0  0  0  0  0  0  0  0
    4.1423    6.3564   12.1267 C   0  0  0  0  0  0  0  0  0  0  0  0
    4.9252    6.5912   12.8325 H   0  0  0  0  0  0  0  0  0  0  0  0
    4.3476    5.3366   11.2084 C   0  0  0  0  0  0  0  0  0  0  0  0
    5.6429    4.5748   11.2598 C   0  0  0  0  0  0  0  0  0  0  0  0
    5.8497    4.3353   12.3045 H   0  0  0  0  0  0  0  0  0  0  0  0
    5.5476    3.6267   10.7310 H   0  0  0  0  0  0  0  0  0  0  0  0
    6.8074    5.3919   10.6972 C   0  0  0  0  0  0  0  0  0  0  0  0
    6.6156    5.6988    9.6701 H   0  0  0  0  0  0  0  0  0  0  0  0
    7.7257    4.8091   10.7195 H   0  0  0  0  0  0  0  0  0  0  0  0
    6.9573    6.2918   11.2886 H   0  0  0  0  0  0  0  0  0  0  0  0
   -0.6077    0.9568   12.2237 C   0  0  0  0  0  3  0  0  0  0  0  0
   -0.1664    0.1809   11.6006 H   0  0  0  0  0  0  0  0  0  0  0  0
   -1.6113    0.6704   13.1329 C   0  0  0  0  0  0  0  0  0  0  0  0
   -1.9618   -0.3429   13.2505 H   0  0  0  0  0  0  0  0  0  0  0  0
   -2.1526    1.7057   13.8796 C   0  0  0  0  0  0  0  0  0  0  0  0
   -2.9381    1.5163   14.5957 H   0  0  0  0  0  0  0  0  0  0  0  0
   -1.6643    2.9889   13.6876 C   0  0  0  0  0  0  0  0  0  0  0  0
   -2.0568    3.8235   14.2469 H   0  0  0  0  0  0  0  0  0  0  0  0
   -0.6540    3.1873   12.7622 C   0  0  0  0  0  0  0  0  0  0  0  0
   -0.2253    4.1730   12.5915 H   0  0  0  0  0  0  0  0  0  0  0  0
  1  6  1  0  0  0  0
  1  2  1  0  0  0  0
  3  1  1  0  0  0  0
  4  7  1  0  0  0  0
  5  7  1  0  0  0  0
  5 37  1  0  0  0  0
  6 60  1  0  0  0  0
  6 68  1  0  0  0  0
  7  1  2  0  0  0  0
  8 10  1  0  0  0  0
  8 11  1  0  0  0  0
  8  4  1  0  0  0  0
  9  8  1  0  0  0  0
 11 12  1  0  0  0  0
 11  5  1  0  0  0  0
 13 11  1  0  0  0  0
 14  4  1  0  0  0  0
 14 29  1  0  0  0  0
 15 14  2  0  0  0  0
 16 17  1  0  0  0  0
 16 15  1  0  0  0  0
 18 16  1  0  0  0  0
 19 20  1  0  0  0  0
 19 16  1  0  0  0  0
 21 19  1  0  0  0  0
 22 19  1  0  0  0  0
 23 15  1  0  0  0  0
 23 25  2  0  0  0  0
 24 23  1  0  0  0  0
 25 27  1  0  0  0  0
 26 25  1  0  0  0  0
 27 29  2  0  0  0  0
 27 28  1  0  0  0  0
 29 30  1  0  0  0  0
 30 33  1  0  0  0  0
 30 32  1  0  0  0  0
 31 30  1  0  0  0  0
 33 34  1  0  0  0  0
 33 35  1  0  0  0  0
 36 33  1  0  0  0  0
 37 38  2  0  0  0  0
 37 52  1  0  0  0  0
 38 46  1  0  0  0  0
 39 40  1  0  0  0  0
 39 38  1  0  0  0  0
 41 39  1  0  0  0  0
 42 43  1  0  0  0  0
 42 39  1  0  0  0  0
 44 42  1  0  0  0  0
 45 42  1  0  0  0  0
 46 47  1  0  0  0  0
 46 48  2  0  0  0  0
 48 49  1  0  0  0  0
 50 48  1  0  0  0  0
 50 51  1  0  0  0  0
 52 53  1  0  0  0  0
 52 50  2  0  0  0  0
 53 54  1  0  0  0  0
 55 53  1  0  0  0  0
 56 58  1  0  0  0  0
 56 53  1  0  0  0  0
 56 59  1  0  0  0  0
 57 56  1  0  0  0  0
 60 62  1  0  0  0  0
 61 60  1  0  0  0  0
 62 63  1  0  0  0  0
 62 64  2  0  0  0  0
 64 65  1  0  0  0  0
 66 64  1  0  0  0  0
 66 67  1  0  0  0  0
 68 66  2  0  0  0  0
 69 68  1  0  0  0  0
M  END
$$$$
