CSD_code = YOXKUS | q = 0 | S = 0 | Stoichiometry = C23H24I2OPRe | MND = 9
 OpenBabel04212202123D

 52 55  0  0  1  0  0  0  0  0999 V2000
   -3.5214    8.9769   14.1073 Re  0  0  0  0  0  0  0  0  0  0  0  0
   -1.5199   10.6386   13.6603 I   0  0  0  0  0  0  0  0  0  0  0  0
   -5.4677   10.3667   13.0026 I   0  0  0  0  0  0  0  0  0  0  0  0
   -1.7464    7.4976   15.0084 P   0  0  0  0  0  4  0  0  0  0  0  0
   -1.9814    7.1289   12.4031 C   0  0  0  0  0  0  0  0  0  0  0  0
   -3.4438    7.0567   12.6970 C   0  0  2  0  0  0  0  0  0  0  0  0
   -4.0840    7.4865   11.4329 C   0  0  0  0  0  0  0  0  0  0  0  0
   -3.1144    7.8539   10.5505 C   0  0  0  0  0  0  0  0  0  0  0  0
   -1.8003    7.6535   11.1676 C   0  0  0  0  0  0  0  0  0  0  0  0
   -4.0056    5.7938   13.3120 C   0  0  0  0  0  0  0  0  0  0  0  0
   -3.9127    4.9760   12.5947 H   0  0  0  0  0  0  0  0  0  0  0  0
   -5.0608    5.9174   13.5512 H   0  0  0  0  0  0  0  0  0  0  0  0
   -3.4783    5.5183   14.2230 H   0  0  0  0  0  0  0  0  0  0  0  0
   -5.5437    7.3437   11.1536 C   0  0  0  0  0  0  0  0  0  0  0  0
   -5.7301    6.3861   10.6628 H   0  0  0  0  0  0  0  0  0  0  0  0
   -5.8987    8.1341   10.4953 H   0  0  0  0  0  0  0  0  0  0  0  0
   -6.1297    7.3731   12.0703 H   0  0  0  0  0  0  0  0  0  0  0  0
   -3.2821    8.3516    9.1603 C   0  0  0  0  0  0  0  0  0  0  0  0
   -2.9590    7.5938    8.4441 H   0  0  0  0  0  0  0  0  0  0  0  0
   -2.6718    9.2412    9.0026 H   0  0  0  0  0  0  0  0  0  0  0  0
   -4.3211    8.5971    8.9561 H   0  0  0  0  0  0  0  0  0  0  0  0
   -0.5221    8.0138   10.4978 C   0  0  0  0  0  0  0  0  0  0  0  0
   -0.5238    7.6744    9.4636 H   0  0  0  0  0  0  0  0  0  0  0  0
    0.3316    7.5760   11.0100 H   0  0  0  0  0  0  0  0  0  0  0  0
   -0.4001    9.0990   10.4950 H   0  0  0  0  0  0  0  0  0  0  0  0
   -0.9666    6.8491   13.4730 C   0  0  0  0  0  0  0  0  0  0  0  0
   -0.0431    7.4092   13.2933 H   0  0  0  0  0  0  0  0  0  0  0  0
   -0.7295    5.7847   13.5542 H   0  0  0  0  0  0  0  0  0  0  0  0
   -0.4509    8.2764   16.0172 C   0  0  0  0  0  0  0  0  0  0  0  0
    0.8404    7.7639   16.0251 C   0  0  0  0  0  0  0  0  0  0  0  0
    1.0962    6.9254   15.3920 H   0  0  0  0  0  0  0  0  0  0  0  0
    1.7959    8.3359   16.8456 C   0  0  0  0  0  0  0  0  0  0  0  0
    2.8039    7.9483   16.8448 H   0  0  0  0  0  0  0  0  0  0  0  0
    1.4629    9.4024   17.6645 C   0  0  0  0  0  0  0  0  0  0  0  0
    2.2140    9.8477   18.2992 H   0  0  0  0  0  0  0  0  0  0  0  0
    0.1699    9.9010   17.6705 C   0  0  0  0  0  0  0  0  0  0  0  0
   -0.0886   10.7323   18.3088 H   0  0  0  0  0  0  0  0  0  0  0  0
   -0.7884    9.3380   16.8497 C   0  0  0  0  0  0  0  0  0  0  0  0
   -1.8004    9.7304   16.8299 H   0  0  0  0  0  0  0  0  0  0  0  0
   -2.0797    6.1196   16.1603 C   0  0  0  0  0  0  0  0  0  0  0  0
   -1.7710    4.7863   15.9199 C   0  0  0  0  0  0  0  0  0  0  0  0
   -1.3455    4.4730   14.9773 H   0  0  0  0  0  0  0  0  0  0  0  0
   -2.0163    3.8340   16.8943 C   0  0  0  0  0  0  0  0  0  0  0  0
   -1.7751    2.7994   16.6994 H   0  0  0  0  0  0  0  0  0  0  0  0
   -2.5682    4.2013   18.1092 C   0  0  0  0  0  0  0  0  0  0  0  0
   -2.7612    3.4528   18.8626 H   0  0  0  0  0  0  0  0  0  0  0  0
   -2.8693    5.5314   18.3572 C   0  0  0  0  0  0  0  0  0  0  0  0
   -3.2964    5.8241   19.3043 H   0  0  0  0  0  0  0  0  0  0  0  0
   -2.6214    6.4857   17.3907 C   0  0  0  0  0  0  0  0  0  0  0  0
   -2.8448    7.5261   17.5814 H   0  0  0  0  0  0  0  0  0  0  0  0
   -4.5474    8.4598   15.6488 C   0  0  0  0  0  2  0  0  0  0  0  0
   -5.1944    8.2260   16.5715 O   0  0  0  0  0  1  0  0  0  0  0  0
  1  4  1  0  0  0  0
  1 51  1  0  0  0  0
  2  1  1  0  0  0  0
  3  1  1  0  0  0  0
  4 29  1  0  0  0  0
  4 40  1  0  0  0  0
  5  6  1  0  0  0  0
  5 26  1  0  0  0  0
  6 10  1  1  0  0  0
  6  1  1  0  0  0  0
  7  6  1  0  0  0  0
  8  9  1  0  0  0  0
  8  7  2  0  0  0  0
  9  5  2  0  0  0  0
 10 12  1  0  0  0  0
 10 13  1  0  0  0  0
 11 10  1  0  0  0  0
 14  7  1  0  0  0  0
 14 17  1  0  0  0  0
 15 14  1  0  0  0  0
 16 14  1  0  0  0  0
 18  8  1  0  0  0  0
 19 18  1  0  0  0  0
 20 18  1  0  0  0  0
 21 18  1  0  0  0  0
 22 24  1  0  0  0  0
 22  9  1  0  0  0  0
 23 22  1  0  0  0  0
 25 22  1  0  0  0  0
 26 28  1  0  0  0  0
 26  4  1  0  0  0  0
 27 26  1  0  0  0  0
 29 30  2  0  0  0  0
 29 38  1  0  0  0  0
 30 32  1  0  0  0  0
 31 30  1  0  0  0  0
 32 34  2  0  0  0  0
 33 32  1  0  0  0  0
 34 36  1  0  0  0  0
 34 35  1  0  0  0  0
 36 37  1  0  0  0  0
 38 36  2  0  0  0  0
 39 38  1  0  0  0  0
 40 49  1  0  0  0  0
 41 40  2  0  0  0  0
 41 43  1  0  0  0  0
 42 41  1  0  0  0  0
 43 45  2  0  0  0  0
 44 43  1  0  0  0  0
 45 47  1  0  0  0  0
 45 46  1  0  0  0  0
 47 48  1  0  0  0  0
 49 50  1  0  0  0  0
 49 47  2  0  0  0  0
 51 52  1  0  0  0  0
M  END
$$$$
