CSD_code = YOYFEZ | q = 0 | S = 0 | Stoichiometry = C21H43ClN2P2Pd | MND = 4
 OpenBabel04212202123D

 70 71  0  0  0  0  0  0  0  0999 V2000
   -5.7393   -2.3001    9.2289 Pd  0  0  2  0  0  0  0  0  0  0  0  0
   -5.7723   -3.3109   11.3015 Cl  0  0  0  0  0  0  0  0  0  0  0  0
   -5.0871    0.1593    7.4718 P   0  0  0  0  0  4  0  0  0  0  0  0
   -7.5253   -0.8872    9.8945 P   0  0  0  0  0  4  0  0  0  0  0  0
   -6.3903    1.0767    8.3142 C   0  0  0  0  0  0  0  0  0  0  0  0
   -7.4781    0.6398    9.0319 N   0  0  0  0  0  0  0  0  0  0  0  0
   -8.3092    1.7255    9.1125 C   0  0  0  0  0  0  0  0  0  0  0  0
   -9.2758    1.6759    9.5633 H   0  0  0  0  0  0  0  0  0  0  0  0
   -7.6866    2.7663    8.4871 C   0  0  0  0  0  0  0  0  0  0  0  0
   -8.0202    3.7767    8.3557 H   0  0  0  0  0  0  0  0  0  0  0  0
   -6.4987    2.3482    7.9955 N   0  0  0  0  0  0  0  0  0  0  0  0
   -4.4572   -3.8096    8.6552 C   0  0  0  0  0  0  0  0  0  0  0  0
   -5.0446   -4.5059    8.0366 H   0  0  0  0  0  0  0  0  0  0  0  0
   -4.1077   -4.3561    9.5349 H   0  0  0  0  0  0  0  0  0  0  0  0
   -3.5710   -3.5065    8.0845 H   0  0  0  0  0  0  0  0  0  0  0  0
   -5.4655   -1.5513    7.3264 C   0  0  0  0  0  0  0  0  0  0  0  0
   -4.6383   -2.0108    6.7771 H   0  0  0  0  0  0  0  0  0  0  0  0
   -6.3681   -1.6312    6.7118 H   0  0  0  0  0  0  0  0  0  0  0  0
   -3.4891    0.4770    8.4234 C   0  0  0  0  0  0  0  0  0  0  0  0
   -2.3318   -0.2636    7.7604 C   0  0  0  0  0  0  0  0  0  0  0  0
   -1.4354   -0.1456    8.3674 H   0  0  0  0  0  0  0  0  0  0  0  0
   -2.1148    0.1276    6.7686 H   0  0  0  0  0  0  0  0  0  0  0  0
   -2.5499   -1.3281    7.6898 H   0  0  0  0  0  0  0  0  0  0  0  0
   -3.6858   -0.0633    9.8408 C   0  0  0  0  0  0  0  0  0  0  0  0
   -2.7622    0.0556   10.4055 H   0  0  0  0  0  0  0  0  0  0  0  0
   -3.9488   -1.1417    9.8451 H   0  0  0  0  0  0  0  0  0  0  0  0
   -4.4661    0.5037   10.3468 H   0  0  0  0  0  0  0  0  0  0  0  0
   -3.2092    1.9788    8.5225 C   0  0  0  0  0  0  0  0  0  0  0  0
   -4.1314    2.5369    8.6739 H   0  0  0  0  0  0  0  0  0  0  0  0
   -2.7146    2.3585    7.6348 H   0  0  0  0  0  0  0  0  0  0  0  0
   -2.5527    2.1662    9.3708 H   0  0  0  0  0  0  0  0  0  0  0  0
   -5.1115    0.9278    5.7256 C   0  0  0  0  0  0  0  0  0  0  0  0
   -4.5086    2.3226    5.6102 C   0  0  0  0  0  0  0  0  0  0  0  0
   -3.4249    2.2921    5.6759 H   0  0  0  0  0  0  0  0  0  0  0  0
   -4.9091    2.9749    6.3797 H   0  0  0  0  0  0  0  0  0  0  0  0
   -4.7694    2.7383    4.6376 H   0  0  0  0  0  0  0  0  0  0  0  0
   -4.3710   -0.0310    4.7892 C   0  0  0  0  0  0  0  0  0  0  0  0
   -4.3307    0.4045    3.7917 H   0  0  0  0  0  0  0  0  0  0  0  0
   -4.8841   -0.9871    4.7146 H   0  0  0  0  0  0  0  0  0  0  0  0
   -3.3498   -0.2109    5.1155 H   0  0  0  0  0  0  0  0  0  0  0  0
   -6.5793    0.9854    5.2904 C   0  0  0  0  0  0  0  0  0  0  0  0
   -6.6314    1.1385    4.2138 H   0  0  0  0  0  0  0  0  0  0  0  0
   -7.0951    1.8100    5.7742 H   0  0  0  0  0  0  0  0  0  0  0  0
   -7.1051    0.0593    5.5213 H   0  0  0  0  0  0  0  0  0  0  0  0
   -7.8109   -0.3123   11.6965 C   0  0  0  0  0  0  0  0  0  0  0  0
   -8.7459    0.8672   11.9650 C   0  0  0  0  0  0  0  0  0  0  0  0
   -9.7471    0.7140   11.5738 H   0  0  0  0  0  0  0  0  0  0  0  0
   -8.3424    1.7994   11.5752 H   0  0  0  0  0  0  0  0  0  0  0  0
   -8.8328    0.9806   13.0457 H   0  0  0  0  0  0  0  0  0  0  0  0
   -6.4074    0.0792   12.1682 C   0  0  0  0  0  0  0  0  0  0  0  0
   -6.4207    0.3114   13.2316 H   0  0  0  0  0  0  0  0  0  0  0  0
   -6.0542    0.9660   11.6389 H   0  0  0  0  0  0  0  0  0  0  0  0
   -5.7182   -0.7525   12.0128 H   0  0  0  0  0  0  0  0  0  0  0  0
   -8.2695   -1.5177   12.5187 C   0  0  0  0  0  0  0  0  0  0  0  0
   -7.6299   -2.3756   12.3153 H   0  0  0  0  0  0  0  0  0  0  0  0
   -9.3070   -1.7783   12.3273 H   0  0  0  0  0  0  0  0  0  0  0  0
   -8.1790   -1.2801   13.5779 H   0  0  0  0  0  0  0  0  0  0  0  0
   -9.1124   -1.6778    9.2099 C   0  0  0  0  0  0  0  0  0  0  0  0
  -10.4480   -1.1516    9.7308 C   0  0  0  0  0  0  0  0  0  0  0  0
  -10.6080   -0.1154    9.4392 H   0  0  0  0  0  0  0  0  0  0  0  0
  -10.5319   -1.2379   10.8092 H   0  0  0  0  0  0  0  0  0  0  0  0
  -11.2523   -1.7427    9.2918 H   0  0  0  0  0  0  0  0  0  0  0  0
   -8.9535   -3.1682    9.5347 C   0  0  0  0  0  0  0  0  0  0  0  0
   -9.7295   -3.7482    9.0359 H   0  0  0  0  0  0  0  0  0  0  0  0
   -9.0167   -3.3547   10.6038 H   0  0  0  0  0  0  0  0  0  0  0  0
   -7.9697   -3.5310    9.1868 H   0  0  0  0  0  0  0  0  0  0  0  0
   -9.0968   -1.5274    7.6860 C   0  0  0  0  0  0  0  0  0  0  0  0
   -9.9925   -1.9832    7.2653 H   0  0  0  0  0  0  0  0  0  0  0  0
   -8.2356   -2.0479    7.2698 H   0  0  0  0  0  0  0  0  0  0  0  0
   -9.0741   -0.4829    7.3754 H   0  0  0  0  0  0  0  0  0  0  0  0
  1  4  1  0  0  0  0
  1  2  1  1  0  0  0
  3  5  1  0  0  0  0
  3 19  1  0  0  0  0
  4 45  1  0  0  0  0
  5  6  1  0  0  0  0
  6  7  1  0  0  0  0
  6  4  1  0  0  0  0
  7  8  1  0  0  0  0
  9  7  2  0  0  0  0
 10  9  1  0  0  0  0
 11  5  2  0  0  0  0
 11  9  1  0  0  0  0
 12  1  1  0  0  0  0
 12 14  1  0  0  0  0
 13 12  1  0  0  0  0
 15 12  1  0  0  0  0
 16  3  1  0  0  0  0
 16  1  1  0  0  0  0
 17 16  1  0  0  0  0
 18 16  1  0  0  0  0
 19 28  1  0  0  0  0
 19 24  1  0  0  0  0
 20 21  1  0  0  0  0
 20 19  1  0  0  0  0
 22 20  1  0  0  0  0
 23 20  1  0  0  0  0
 24 26  1  0  0  0  0
 24 27  1  0  0  0  0
 24 25  1  0  0  0  0
 28 29  1  0  0  0  0
 28 31  1  0  0  0  0
 30 28  1  0  0  0  0
 32  3  1  0  0  0  0
 33 34  1  0  0  0  0
 33 32  1  0  0  0  0
 33 35  1  0  0  0  0
 36 33  1  0  0  0  0
 37 40  1  0  0  0  0
 37 32  1  0  0  0  0
 38 37  1  0  0  0  0
 39 37  1  0  0  0  0
 41 44  1  0  0  0  0
 41 32  1  0  0  0  0
 41 43  1  0  0  0  0
 42 41  1  0  0  0  0
 45 46  1  0  0  0  0
 45 50  1  0  0  0  0
 45 54  1  0  0  0  0
 46 49  1  0  0  0  0
 47 46  1  0  0  0  0
 48 46  1  0  0  0  0
 50 51  1  0  0  0  0
 52 50  1  0  0  0  0
 53 50  1  0  0  0  0
 54 57  1  0  0  0  0
 55 54  1  0  0  0  0
 56 54  1  0  0  0  0
 58 63  1  0  0  0  0
 58 59  1  0  0  0  0
 58  4  1  0  0  0  0
 59 61  1  0  0  0  0
 60 59  1  0  0  0  0
 62 59  1  0  0  0  0
 63 65  1  0  0  0  0
 64 63  1  0  0  0  0
 66 63  1  0  0  0  0
 67 58  1  0  0  0  0
 68 67  1  0  0  0  0
 69 67  1  0  0  0  0
 70 67  1  0  0  0  0
M  END
$$$$
