CSD_code = YOZDAS | q = 0 | S = 0 | Stoichiometry = C19H22Cl2Zr | MND = 12
 OpenBabel04212202123D

 44 47  0  0  1  0  0  0  0  0999 V2000
    1.9430    7.8760    9.1504 Zr  0  0  0  0  0  0  0  0  0  0  0  0
    0.2003    6.7668    8.0985 Cl  0  0  0  0  0  0  0  0  0  0  0  0
    2.2588    9.3453    7.3732 Cl  0  0  0  0  0  0  0  0  0  0  0  0
    2.5246    9.4686   10.9212 C   0  0  0  0  0  0  0  0  0  0  0  0
    3.4979    9.9308   11.0301 H   0  0  0  0  0  0  0  0  0  0  0  0
    1.4071   10.0856   10.3200 C   0  0  0  0  0  0  0  0  0  0  0  0
    1.3910   11.0797    9.8905 H   0  0  0  0  0  0  0  0  0  0  0  0
    0.2842    9.2439   10.4913 C   0  0  0  0  0  0  0  0  0  0  0  0
   -0.7365    9.4946   10.2277 H   0  0  0  0  0  0  0  0  0  0  0  0
    2.9733    7.0341   11.8302 C   0  0  1  0  0  0  0  0  0  0  0  0
    2.1149    5.9141   12.4561 C   0  0  0  0  0  0  0  0  0  0  0  0
    2.6505    4.9676   12.3497 H   0  0  0  0  0  0  0  0  0  0  0  0
    2.0311    6.1111   13.5270 H   0  0  0  0  0  0  0  0  0  0  0  0
    0.6988    5.7547   11.8846 C   0  0  0  0  0  0  0  0  0  0  0  0
    0.1870    4.9839   12.4665 H   0  0  0  0  0  0  0  0  0  0  0  0
    0.7260    5.4211   10.8417 H   0  0  0  0  0  0  0  0  0  0  0  0
   -0.1338    7.0482   11.9040 C   0  0  1  0  0  0  0  0  0  0  0  0
    0.7014    8.1058   11.2312 C   0  0  0  0  0  0  0  0  0  0  0  0
    2.0944    8.2399   11.4978 C   0  0  2  0  0  0  0  0  0  0  0  0
    4.1228    7.3866   12.7818 C   0  0  0  0  0  0  0  0  0  0  0  0
    4.7273    6.5043   12.9793 H   0  0  0  0  0  0  0  0  0  0  0  0
    3.7310    7.7611   13.7250 H   0  0  0  0  0  0  0  0  0  0  0  0
    4.7642    8.1515   12.3538 H   0  0  0  0  0  0  0  0  0  0  0  0
   -1.4618    6.8099   11.1817 C   0  0  0  0  0  0  0  0  0  0  0  0
   -1.9828    5.9676   11.6322 H   0  0  0  0  0  0  0  0  0  0  0  0
   -1.2937    6.5933   10.1279 H   0  0  0  0  0  0  0  0  0  0  0  0
   -2.1022    7.6844   11.2662 H   0  0  0  0  0  0  0  0  0  0  0  0
   -0.4240    7.4859   13.3634 C   0  0  0  0  0  0  0  0  0  0  0  0
   -0.9715    6.6872   13.8675 H   0  0  0  0  0  0  0  0  0  0  0  0
    0.5256    7.6401   13.8806 H   0  0  0  0  0  0  0  0  0  0  0  0
   -1.2021    8.7597   13.4396 C   0  0  0  0  0  0  0  0  0  0  0  0
   -0.7179    9.6211   12.9992 H   0  0  0  0  0  0  0  0  0  0  0  0
   -2.3902    8.8758   14.0017 C   0  0  0  0  0  0  0  0  0  0  0  0
   -2.8923    8.0330   14.4483 H   0  0  0  0  0  0  0  0  0  0  0  0
   -2.9125    9.8163   14.0454 H   0  0  0  0  0  0  0  0  0  0  0  0
    3.4984    6.6390   10.4428 C   0  0  1  0  0  0  0  0  0  0  0  0
    2.9267    5.6750    9.5639 C   0  0  0  0  0  0  0  0  0  0  0  0
    2.3868    4.7783    9.8376 H   0  0  0  0  0  0  0  0  0  0  0  0
    3.3978    5.9300    8.2540 C   0  0  0  0  0  0  0  0  0  0  0  0
    3.2177    5.3027    7.3895 H   0  0  0  0  0  0  0  0  0  0  0  0
    4.2534    7.0454    8.3046 C   0  0  0  0  0  0  0  0  0  0  0  0
    4.8427    7.4332    7.4835 H   0  0  0  0  0  0  0  0  0  0  0  0
    4.3114    7.4926    9.6409 C   0  0  0  0  0  0  0  0  0  0  0  0
    4.9778    8.2693    9.9959 H   0  0  0  0  0  0  0  0  0  0  0  0
  1 36  1  0  0  0  0
  1 19  1  0  0  0  0
  2  1  1  0  0  0  0
  3  1  1  0  0  0  0
  4  5  1  0  0  0  0
  6  8  1  0  0  0  0
  6  4  2  0  0  0  0
  7  6  1  0  0  0  0
  8 18  2  0  0  0  0
  9  8  1  0  0  0  0
 10 11  1  0  0  0  0
 10 20  1  1  0  0  0
 11 13  1  0  0  0  0
 12 11  1  0  0  0  0
 14 17  1  0  0  0  0
 14 11  1  0  0  0  0
 14 15  1  0  0  0  0
 16 14  1  0  0  0  0
 17 24  1  6  0  0  0
 17 28  1  0  0  0  0
 18 19  1  0  0  0  0
 18 17  1  0  0  0  0
 19  4  1  1  0  0  0
 19 10  1  0  0  0  0
 20 21  1  0  0  0  0
 20 22  1  0  0  0  0
 23 20  1  0  0  0  0
 24 27  1  0  0  0  0
 24 25  1  0  0  0  0
 26 24  1  0  0  0  0
 28 31  1  0  0  0  0
 28 29  1  0  0  0  0
 28 30  1  0  0  0  0
 31 33  2  0  0  0  0
 32 31  1  0  0  0  0
 33 35  1  0  0  0  0
 33 34  1  0  0  0  0
 36 37  1  6  0  0  0
 36 10  1  0  0  0  0
 37 38  1  0  0  0  0
 39 41  1  0  0  0  0
 39 37  2  0  0  0  0
 40 39  1  0  0  0  0
 41 43  2  0  0  0  0
 42 41  1  0  0  0  0
 43 44  1  0  0  0  0
 43 36  1  0  0  0  0
M  END
$$$$
