CSD_code = YOZFID | q = 0 | S = 0 | Stoichiometry = C26H36ClN2NbO2 | MND = 7
 OpenBabel04212202123D

 68 69  0  0  0  0  0  0  0  0999 V2000
    3.1003    0.8656    6.5549 C   0  0  0  0  0  0  0  0  0  0  0  0
    2.5113    1.3042    5.4818 C   0  0  0  0  0  3  0  0  0  0  0  0
    2.5934    5.1174    7.4689 C   0  0  0  0  0  0  0  0  0  0  0  0
    3.0799   -0.3353    7.4337 C   0  0  0  0  0  0  0  0  0  0  0  0
    2.5767   -0.0951    8.3712 H   0  0  0  0  0  0  0  0  0  0  0  0
    4.0967   -0.6460    7.6729 H   0  0  0  0  0  0  0  0  0  0  0  0
    2.5525   -1.1586    6.9463 H   0  0  0  0  0  0  0  0  0  0  0  0
    1.2792    5.4818    7.8130 C   0  0  0  0  0  0  0  0  0  0  0  0
    1.4522    0.7497    4.5763 C   0  0  0  0  0  0  0  0  0  0  0  0
    1.3319   -0.3195    4.7620 H   0  0  0  0  0  0  0  0  0  0  0  0
    1.7054    0.8913    3.5250 H   0  0  0  0  0  0  0  0  0  0  0  0
    0.4953    1.2384    4.7681 H   0  0  0  0  0  0  0  0  0  0  0  0
    1.0085    6.7958    8.1584 C   0  0  0  0  0  0  0  0  0  0  0  0
   -0.0049    7.0656    8.4214 H   0  0  0  0  0  0  0  0  0  0  0  0
    1.9999    7.7662    8.1752 C   0  0  0  0  0  0  0  0  0  0  0  0
    3.2981    7.3927    7.8488 C   0  0  0  0  0  0  0  0  0  0  0  0
    4.0832    8.1367    7.8766 H   0  0  0  0  0  0  0  0  0  0  0  0
    3.6153    6.0913    7.4994 C   0  0  0  0  0  0  0  0  0  0  0  0
    0.1994    4.4372    7.8042 C   0  0  0  0  0  0  0  0  0  0  0  0
   -0.6115    4.7223    7.1335 H   0  0  0  0  0  0  0  0  0  0  0  0
   -0.2186    4.3211    8.8035 H   0  0  0  0  0  0  0  0  0  0  0  0
    0.6095    3.4772    7.4842 H   0  0  0  0  0  0  0  0  0  0  0  0
    5.0465    5.6899    7.2452 C   0  0  0  0  0  0  0  0  0  0  0  0
    5.3463    5.0072    8.0526 H   0  0  0  0  0  0  0  0  0  0  0  0
    5.6822    6.5911    7.3039 H   0  0  0  0  0  0  0  0  0  0  0  0
    6.7220    4.5830    5.9580 C   0  0  0  0  0  0  0  0  0  0  0  0
    6.8923    3.9479    6.8374 H   0  0  0  0  0  0  0  0  0  0  0  0
    7.3667    5.4745    6.0451 H   0  0  0  0  0  0  0  0  0  0  0  0
    1.6890    9.1787    8.5709 C   0  0  0  0  0  0  0  0  0  0  0  0
    1.8579    9.3129    9.6398 H   0  0  0  0  0  0  0  0  0  0  0  0
    0.6495    9.4201    8.3617 H   0  0  0  0  0  0  0  0  0  0  0  0
    2.3287    9.8806    8.0402 H   0  0  0  0  0  0  0  0  0  0  0  0
    5.0081    5.8241    4.8173 C   0  0  0  0  0  0  0  0  0  0  0  0
    5.6452    5.4947    3.9902 H   0  0  0  0  0  0  0  0  0  0  0  0
    5.2526    6.8786    5.0274 H   0  0  0  0  0  0  0  0  0  0  0  0
    3.5432    5.7540    4.3801 C   0  0  0  0  0  0  0  0  0  0  0  0
    2.9183    6.1874    5.1649 H   0  0  0  0  0  0  0  0  0  0  0  0
    3.4234    6.3718    3.4724 H   0  0  0  0  0  0  0  0  0  0  0  0
    3.0765    4.3891    4.1298 N   0  0  0  0  0  0  0  0  0  0  0  0
    1.6185    4.3852    4.0864 C   0  0  0  0  0  0  0  0  0  0  0  0
    1.2200    4.6878    5.0535 H   0  0  0  0  0  0  0  0  0  0  0  0
    1.2690    3.3799    3.8664 H   0  0  0  0  0  0  0  0  0  0  0  0
    1.2395    5.0718    3.3143 H   0  0  0  0  0  0  0  0  0  0  0  0
    3.5885    3.8850    2.8611 C   0  0  0  0  0  0  0  0  0  0  0  0
    3.2629    2.8534    2.7319 H   0  0  0  0  0  0  0  0  0  0  0  0
    4.6768    3.8980    2.8530 H   0  0  0  0  0  0  0  0  0  0  0  0
    3.2230    4.4871    2.0150 H   0  0  0  0  0  0  0  0  0  0  0  0
    7.1217    3.8054    4.7294 C   0  0  0  0  0  0  0  0  0  0  0  0
    8.2449    4.1601    3.9985 C   0  0  0  0  0  0  0  0  0  0  0  0
    8.8125    5.0302    4.3006 H   0  0  0  0  0  0  0  0  0  0  0  0
    8.6642    3.4213    2.9012 C   0  0  0  0  0  0  0  0  0  0  0  0
    7.9289    2.2999    2.5371 C   0  0  0  0  0  0  0  0  0  0  0  0
    8.2471    1.7111    1.6879 H   0  0  0  0  0  0  0  0  0  0  0  0
    6.7981    1.9125    3.2334 C   0  0  0  0  0  0  0  0  0  0  0  0
    6.3799    2.6702    4.3439 C   0  0  0  0  0  0  0  0  0  0  0  0
    9.8920    3.8054    2.1308 C   0  0  0  0  0  0  0  0  0  0  0  0
    9.6883    3.8137    1.0613 H   0  0  0  0  0  0  0  0  0  0  0  0
   10.6895    3.0850    2.3118 H   0  0  0  0  0  0  0  0  0  0  0  0
   10.2463    4.7891    2.4283 H   0  0  0  0  0  0  0  0  0  0  0  0
    5.9971    0.7082    2.8312 C   0  0  0  0  0  0  0  0  0  0  0  0
    5.3133    0.4307    3.6359 H   0  0  0  0  0  0  0  0  0  0  0  0
    6.6531   -0.1318    2.6123 H   0  0  0  0  0  0  0  0  0  0  0  0
    5.4113    0.9216    1.9355 H   0  0  0  0  0  0  0  0  0  0  0  0
    5.3036    4.9851    5.9791 N   0  0  0  0  0  0  0  0  0  0  0  0
    5.3554    2.3958    8.0983 Cl  0  0  0  0  0 15  0  0  0  0  0  0
    2.8776    3.8989    7.0699 O   0  0  0  0  0  0  0  0  0  0  0  0
    5.2911    2.3510    5.0062 O   0  0  0  0  0  0  0  0  0  0  0  0
    3.9455    2.8047    6.1142 Nb  0  0  0  0  0  0  0  0  0  0  0  0
  1  4  1  0  0  0  0
  2  1  2  0  0  0  0
  3 18  2  0  0  0  0
  3  8  1  0  0  0  0
  4  6  1  0  0  0  0
  4  5  1  0  0  0  0
  7  4  1  0  0  0  0
  8 13  2  0  0  0  0
  9 10  1  0  0  0  0
  9 12  1  0  0  0  0
  9  2  1  0  0  0  0
 11  9  1  0  0  0  0
 13 15  1  0  0  0  0
 13 14  1  0  0  0  0
 15 29  1  0  0  0  0
 16 17  1  0  0  0  0
 16 15  2  0  0  0  0
 18 16  1  0  0  0  0
 19  8  1  0  0  0  0
 19 21  1  0  0  0  0
 20 19  1  0  0  0  0
 22 19  1  0  0  0  0
 23 25  1  0  0  0  0
 23 18  1  0  0  0  0
 23 24  1  0  0  0  0
 26 64  1  0  0  0  0
 26 28  1  0  0  0  0
 26 27  1  0  0  0  0
 29 30  1  0  0  0  0
 31 29  1  0  0  0  0
 32 29  1  0  0  0  0
 33 35  1  0  0  0  0
 33 64  1  0  0  0  0
 34 33  1  0  0  0  0
 36 33  1  0  0  0  0
 36 37  1  0  0  0  0
 38 36  1  0  0  0  0
 39 36  1  0  0  0  0
 40 39  1  0  0  0  0
 40 41  1  0  0  0  0
 42 40  1  0  0  0  0
 43 40  1  0  0  0  0
 44 39  1  0  0  0  0
 45 44  1  0  0  0  0
 46 44  1  0  0  0  0
 47 44  1  0  0  0  0
 48 26  1  0  0  0  0
 49 50  1  0  0  0  0
 49 48  2  0  0  0  0
 51 49  1  0  0  0  0
 52 51  2  0  0  0  0
 52 54  1  0  0  0  0
 53 52  1  0  0  0  0
 54 55  2  0  0  0  0
 55 48  1  0  0  0  0
 55 67  1  0  0  0  0
 56 58  1  0  0  0  0
 56 59  1  0  0  0  0
 56 51  1  0  0  0  0
 57 56  1  0  0  0  0
 60 54  1  0  0  0  0
 60 61  1  0  0  0  0
 62 60  1  0  0  0  0
 63 60  1  0  0  0  0
 64 23  1  0  0  0  0
 66  3  1  0  0  0  0
 67 68  1  0  0  0  0
 68  1  1  0  0  0  0
 68 66  1  0  0  0  0
M  END
$$$$
