CSD_code = YOZHIF | q = -1 | S = 0 | Stoichiometry = C18H43Cl3IrP2(1-) | MND = 6
 OpenBabel04212202123D

 67 66  0  0  0  0  0  0  0  0999 V2000
    4.5895    9.2879    6.6782 Ir  0  0  0  0  0  0  0  0  0  0  0  0
    4.3616   10.2747    5.5503 H   0  0  0  0  0  0  0  0  0  0  0  0
    4.9596    7.6842    8.5158 Cl  0  0  0  0  0  0  0  0  0  0  0  0
    4.4363    7.5560    5.0509 Cl  0  0  0  0  0  0  0  0  0  0  0  0
    4.7120   11.1596    8.1450 Cl  0  0  0  0  0  0  0  0  0  0  0  0
    6.9083    9.4306    6.3250 P   0  0  0  0  0  4  0  0  0  0  0  0
    2.2683    9.1516    7.0170 P   0  0  0  0  0  4  0  0  0  0  0  0
    7.7214    7.8857    5.6386 C   0  0  0  0  0  0  0  0  0  0  0  0
    7.1691    7.7564    4.6985 H   0  0  0  0  0  0  0  0  0  0  0  0
    9.2131    7.9853    5.3287 C   0  0  0  0  0  0  0  0  0  0  0  0
    9.7981    8.0198    6.2454 H   0  0  0  0  0  0  0  0  0  0  0  0
    9.4556    8.8554    4.7232 H   0  0  0  0  0  0  0  0  0  0  0  0
    9.5204    7.0964    4.7754 H   0  0  0  0  0  0  0  0  0  0  0  0
    7.4495    6.6363    6.4716 C   0  0  0  0  0  0  0  0  0  0  0  0
    7.6626    5.7474    5.8765 H   0  0  0  0  0  0  0  0  0  0  0  0
    6.4068    6.5949    6.7710 H   0  0  0  0  0  0  0  0  0  0  0  0
    8.0625    6.6037    7.3683 H   0  0  0  0  0  0  0  0  0  0  0  0
    7.9048   10.0589    7.7893 C   0  0  0  0  0  0  0  0  0  0  0  0
    7.2200   10.7966    8.2291 H   0  0  0  0  0  0  0  0  0  0  0  0
    9.2324   10.7593    7.4991 C   0  0  0  0  0  0  0  0  0  0  0  0
    9.6832   11.0469    8.4502 H   0  0  0  0  0  0  0  0  0  0  0  0
    9.1007   11.6640    6.9120 H   0  0  0  0  0  0  0  0  0  0  0  0
    9.9329   10.1066    6.9839 H   0  0  0  0  0  0  0  0  0  0  0  0
    8.1145    8.9602    8.8283 C   0  0  0  0  0  0  0  0  0  0  0  0
    8.9178    8.2868    8.5325 H   0  0  0  0  0  0  0  0  0  0  0  0
    7.2006    8.3856    8.9641 H   0  0  0  0  0  0  0  0  0  0  0  0
    8.3812    9.4029    9.7887 H   0  0  0  0  0  0  0  0  0  0  0  0
    7.3797   10.6703    4.9976 C   0  0  0  0  0  0  0  0  0  0  0  0
    8.4722   10.7494    4.9800 H   0  0  0  0  0  0  0  0  0  0  0  0
    6.8892   10.2146    3.6252 C   0  0  0  0  0  0  0  0  0  0  0  0
    5.8678    9.8460    3.6998 H   0  0  0  0  0  0  0  0  0  0  0  0
    7.5118    9.4213    3.2174 H   0  0  0  0  0  0  0  0  0  0  0  0
    6.9036   11.0509    2.9258 H   0  0  0  0  0  0  0  0  0  0  0  0
    6.7949   12.0399    5.3319 C   0  0  0  0  0  0  0  0  0  0  0  0
    7.1813   12.7965    4.6470 H   0  0  0  0  0  0  0  0  0  0  0  0
    7.0233   12.3382    6.3519 H   0  0  0  0  0  0  0  0  0  0  0  0
    5.7128   12.0080    5.2420 H   0  0  0  0  0  0  0  0  0  0  0  0
    1.2786   10.1517    5.7754 C   0  0  0  0  0  0  0  0  0  0  0  0
    0.2166    9.9370    5.9373 H   0  0  0  0  0  0  0  0  0  0  0  0
    1.6511    9.7359    4.3549 C   0  0  0  0  0  0  0  0  0  0  0  0
    0.9722   10.1936    3.6335 H   0  0  0  0  0  0  0  0  0  0  0  0
    1.6235    8.6564    4.2299 H   0  0  0  0  0  0  0  0  0  0  0  0
    2.6645   10.0582    4.1331 H   0  0  0  0  0  0  0  0  0  0  0  0
    1.5199   11.6481    5.9609 C   0  0  0  0  0  0  0  0  0  0  0  0
    2.5822   11.8375    6.1047 H   0  0  0  0  0  0  0  0  0  0  0  0
    0.9812   12.0402    6.8207 H   0  0  0  0  0  0  0  0  0  0  0  0
    1.1895   12.1929    5.0761 H   0  0  0  0  0  0  0  0  0  0  0  0
    1.5275    7.4394    6.7894 C   0  0  0  0  0  0  0  0  0  0  0  0
    2.1403    7.0344    5.9727 H   0  0  0  0  0  0  0  0  0  0  0  0
    1.7720    6.5631    8.0154 C   0  0  0  0  0  0  0  0  0  0  0  0
    1.0683    6.7963    8.8133 H   0  0  0  0  0  0  0  0  0  0  0  0
    2.7863    6.7002    8.3846 H   0  0  0  0  0  0  0  0  0  0  0  0
    1.6476    5.5122    7.7516 H   0  0  0  0  0  0  0  0  0  0  0  0
    0.0605    7.3484    6.3695 C   0  0  0  0  0  0  0  0  0  0  0  0
   -0.2096    6.2939    6.2947 H   0  0  0  0  0  0  0  0  0  0  0  0
   -0.1182    7.8021    5.3985 H   0  0  0  0  0  0  0  0  0  0  0  0
   -0.6014    7.8094    7.0986 H   0  0  0  0  0  0  0  0  0  0  0  0
    1.6336    9.8936    8.6186 C   0  0  0  0  0  0  0  0  0  0  0  0
    1.9682   10.9344    8.5166 H   0  0  0  0  0  0  0  0  0  0  0  0
    2.3265    9.3401    9.8604 C   0  0  0  0  0  0  0  0  0  0  0  0
    2.1553   10.0107   10.7034 H   0  0  0  0  0  0  0  0  0  0  0  0
    3.3983    9.2711    9.7019 H   0  0  0  0  0  0  0  0  0  0  0  0
    1.9577    8.3532   10.1266 H   0  0  0  0  0  0  0  0  0  0  0  0
    0.1202    9.8754    8.8197 C   0  0  0  0  0  0  0  0  0  0  0  0
   -0.2321    8.8656    9.0195 H   0  0  0  0  0  0  0  0  0  0  0  0
   -0.4186   10.2731    7.9629 H   0  0  0  0  0  0  0  0  0  0  0  0
   -0.1302   10.4889    9.6866 H   0  0  0  0  0  0  0  0  0  0  0  0
  1  7  1  0  0  0  0
  1  5  1  0  0  0  0
  1  3  1  0  0  0  0
  2  1  1  0  0  0  0
  4  1  1  0  0  0  0
  6  1  1  0  0  0  0
  6 18  1  0  0  0  0
  7 58  1  0  0  0  0
  8  6  1  0  0  0  0
  8 14  1  0  0  0  0
  9  8  1  0  0  0  0
 10  8  1  0  0  0  0
 10 11  1  0  0  0  0
 12 10  1  0  0  0  0
 13 10  1  0  0  0  0
 14 16  1  0  0  0  0
 14 17  1  0  0  0  0
 15 14  1  0  0  0  0
 18 19  1  0  0  0  0
 18 24  1  0  0  0  0
 20 18  1  0  0  0  0
 20 21  1  0  0  0  0
 22 20  1  0  0  0  0
 23 20  1  0  0  0  0
 24 26  1  0  0  0  0
 24 27  1  0  0  0  0
 25 24  1  0  0  0  0
 28 34  1  0  0  0  0
 28  6  1  0  0  0  0
 29 28  1  0  0  0  0
 30 31  1  0  0  0  0
 30 28  1  0  0  0  0
 32 30  1  0  0  0  0
 33 30  1  0  0  0  0
 34 36  1  0  0  0  0
 35 34  1  0  0  0  0
 37 34  1  0  0  0  0
 38 39  1  0  0  0  0
 38 44  1  0  0  0  0
 38  7  1  0  0  0  0
 40 38  1  0  0  0  0
 41 40  1  0  0  0  0
 42 40  1  0  0  0  0
 43 40  1  0  0  0  0
 44 45  1  0  0  0  0
 44 46  1  0  0  0  0
 47 44  1  0  0  0  0
 48  7  1  0  0  0  0
 48 50  1  0  0  0  0
 49 48  1  0  0  0  0
 50 52  1  0  0  0  0
 50 51  1  0  0  0  0
 53 50  1  0  0  0  0
 54 48  1  0  0  0  0
 54 57  1  0  0  0  0
 55 54  1  0  0  0  0
 56 54  1  0  0  0  0
 58 64  1  0  0  0  0
 58 60  1  0  0  0  0
 59 58  1  0  0  0  0
 60 63  1  0  0  0  0
 60 61  1  0  0  0  0
 62 60  1  0  0  0  0
 64 65  1  0  0  0  0
 64 67  1  0  0  0  0
 66 64  1  0  0  0  0
M  END
$$$$
