CSD_code = YOZLIJ | q = 0 | S = 0 | Stoichiometry = C22H30ClI2N3O2Pd | MND = 4
 OpenBabel04212202123D

 61 63  0  0  0  0  0  0  0  0999 V2000
    2.8001    7.7031   -2.1652 Pd  0  0  0  0  0  0  0  0  0  0  0  0
    1.4844    5.4613   -2.2544 I   0  0  0  0  0  0  0  0  0  0  0  0
    4.1312    9.9308   -1.9797 I   0  0  0  0  0  0  0  0  0  0  0  0
    4.6721    6.4246    0.2201 C   0  0  0  0  0  0  0  0  0  0  0  0
    4.6179    5.3761    0.5172 H   0  0  0  0  0  0  0  0  0  0  0  0
    5.5548    6.8780    0.6716 H   0  0  0  0  0  0  0  0  0  0  0  0
    4.7442    6.4916   -0.8819 H   0  0  0  0  0  0  0  0  0  0  0  0
    3.4832    7.1242    0.6328 N   0  0  0  0  0  0  0  0  0  0  0  0
    2.6241    7.6872   -0.2267 C   0  0  0  0  0  0  0  0  0  0  0  0
    1.6250    8.2451    0.4693 N   0  0  0  0  0  0  0  0  0  0  0  0
    0.5251    8.9429   -0.1446 C   0  0  0  0  0  0  0  0  0  0  0  0
    0.4969    9.9794    0.1940 H   0  0  0  0  0  0  0  0  0  0  0  0
   -0.4194    8.4596    0.1080 H   0  0  0  0  0  0  0  0  0  0  0  0
    0.6712    8.9167   -1.2412 H   0  0  0  0  0  0  0  0  0  0  0  0
    1.8383    8.0408    1.8167 C   0  0  0  0  0  0  0  0  0  0  0  0
    1.0988    8.4168    2.9461 C   0  0  0  0  0  0  0  0  0  0  0  0
   -0.0537    9.1098    2.7426 O   0  0  0  0  0  0  0  0  0  0  0  0
   -0.8206    9.4903    3.8696 C   0  0  0  0  0  0  0  0  0  0  0  0
   -0.2217   10.1330    4.5266 H   0  0  0  0  0  0  0  0  0  0  0  0
   -1.1315    8.5983    4.4312 H   0  0  0  0  0  0  0  0  0  0  0  0
   -2.0463   10.2362    3.3512 C   0  0  0  0  0  0  0  0  0  0  0  0
   -2.5162    9.6142    2.5869 H   0  0  0  0  0  0  0  0  0  0  0  0
   -1.7198   11.1615    2.8736 H   0  0  0  0  0  0  0  0  0  0  0  0
   -3.0632   10.5467    4.4479 C   0  0  0  0  0  0  0  0  0  0  0  0
   -3.9520   10.9715    3.9773 H   0  0  0  0  0  0  0  0  0  0  0  0
   -3.3615    9.6174    4.9383 H   0  0  0  0  0  0  0  0  0  0  0  0
   -2.5410   11.5278    5.4915 C   0  0  0  0  0  0  0  0  0  0  0  0
   -1.7218   11.0967    6.0612 H   0  0  0  0  0  0  0  0  0  0  0  0
   -3.3336   11.7913    6.1877 H   0  0  0  0  0  0  0  0  0  0  0  0
   -2.1882   12.4392    5.0142 H   0  0  0  0  0  0  0  0  0  0  0  0
    1.6281    8.0346    4.1654 C   0  0  0  0  0  0  0  0  0  0  0  0
    1.1175    8.2876    5.0799 H   0  0  0  0  0  0  0  0  0  0  0  0
    2.8239    7.3182    4.2707 C   0  0  0  0  0  0  0  0  0  0  0  0
    3.1656    7.0636    5.2604 H   0  0  0  0  0  0  0  0  0  0  0  0
    3.5602    6.9390    3.1630 C   0  0  0  0  0  0  0  0  0  0  0  0
    4.7291    6.2433    3.1647 O   0  0  0  0  0  0  0  0  0  0  0  0
    5.2670    5.8310    4.4070 C   0  0  0  0  0  0  0  0  0  0  0  0
    4.5425    5.1969    4.9327 H   0  0  0  0  0  0  0  0  0  0  0  0
    5.4904    6.7081    5.0303 H   0  0  0  0  0  0  0  0  0  0  0  0
    6.5487    5.0587    4.1110 C   0  0  0  0  0  0  0  0  0  0  0  0
    7.1806    5.6886    3.4820 H   0  0  0  0  0  0  0  0  0  0  0  0
    6.2957    4.1642    3.5393 H   0  0  0  0  0  0  0  0  0  0  0  0
    7.3150    4.6696    5.3739 C   0  0  0  0  0  0  0  0  0  0  0  0
    8.2772    4.2508    5.0729 H   0  0  0  0  0  0  0  0  0  0  0  0
    7.5154    5.5654    5.9658 H   0  0  0  0  0  0  0  0  0  0  0  0
    6.5797    3.6462    6.2319 C   0  0  0  0  0  0  0  0  0  0  0  0
    5.6608    4.0607    6.6383 H   0  0  0  0  0  0  0  0  0  0  0  0
    7.2063    3.3356    7.0644 H   0  0  0  0  0  0  0  0  0  0  0  0
    6.3312    2.7656    5.6440 H   0  0  0  0  0  0  0  0  0  0  0  0
    3.0332    7.3206    1.9219 C   0  0  0  0  0  0  0  0  0  0  0  0
    2.9785    7.7219   -4.1602 N   0  0  0  0  0  0  0  0  0  0  0  0
    2.0692    8.3370   -4.9047 C   0  0  0  0  0  3  0  0  0  0  0  0
    1.2395    8.8170   -4.3858 H   0  0  0  0  0  0  0  0  0  0  0  0
    2.1675    8.3714   -6.2889 C   0  0  0  0  0  0  0  0  0  0  0  0
    0.9649    9.1806   -7.2166 Cl  0  0  0  0  0  0  0  0  0  0  0  0
    3.2435    7.7471   -6.9085 C   0  0  0  0  0  0  0  0  0  0  0  0
    3.3391    7.7621   -7.9823 H   0  0  0  0  0  0  0  0  0  0  0  0
    4.1813    7.1106   -6.1117 C   0  0  0  0  0  0  0  0  0  0  0  0
    5.0317    6.6141   -6.5508 H   0  0  0  0  0  0  0  0  0  0  0  0
    4.0131    7.1199   -4.7386 C   0  0  0  0  0  0  0  0  0  0  0  0
    4.7255    6.6310   -4.0732 H   0  0  0  0  0  0  0  0  0  0  0  0
  1  3  1  0  0  0  0
  1  9  2  0  0  0  0
  2  1  1  0  0  0  0
  4  5  1  0  0  0  0
  4  8  1  0  0  0  0
  4  6  1  0  0  0  0
  7  4  1  0  0  0  0
  8 50  1  0  0  0  0
  9 10  1  0  0  0  0
  9  8  1  0  0  0  0
 10 15  1  0  0  0  0
 11 13  1  0  0  0  0
 11 12  1  0  0  0  0
 11 10  1  0  0  0  0
 14 11  1  0  0  0  0
 15 50  2  0  0  0  0
 15 16  1  0  0  0  0
 16 31  2  0  0  0  0
 17 16  1  0  0  0  0
 17 18  1  0  0  0  0
 18 20  1  0  0  0  0
 18 19  1  0  0  0  0
 21 18  1  0  0  0  0
 21 24  1  0  0  0  0
 22 21  1  0  0  0  0
 23 21  1  0  0  0  0
 24 26  1  0  0  0  0
 24 27  1  0  0  0  0
 25 24  1  0  0  0  0
 27 28  1  0  0  0  0
 27 29  1  0  0  0  0
 30 27  1  0  0  0  0
 31 33  1  0  0  0  0
 31 32  1  0  0  0  0
 33 34  1  0  0  0  0
 35 36  1  0  0  0  0
 35 33  2  0  0  0  0
 36 37  1  0  0  0  0
 37 38  1  0  0  0  0
 37 39  1  0  0  0  0
 40 37  1  0  0  0  0
 40 43  1  0  0  0  0
 41 40  1  0  0  0  0
 42 40  1  0  0  0  0
 43 45  1  0  0  0  0
 43 46  1  0  0  0  0
 44 43  1  0  0  0  0
 46 47  1  0  0  0  0
 46 48  1  0  0  0  0
 49 46  1  0  0  0  0
 50 35  1  0  0  0  0
 51  1  1  0  0  0  0
 52 53  1  0  0  0  0
 52 51  1  0  0  0  0
 54 52  1  0  0  0  0
 55 54  1  0  0  0  0
 56 54  2  0  0  0  0
 56 58  1  0  0  0  0
 57 56  1  0  0  0  0
 58 60  2  0  0  0  0
 59 58  1  0  0  0  0
 60 51  1  0  0  0  0
 60 61  1  0  0  0  0
M  END
$$$$
