CSD_code = YOZZIX | q = 0 | S = 0 | Stoichiometry = C17H35FeINP3 | MND = 6
 OpenBabel04212202123D

 58 59  0  0  0  0  0  0  0  0999 V2000
    6.7449    7.6806   12.2592 C   0  0  0  0  0  0  0  0  0  0  0  0
    6.8690    8.6205   13.2778 C   0  0  0  0  0  0  0  0  0  0  0  0
    7.6110    9.3990   13.1962 H   0  0  0  0  0  0  0  0  0  0  0  0
    6.0720    8.6063   14.4060 C   0  0  0  0  0  0  0  0  0  0  0  0
    6.2102    9.3613   15.1694 H   0  0  0  0  0  0  0  0  0  0  0  0
    5.0924    7.6339   14.5736 C   0  0  0  0  0  0  0  0  0  0  0  0
    4.4737    7.6294   15.4594 H   0  0  0  0  0  0  0  0  0  0  0  0
    4.9248    6.6840   13.5933 C   0  0  0  0  0  0  0  0  0  0  0  0
    4.1698    5.9139   13.6887 H   0  0  0  0  0  0  0  0  0  0  0  0
    5.7385    6.7125   12.4582 C   0  0  0  0  0  0  0  0  0  0  0  0
    5.6170    5.7713   11.4009 C   0  0  0  0  0  3  0  0  0  0  0  0
    4.8663    4.9795   11.4441 H   0  0  0  0  0  0  0  0  0  0  0  0
    6.2682    4.9294    9.3332 C   0  0  0  0  0  0  0  0  0  0  0  0
    6.0613    5.4357    8.3924 H   0  0  0  0  0  0  0  0  0  0  0  0
    5.4606    4.2194    9.5403 H   0  0  0  0  0  0  0  0  0  0  0  0
    7.1956    4.3777    9.1908 H   0  0  0  0  0  0  0  0  0  0  0  0
    9.0967    6.1471   13.4823 C   0  0  0  0  0  0  0  0  0  0  0  0
    9.2856    7.1606   13.8213 H   0  0  0  0  0  0  0  0  0  0  0  0
    9.8675    5.4772   13.8648 H   0  0  0  0  0  0  0  0  0  0  0  0
    8.1242    5.8397   13.8665 H   0  0  0  0  0  0  0  0  0  0  0  0
    8.6966    4.2548   11.5324 C   0  0  0  0  0  0  0  0  0  0  0  0
    8.8155    3.9263   10.5008 H   0  0  0  0  0  0  0  0  0  0  0  0
    7.6902    4.0233   11.8774 H   0  0  0  0  0  0  0  0  0  0  0  0
    9.4217    3.7276   12.1543 H   0  0  0  0  0  0  0  0  0  0  0  0
   10.8059    5.9571   11.1907 C   0  0  0  0  0  0  0  0  0  0  0  0
   10.8766    5.4167   10.2463 H   0  0  0  0  0  0  0  0  0  0  0  0
   11.3629    5.4211   11.9601 H   0  0  0  0  0  0  0  0  0  0  0  0
   11.2410    6.9425   11.0422 H   0  0  0  0  0  0  0  0  0  0  0  0
    4.7602    7.8713    8.8102 C   0  0  0  0  0  0  0  0  0  0  0  0
    4.2297    7.2151    9.4984 H   0  0  0  0  0  0  0  0  0  0  0  0
    5.1213    7.2950    7.9596 H   0  0  0  0  0  0  0  0  0  0  0  0
    4.0783    8.6422    8.4478 H   0  0  0  0  0  0  0  0  0  0  0  0
    6.6326    9.7852    8.2462 C   0  0  0  0  0  0  0  0  0  0  0  0
    7.5931   10.2683    8.4110 H   0  0  0  0  0  0  0  0  0  0  0  0
    5.8620   10.5404    8.0864 H   0  0  0  0  0  0  0  0  0  0  0  0
    6.7245    9.1637    7.3551 H   0  0  0  0  0  0  0  0  0  0  0  0
    5.1715    9.8006   10.7162 C   0  0  0  0  0  0  0  0  0  0  0  0
    5.8006   10.4048   11.3618 H   0  0  0  0  0  0  0  0  0  0  0  0
    4.5440    9.1737   11.3497 H   0  0  0  0  0  0  0  0  0  0  0  0
    4.5403   10.4448   10.1030 H   0  0  0  0  0  0  0  0  0  0  0  0
   10.2039    9.2791   12.4242 C   0  0  0  0  0  0  0  0  0  0  0  0
   10.8396    8.3983   12.4682 H   0  0  0  0  0  0  0  0  0  0  0  0
    9.6433    9.3463   13.3533 H   0  0  0  0  0  0  0  0  0  0  0  0
   10.8330   10.1657   12.3317 H   0  0  0  0  0  0  0  0  0  0  0  0
    8.4355   10.9310   11.1177 C   0  0  0  0  0  0  0  0  0  0  0  0
    7.7831   11.1793   10.2847 H   0  0  0  0  0  0  0  0  0  0  0  0
    9.2837   11.6169   11.1203 H   0  0  0  0  0  0  0  0  0  0  0  0
    7.8797   11.0632   12.0429 H   0  0  0  0  0  0  0  0  0  0  0  0
   10.3522    9.5694    9.6940 C   0  0  0  0  0  0  0  0  0  0  0  0
    9.8781    9.7944    8.7403 H   0  0  0  0  0  0  0  0  0  0  0  0
   10.9961    8.7049    9.5447 H   0  0  0  0  0  0  0  0  0  0  0  0
   10.9541   10.4217   10.0115 H   0  0  0  0  0  0  0  0  0  0  0  0
    7.7123    7.4598   10.6032 Fe  0  0  0  0  0  0  0  0  0  0  0  0
    8.7739    6.9025    8.3547 I   0  0  0  0  0  0  0  0  0  0  0  0
    6.4092    5.8850   10.3979 N   0  0  0  0  0  0  0  0  0  0  0  0
    9.0720    9.2015   10.9642 P   0  0  0  0  0  4  0  0  0  0  0  0
    6.1752    8.6877    9.6522 P   0  0  0  0  0  4  0  0  0  0  0  0
    9.0260    6.0590   11.6484 P   0  0  0  0  0  4  0  0  0  0  0  0
  1 10  2  0  0  0  0
  1  2  1  0  0  0  0
  2  4  2  0  0  0  0
  3  2  1  0  0  0  0
  4  6  1  0  0  0  0
  4  5  1  0  0  0  0
  6  7  1  0  0  0  0
  8  9  1  0  0  0  0
  8  6  2  0  0  0  0
 10  8  1  0  0  0  0
 11 12  1  0  0  0  0
 11 10  1  0  0  0  0
 13 15  1  0  0  0  0
 13 55  1  0  0  0  0
 14 13  1  0  0  0  0
 16 13  1  0  0  0  0
 17 18  1  0  0  0  0
 17 19  1  0  0  0  0
 17 20  1  0  0  0  0
 21 58  1  0  0  0  0
 21 23  1  0  0  0  0
 21 24  1  0  0  0  0
 22 21  1  0  0  0  0
 25 58  1  0  0  0  0
 25 27  1  0  0  0  0
 26 25  1  0  0  0  0
 28 25  1  0  0  0  0
 29 30  1  0  0  0  0
 29 57  1  0  0  0  0
 31 29  1  0  0  0  0
 32 29  1  0  0  0  0
 33 34  1  0  0  0  0
 33 57  1  0  0  0  0
 35 33  1  0  0  0  0
 36 33  1  0  0  0  0
 37 39  1  0  0  0  0
 37 38  1  0  0  0  0
 40 37  1  0  0  0  0
 41 42  1  0  0  0  0
 41 43  1  0  0  0  0
 44 41  1  0  0  0  0
 45 47  1  0  0  0  0
 45 48  1  0  0  0  0
 46 45  1  0  0  0  0
 49 52  1  0  0  0  0
 49 56  1  0  0  0  0
 50 49  1  0  0  0  0
 51 49  1  0  0  0  0
 53 56  1  0  0  0  0
 53 58  1  0  0  0  0
 53  1  1  0  0  0  0
 54 53  1  0  0  0  0
 55 53  1  0  0  0  0
 55 11  1  0  0  0  0
 56 45  1  0  0  0  0
 56 41  1  0  0  0  0
 57 53  1  0  0  0  0
 57 37  1  0  0  0  0
 58 17  1  0  0  0  0
M  END
$$$$
