CSD_code = YUBFEI | q = 0 | S = 0 | Stoichiometry = C22H18Cl2N6Ni | MND = 6
 OpenBabel04212202123D

 49 54  0  0  1  0  0  0  0  0999 V2000
    7.9045    2.9070   11.9650 Ni  0  0  0  0  0  0  0  0  0  0  0  0
    6.2222    3.9896   11.2271 Cl  0  0  0  0  0  0  0  0  0  0  0  0
    9.0106    4.6763   12.4158 Cl  0  0  0  0  0  0  0  0  0  0  0  0
    7.1950    2.8563   14.0266 N   0  0  0  0  0  0  0  0  0  0  0  0
    8.6445    2.7401    9.9195 N   0  0  0  0  0  0  0  0  0  0  0  0
    9.2572    1.7940   12.8386 N   0  0  0  0  0  0  0  0  0  0  0  0
    8.9961    1.3975   14.0274 N   0  0  0  0  0  2  0  0  0  0  0  0
    7.1126    1.2037   11.3684 N   0  0  0  0  0  0  0  0  0  0  0  0
    7.5467    0.7282   10.2621 N   0  0  0  0  0  2  0  0  0  0  0  0
    6.3497    3.6366   14.6808 C   0  0  0  0  0  3  0  0  0  0  0  0
    5.6663    4.2104   14.0679 H   0  0  0  0  0  0  0  0  0  0  0  0
    8.0997    2.1393   14.7230 C   0  0  0  0  0  0  0  0  0  0  0  0
   12.0539   -0.4073   10.6828 C   0  0  0  0  0  0  0  0  0  0  0  0
   12.7685   -0.9737   10.1046 H   0  0  0  0  0  0  0  0  0  0  0  0
    6.3141    3.6986   16.0619 C   0  0  0  0  0  0  0  0  0  0  0  0
    5.5822    4.3159   16.5568 H   0  0  0  0  0  0  0  0  0  0  0  0
    5.4849    0.7107   13.0543 C   0  0  0  0  0  0  0  0  0  0  0  0
    5.1220    1.7220   12.9485 H   0  0  0  0  0  0  0  0  0  0  0  0
    6.9680   -1.0426   12.2942 C   0  0  0  0  0  0  0  0  0  0  0  0
    7.7586   -1.3612   11.6313 H   0  0  0  0  0  0  0  0  0  0  0  0
   10.1932    1.0400   12.1400 C   0  0  0  0  0  0  0  0  0  0  0  0
    6.5363    0.2854   12.2387 C   0  0  0  0  0  0  0  0  0  0  0  0
    8.1011    1.6191    9.4039 C   0  0  1  0  0  3  0  0  0  0  0  0
    9.1412    3.6514    9.0980 C   0  0  0  0  0  0  0  0  0  0  0  0
    9.5383    4.5429    9.5665 H   0  0  0  0  0  0  0  0  0  0  0  0
    5.3706   -1.4776   14.0312 C   0  0  0  0  0  0  0  0  0  0  0  0
    4.9268   -2.1606   14.7400 H   0  0  0  0  0  0  0  0  0  0  0  0
   11.0266    1.6914   11.2274 C   0  0  0  0  0  0  0  0  0  0  0  0
   10.9503    2.7638   11.1282 H   0  0  0  0  0  0  0  0  0  0  0  0
    8.1327    2.1506   16.1240 C   0  0  0  0  0  0  0  0  0  0  0  0
    8.8901    1.5775   16.6325 H   0  0  0  0  0  0  0  0  0  0  0  0
   11.9504    0.9649   10.5051 C   0  0  0  0  0  0  0  0  0  0  0  0
   12.5971    1.4688    9.8025 H   0  0  0  0  0  0  0  0  0  0  0  0
   11.2518   -1.0504   11.6135 C   0  0  0  0  0  0  0  0  0  0  0  0
   11.3477   -2.1157   11.7641 H   0  0  0  0  0  0  0  0  0  0  0  0
    6.3906   -1.9116   13.1977 C   0  0  0  0  0  0  0  0  0  0  0  0
    6.7348   -2.9338   13.2533 H   0  0  0  0  0  0  0  0  0  0  0  0
    7.2205    2.9339   16.7931 C   0  0  0  0  0  0  0  0  0  0  0  0
    7.2143    2.9637   17.8725 H   0  0  0  0  0  0  0  0  0  0  0  0
    8.0972    1.3646    8.0258 C   0  0  0  0  0  0  0  0  0  0  0  0
    7.6285    0.4650    7.6630 H   0  0  0  0  0  0  0  0  0  0  0  0
    9.1807    3.4726    7.7273 C   0  0  0  0  0  0  0  0  0  0  0  0
    9.6306    4.2222    7.0969 H   0  0  0  0  0  0  0  0  0  0  0  0
    4.9093   -0.1719   13.9445 C   0  0  0  0  0  0  0  0  0  0  0  0
    4.0944    0.1558   14.5726 H   0  0  0  0  0  0  0  0  0  0  0  0
   10.3311   -0.3346   12.3515 C   0  0  0  0  0  0  0  0  0  0  0  0
    9.7018   -0.8140   13.0864 H   0  0  0  0  0  0  0  0  0  0  0  0
    8.6525    2.3024    7.1861 C   0  0  0  0  0  0  0  0  0  0  0  0
    8.6691    2.1382    6.1191 H   0  0  0  0  0  0  0  0  0  0  0  0
  1  3  1  0  0  0  0
  1  6  1  0  0  0  0
  1  4  1  0  0  0  0
  2  1  1  0  0  0  0
  4 10  1  0  0  0  0
  4 12  1  0  0  0  0
  5  1  1  0  0  0  0
  6  7  1  0  0  0  0
  7 12  1  0  0  0  0
  8  1  1  0  0  0  0
  8 22  1  0  0  0  0
  9  8  1  0  0  0  0
 10 15  1  0  0  0  0
 11 10  1  0  0  0  0
 12 30  2  0  0  0  0
 13 34  1  0  0  0  0
 14 13  1  0  0  0  0
 15 16  1  0  0  0  0
 15 38  2  0  0  0  0
 17 44  1  0  0  0  0
 18 17  1  0  0  0  0
 19 36  2  0  0  0  0
 20 19  1  0  0  0  0
 21 46  1  0  0  0  0
 21  6  1  0  0  0  0
 22 19  1  0  0  0  0
 22 17  2  0  0  0  0
 23 40  1  6  0  0  0
 23  5  1  0  0  0  0
 23  9  1  0  0  0  0
 24 25  1  0  0  0  0
 24  5  1  0  0  0  0
 26 27  1  0  0  0  0
 28 21  2  0  0  0  0
 29 28  1  0  0  0  0
 30 31  1  0  0  0  0
 30 38  1  0  0  0  0
 32 13  2  0  0  0  0
 32 28  1  0  0  0  0
 33 32  1  0  0  0  0
 34 35  1  0  0  0  0
 34 46  2  0  0  0  0
 36 37  1  0  0  0  0
 36 26  1  0  0  0  0
 38 39  1  0  0  0  0
 41 40  1  0  0  0  0
 42 24  2  0  0  0  0
 43 42  1  0  0  0  0
 44 26  2  0  0  0  0
 44 45  1  0  0  0  0
 46 47  1  0  0  0  0
 48 42  1  0  0  0  0
 48 40  2  0  0  0  0
 49 48  1  0  0  0  0
M  END
$$$$
