CSD_code = YUBJAG | q = 0 | S = 0 | Stoichiometry = C13H10ClNOPt | MND = 4
 OpenBabel04212202123D

 27 29  0  0  0  0  0  0  0  0999 V2000
    3.5055   13.9889    4.3921 Pt  0  0  2  0  0  0  0  0  0  0  0  0
    3.9798   12.3923    6.0418 Cl  0  0  0  0  0  0  0  0  0  0  0  0
    4.1322   15.9190    6.5879 O   0  0  0  0  0  1  0  0  0  0  0  0
    3.0974   12.6290    2.9729 N   0  0  0  0  0  0  0  0  0  0  0  0
    3.1410   11.3103    3.1538 C   0  0  0  0  0  0  0  0  0  0  0  0
    2.8514   10.4070    2.1479 C   0  0  0  0  0  0  0  0  0  0  0  0
    2.5013   10.8941    0.8968 C   0  0  0  0  0  0  0  0  0  0  0  0
    2.4551   12.2607    0.7040 C   0  0  0  0  0  0  0  0  0  0  0  0
    2.7570   13.1228    1.7582 C   0  0  0  0  0  0  0  0  0  0  0  0
    2.7395   14.5762    1.6807 C   0  0  0  0  0  0  0  0  0  0  0  0
    2.4187   15.2969    0.5306 C   0  0  0  0  0  0  0  0  0  0  0  0
    2.4254   16.6749    0.5555 C   0  0  0  0  0  0  0  0  0  0  0  0
    2.7500   17.3623    1.7218 C   0  0  0  0  0  0  0  0  0  0  0  0
    3.0707   16.6365    2.8650 C   0  0  0  0  0  0  0  0  0  0  0  0
    3.0744   15.2470    2.8751 C   0  0  0  0  0  0  0  0  0  0  0  0
    2.7478   18.8588    1.7322 C   0  0  0  0  0  0  0  0  0  0  0  0
    3.8833   15.2354    5.7120 C   0  0  0  0  0  2  0  0  0  0  0  0
    3.4193   10.9702    4.1441 H   0  0  0  0  0  0  0  0  0  0  0  0
    2.9002    9.3485    2.3444 H   0  0  0  0  0  0  0  0  0  0  0  0
    2.2687   10.2189    0.0871 H   0  0  0  0  0  0  0  0  0  0  0  0
    2.1860   12.6650   -0.2579 H   0  0  0  0  0  0  0  0  0  0  0  0
    2.1635   14.7866   -0.3862 H   0  0  0  0  0  0  0  0  0  0  0  0
    2.1765   17.2301   -0.3373 H   0  0  0  0  0  0  0  0  0  0  0  0
    3.3220   17.1819    3.7648 H   0  0  0  0  0  0  0  0  0  0  0  0
    3.0489   19.2434    2.7028 H   0  0  0  0  0  0  0  0  0  0  0  0
    3.4304   19.2436    0.9757 H   0  0  0  0  0  0  0  0  0  0  0  0
    1.7519   19.2354    1.5014 H   0  0  0  0  0  0  0  0  0  0  0  0
  1 17  1  0  0  0  0
  1  2  1  6  0  0  0
  4  5  1  0  0  0  0
  4  1  1  0  0  0  0
  5 18  1  0  0  0  0
  6 19  1  0  0  0  0
  6  5  2  0  0  0  0
  7  6  1  0  0  0  0
  8  7  2  0  0  0  0
  8  9  1  0  0  0  0
  9  4  1  0  0  0  0
 10  9  2  0  0  0  0
 10 15  1  0  0  0  0
 11 12  2  0  0  0  0
 11 10  1  0  0  0  0
 12 13  1  0  0  0  0
 13 16  1  0  0  0  0
 13 14  2  0  0  0  0
 14 15  1  0  0  0  0
 14 24  1  0  0  0  0
 15  1  2  0  0  0  0
 16 25  1  0  0  0  0
 17  3  1  0  0  0  0
 20  7  1  0  0  0  0
 21  8  1  0  0  0  0
 22 11  1  0  0  0  0
 23 12  1  0  0  0  0
 26 16  1  0  0  0  0
 27 16  1  0  0  0  0
M  END
$$$$
