CSD_code = YUCGAE | q = 0 | S = 0 | Stoichiometry = C12H10ClN2O3Rh | MND = 4
 OpenBabel04212202123D

 29 30  0  0  1  0  0  0  0  0999 V2000
    2.1975    3.4143    6.2037 Rh  0  0  0  0  0  0  0  0  0  0  0  0
    1.3369    1.3723    6.3643 Cl  0  0  0  0  0  0  0  0  0  0  0  0
    0.2940    4.1526    6.1859 N   0  0  0  0  0  0  0  0  0  0  0  0
   -0.7558    3.3356    6.3113 N   0  0  0  0  0  0  0  0  0  0  0  0
    2.9463    5.0972    6.0800 C   0  0  0  0  0  2  0  0  0  0  0  0
    3.8530    2.6071    6.2287 C   0  0  0  0  0  2  0  0  0  0  0  0
   -1.9246    3.9965    6.2766 C   0  0  2  0  0  3  0  0  0  0  0  0
   -1.5936    5.3422    6.1181 C   0  0  0  0  0  0  0  0  0  0  0  0
   -0.2072    5.3832    6.0664 C   0  0  0  0  0  0  0  0  0  0  0  0
   -3.2145    3.3451    6.3912 C   0  0  0  0  0  0  0  0  0  0  0  0
   -4.3806    4.1035    6.5359 C   0  0  0  0  0  0  0  0  0  0  0  0
   -5.6076    3.4948    6.6494 C   0  0  0  0  0  0  0  0  0  0  0  0
   -5.7170    2.1011    6.6217 C   0  0  0  0  0  0  0  0  0  0  0  0
   -4.5612    1.3383    6.4745 C   0  0  0  0  0  0  0  0  0  0  0  0
   -3.3306    1.9558    6.3616 C   0  0  0  0  0  0  0  0  0  0  0  0
   -7.1510    0.2057    6.7316 C   0  0  0  0  0  0  0  0  0  0  0  0
    3.4594    6.1183    6.0073 O   0  0  0  0  0  1  0  0  0  0  0  0
    4.8436    2.0426    6.2494 O   0  0  0  0  0  1  0  0  0  0  0  0
   -6.9709    1.6026    6.7432 O   0  0  0  0  0  0  0  0  0  0  0  0
   -0.5427    2.3365    6.4079 H   0  0  0  0  0  0  0  0  0  0  0  0
   -2.2596    6.1755    6.0404 H   0  0  0  0  0  0  0  0  0  0  0  0
    0.4261    6.2422    5.9490 H   0  0  0  0  0  0  0  0  0  0  0  0
   -4.3186    5.1795    6.5672 H   0  0  0  0  0  0  0  0  0  0  0  0
   -6.5093    4.0750    6.7637 H   0  0  0  0  0  0  0  0  0  0  0  0
   -4.6073    0.2613    6.4453 H   0  0  0  0  0  0  0  0  0  0  0  0
   -2.4546    1.3370    6.2404 H   0  0  0  0  0  0  0  0  0  0  0  0
   -6.6230   -0.2736    7.5618 H   0  0  0  0  0  0  0  0  0  0  0  0
   -6.8200   -0.2338    5.7856 H   0  0  0  0  0  0  0  0  0  0  0  0
   -8.2218    0.0467    6.8468 H   0  0  0  0  0  0  0  0  0  0  0  0
  1  6  1  0  0  0  0
  1  2  1  0  0  0  0
  3  1  1  0  0  0  0
  3  4  1  0  0  0  0
  4 20  1  0  0  0  0
  5  1  1  0  0  0  0
  6 18  1  0  0  0  0
  7  4  1  0  0  0  0
  7 10  1  1  0  0  0
  8  7  1  0  0  0  0
  9  8  2  0  0  0  0
  9  3  1  0  0  0  0
 10 11  1  0  0  0  0
 11 23  1  0  0  0  0
 11 12  2  0  0  0  0
 12 24  1  0  0  0  0
 13 12  1  0  0  0  0
 13 19  1  0  0  0  0
 14 13  2  0  0  0  0
 15 10  2  0  0  0  0
 15 14  1  0  0  0  0
 16 19  1  0  0  0  0
 16 29  1  0  0  0  0
 16 27  1  0  0  0  0
 17  5  1  0  0  0  0
 21  8  1  0  0  0  0
 22  9  1  0  0  0  0
 25 14  1  0  0  0  0
 26 15  1  0  0  0  0
 28 16  1  0  0  0  0
M  END
$$$$
