CSD_code = YUDWOK | q = 0 | S = 0 | Stoichiometry = C28H28Cl2O2P2Pt | MND = 4
 OpenBabel04212202123D

 63 69  0  0  1  0  0  0  0  0999 V2000
    0.7010   12.3989    1.0026 Pt  0  0  0  0  0  0  0  0  0  0  0  0
    0.6137   14.6712    1.1491 Cl  0  0  0  0  0  0  0  0  0  0  0  0
   -0.7645   12.3779   -0.7368 Cl  0  0  0  0  0  0  0  0  0  0  0  0
   -0.2142    7.5811    3.7091 O   0  0  0  0  0  0  0  0  0  0  0  0
   -0.8900    7.6265    4.3953 H   0  0  0  0  0  0  0  0  0  0  0  0
    0.7831    9.3726    4.7878 O   0  0  0  0  0  0  0  0  0  0  0  0
    2.1947   12.3152    2.6909 P   0  0  1  0  0  4  0  0  0  0  0  0
    0.8687   10.1287    1.0297 P   0  0  0  0  0  4  0  0  0  0  0  0
    3.3941   13.5803    3.1410 C   0  0  0  0  0  0  0  0  0  0  0  0
    4.7450   13.4654    2.8346 C   0  0  0  0  0  0  0  0  0  0  0  0
    5.1108   12.5826    2.3304 H   0  0  0  0  0  0  0  0  0  0  0  0
    5.6107   14.4887    3.1760 C   0  0  0  0  0  0  0  0  0  0  0  0
    6.6622   14.4035    2.9439 H   0  0  0  0  0  0  0  0  0  0  0  0
    5.1301   15.6255    3.8059 C   0  0  0  0  0  0  0  0  0  0  0  0
    5.8099   16.4236    4.0649 H   0  0  0  0  0  0  0  0  0  0  0  0
    3.7792   15.7484    4.0919 C   0  0  0  0  0  0  0  0  0  0  0  0
    3.4067   16.6428    4.5683 H   0  0  0  0  0  0  0  0  0  0  0  0
    2.9072   14.7301    3.7568 C   0  0  0  0  0  0  0  0  0  0  0  0
    1.8466   14.8189    3.9468 H   0  0  0  0  0  0  0  0  0  0  0  0
    1.6072   11.6186    4.3132 C   0  0  2  0  0  0  0  0  0  0  0  0
    0.9861   12.2414    4.9537 H   0  0  0  0  0  0  0  0  0  0  0  0
    3.0392   10.6578    2.6495 C   0  0  1  0  0  0  0  0  0  0  0  0
    3.6957   10.4542    1.8022 H   0  0  0  0  0  0  0  0  0  0  0  0
    3.6893   10.5907    4.0065 C   0  0  0  0  0  0  0  0  0  0  0  0
    2.8983   11.1435    4.9318 C   0  0  0  0  0  0  0  0  0  0  0  0
    3.1081   11.2383    6.4001 C   0  0  0  0  0  0  0  0  0  0  0  0
    4.0962   10.8840    6.6790 H   0  0  0  0  0  0  0  0  0  0  0  0
    2.3577   10.6373    6.9132 H   0  0  0  0  0  0  0  0  0  0  0  0
    2.9940   12.2712    6.7280 H   0  0  0  0  0  0  0  0  0  0  0  0
    5.0202    9.9421    4.2135 C   0  0  0  0  0  0  0  0  0  0  0  0
    5.6647   10.5818    4.8146 H   0  0  0  0  0  0  0  0  0  0  0  0
    5.5108    9.7583    3.2601 H   0  0  0  0  0  0  0  0  0  0  0  0
    4.9153    8.9901    4.7361 H   0  0  0  0  0  0  0  0  0  0  0  0
    0.8793   10.3686    3.7864 C   0  0  1  0  0  0  0  0  0  0  0  0
   -0.1304   10.6312    3.4303 H   0  0  0  0  0  0  0  0  0  0  0  0
    1.7542    9.7855    2.6418 C   0  0  1  0  0  0  0  0  0  0  0  0
    1.9340    8.3134    3.0188 C   0  0  0  0  0  0  0  0  0  0  0  0
    2.9582    8.1004    3.3207 H   0  0  0  0  0  0  0  0  0  0  0  0
    1.6324    7.6342    2.2230 H   0  0  0  0  0  0  0  0  0  0  0  0
    0.9773    8.1183    4.2030 C   0  0  2  0  0  0  0  0  0  0  0  0
    1.3916    7.4682    4.9907 H   0  0  0  0  0  0  0  0  0  0  0  0
    1.7970    9.3175   -0.2997 C   0  0  0  0  0  0  0  0  0  0  0  0
    2.9626    8.5715   -0.1638 C   0  0  0  0  0  0  0  0  0  0  0  0
    3.4046    8.4063    0.8073 H   0  0  0  0  0  0  0  0  0  0  0  0
    3.5616    8.0247   -1.2866 C   0  0  0  0  0  0  0  0  0  0  0  0
    4.4647    7.4417   -1.1781 H   0  0  0  0  0  0  0  0  0  0  0  0
    3.0110    8.2215   -2.5416 C   0  0  0  0  0  0  0  0  0  0  0  0
    3.4863    7.7919   -3.4108 H   0  0  0  0  0  0  0  0  0  0  0  0
    1.8553    8.9752   -2.6819 C   0  0  0  0  0  0  0  0  0  0  0  0
    1.4300    9.1384   -3.6605 H   0  0  0  0  0  0  0  0  0  0  0  0
    1.2510    9.5238   -1.5680 C   0  0  0  0  0  0  0  0  0  0  0  0
    0.3592   10.1315   -1.6597 H   0  0  0  0  0  0  0  0  0  0  0  0
   -0.6791    9.1968    1.0804 C   0  0  0  0  0  0  0  0  0  0  0  0
   -0.7581    7.8597    0.7052 C   0  0  0  0  0  0  0  0  0  0  0  0
    0.1222    7.3404    0.3527 H   0  0  0  0  0  0  0  0  0  0  0  0
   -1.9724    7.2030    0.7691 C   0  0  0  0  0  0  0  0  0  0  0  0
   -2.0358    6.1645    0.4800 H   0  0  0  0  0  0  0  0  0  0  0  0
   -3.1068    7.8740    1.1965 C   0  0  0  0  0  0  0  0  0  0  0  0
   -4.0533    7.3555    1.2409 H   0  0  0  0  0  0  0  0  0  0  0  0
   -3.0349    9.2122    1.5485 C   0  0  0  0  0  0  0  0  0  0  0  0
   -3.9241    9.7399    1.8598 H   0  0  0  0  0  0  0  0  0  0  0  0
   -1.8243    9.8755    1.4870 C   0  0  0  0  0  0  0  0  0  0  0  0
   -1.7602   10.9344    1.7184 H   0  0  0  0  0  0  0  0  0  0  0  0
  1  8  1  0  0  0  0
  1  2  1  0  0  0  0
  1  7  1  0  0  0  0
  3  1  1  0  0  0  0
  4 40  1  0  0  0  0
  4  5  1  0  0  0  0
  7  9  1  1  0  0  0
  7 20  1  0  0  0  0
  8 53  1  0  0  0  0
  8 36  1  0  0  0  0
  9 18  1  0  0  0  0
 10  9  2  0  0  0  0
 10 12  1  0  0  0  0
 11 10  1  0  0  0  0
 12 14  2  0  0  0  0
 13 12  1  0  0  0  0
 14 15  1  0  0  0  0
 14 16  1  0  0  0  0
 16 17  1  0  0  0  0
 18 19  1  0  0  0  0
 18 16  2  0  0  0  0
 20 25  1  0  0  0  0
 20 21  1  1  0  0  0
 22 23  1  6  0  0  0
 22  7  1  0  0  0  0
 22 24  1  0  0  0  0
 24 30  1  0  0  0  0
 24 25  2  0  0  0  0
 25 26  1  0  0  0  0
 26 27  1  0  0  0  0
 26 29  1  0  0  0  0
 26 28  1  0  0  0  0
 30 33  1  0  0  0  0
 30 31  1  0  0  0  0
 32 30  1  0  0  0  0
 34 35  1  6  0  0  0
 34 20  1  0  0  0  0
 34  6  1  0  0  0  0
 36 22  1  0  0  0  0
 36 37  1  1  0  0  0
 36 34  1  0  0  0  0
 37 38  1  0  0  0  0
 37 40  1  0  0  0  0
 39 37  1  0  0  0  0
 40  6  1  0  0  0  0
 40 41  1  1  0  0  0
 42 43  1  0  0  0  0
 42  8  1  0  0  0  0
 43 44  1  0  0  0  0
 45 46  1  0  0  0  0
 45 43  2  0  0  0  0
 47 45  1  0  0  0  0
 48 47  1  0  0  0  0
 49 47  2  0  0  0  0
 49 51  1  0  0  0  0
 50 49  1  0  0  0  0
 51 42  2  0  0  0  0
 52 51  1  0  0  0  0
 53 62  1  0  0  0  0
 54 56  1  0  0  0  0
 54 53  2  0  0  0  0
 55 54  1  0  0  0  0
 56 58  2  0  0  0  0
 57 56  1  0  0  0  0
 58 59  1  0  0  0  0
 58 60  1  0  0  0  0
 60 61  1  0  0  0  0
 62 60  2  0  0  0  0
 62 63  1  0  0  0  0
M  END
$$$$
