CSD_code = YUFSUP | q = 1 | S = 0 | Stoichiometry = C12H24ClCoN5O3(1+) | MND = 6
 OpenBabel04212202123D

 46 49  0  0  1  0  0  0  0  0999 V2000
   13.8624    2.0217    1.3007 C   0  0  0  0  0  0  0  0  0  0  0  0
   13.2946    1.1161    1.1022 H   0  0  0  0  0  0  0  0  0  0  0  0
   14.4774    1.8582    2.1846 H   0  0  0  0  0  0  0  0  0  0  0  0
   14.5219    2.2364    0.4625 H   0  0  0  0  0  0  0  0  0  0  0  0
   12.9328    3.1587    1.5083 C   0  0  1  0  0  3  0  0  0  0  0  0
   13.4347    4.5861    1.3683 C   0  0  2  0  0  0  0  0  0  0  0  0
   14.8187    4.7725    1.9913 C   0  0  0  0  0  0  0  0  0  0  0  0
   15.5313    4.2071    1.3988 H   0  0  0  0  0  0  0  0  0  0  0  0
   14.8595    4.4249    3.0185 H   0  0  0  0  0  0  0  0  0  0  0  0
   15.1115    5.8171    1.9297 H   0  0  0  0  0  0  0  0  0  0  0  0
   12.5628    5.9999    3.3372 C   0  0  0  0  0  0  0  0  0  0  0  0
   13.6069    6.2265    3.5637 H   0  0  0  0  0  0  0  0  0  0  0  0
   11.9976    6.9280    3.4334 H   0  0  0  0  0  0  0  0  0  0  0  0
   12.0290    4.9722    4.3346 C   0  0  0  0  0  0  0  0  0  0  0  0
   12.6884    4.1011    4.3440 H   0  0  0  0  0  0  0  0  0  0  0  0
   12.0224    5.4081    5.3403 H   0  0  0  0  0  0  0  0  0  0  0  0
    9.5642    5.3549    4.4054 C   0  0  0  0  0  0  0  0  0  0  0  0
    9.7542    5.7438    5.4112 H   0  0  0  0  0  0  0  0  0  0  0  0
    8.6870    4.7068    4.4426 H   0  0  0  0  0  0  0  0  0  0  0  0
    9.2563    6.5104    3.4390 C   0  0  0  0  0  0  0  0  0  0  0  0
    8.2055    6.7950    3.5517 H   0  0  0  0  0  0  0  0  0  0  0  0
    9.8665    7.3920    3.6690 H   0  0  0  0  0  0  0  0  0  0  0  0
    8.0841    7.6758    0.8936 C   0  0  0  0  0  0  0  0  0  0  0  0
    7.3117    7.4349    0.1667 H   0  0  0  0  0  0  0  0  0  0  0  0
    8.6073    8.5614    0.5328 H   0  0  0  0  0  0  0  0  0  0  0  0
    7.6189    7.9164    1.8446 H   0  0  0  0  0  0  0  0  0  0  0  0
    9.0396    6.5430    1.0038 C   0  0  0  0  0  0  0  0  0  0  0  0
    9.5431    5.8882   -0.1728 C   0  0  0  0  0  0  0  0  0  0  0  0
    9.2079    6.2737   -1.5744 C   0  0  0  0  0  0  0  0  0  0  0  0
    9.8189    5.6896   -2.2586 H   0  0  0  0  0  0  0  0  0  0  0  0
    9.3904    7.3330   -1.7424 H   0  0  0  0  0  0  0  0  0  0  0  0
    8.1595    6.0675   -1.7854 H   0  0  0  0  0  0  0  0  0  0  0  0
   11.6764    3.0248    1.7004 N   0  0  0  0  0  0  0  0  0  0  0  0
   12.3887    5.5194    1.9546 N   0  0  2  0  0  4  0  0  0  0  0  0
   12.4482    6.3356    1.3414 H   0  0  0  0  0  0  0  0  0  0  0  0
   10.6896    4.5249    3.9333 N   0  0  1  0  0  4  0  0  0  0  0  0
   10.5387    3.5948    4.3195 H   0  0  0  0  0  0  0  0  0  0  0  0
    9.5463    6.0682    2.0984 N   0  0  0  0  0  0  0  0  0  0  0  0
   10.3732    4.9128    0.1009 N   0  0  0  0  0  0  0  0  0  0  0  0
   11.1877    1.7569    1.8084 O   0  0  0  0  0  0  0  0  0  0  0  0
   10.2024    1.8475    1.7729 H   0  0  0  0  0  0  0  0  0  0  0  0
   13.5498    4.9125    0.0248 O   0  0  0  0  0  0  0  0  0  0  0  0
   12.7826    4.5747   -0.4873 H   0  0  0  0  0  0  0  0  0  0  0  0
   11.0291    4.2565   -0.7340 O   0  0  0  0  0  1  0  0  0  0  0  0
    8.7754    3.3701    1.8637 Cl  0  0  0  0  0  0  0  0  0  0  0  0
   10.5926    4.5708    1.8713 Co  0  0  0  0  0  0  0  0  0  0  0  0
  1  3  1  0  0  0  0
  2  1  1  0  0  0  0
  4  1  1  0  0  0  0
  5  1  1  6  0  0  0
  5 33  1  0  0  0  0
  6 42  1  6  0  0  0
  6  5  1  0  0  0  0
  6 34  1  0  0  0  0
  6  7  1  0  0  0  0
  7  9  1  0  0  0  0
  8  7  1  0  0  0  0
 10  7  1  0  0  0  0
 11 13  1  0  0  0  0
 11 12  1  0  0  0  0
 11 14  1  0  0  0  0
 14 15  1  0  0  0  0
 14 16  1  0  0  0  0
 17 19  1  0  0  0  0
 17 18  1  0  0  0  0
 20 21  1  0  0  0  0
 20 22  1  0  0  0  0
 20 17  1  0  0  0  0
 23 27  1  0  0  0  0
 23 26  1  0  0  0  0
 24 23  1  0  0  0  0
 25 23  1  0  0  0  0
 27 38  1  0  0  0  0
 28 39  1  0  0  0  0
 28 27  2  0  0  0  0
 29 28  1  0  0  0  0
 30 29  1  0  0  0  0
 31 29  1  0  0  0  0
 32 29  1  0  0  0  0
 33 40  1  0  0  0  0
 33 46  1  0  0  0  0
 34 35  1  6  0  0  0
 34 11  1  0  0  0  0
 36 37  1  1  0  0  0
 36 14  1  0  0  0  0
 36 17  1  0  0  0  0
 38 20  1  0  0  0  0
 39 46  1  0  0  0  0
 41 40  1  0  0  0  0
 43 42  1  0  0  0  0
 44 39  1  0  0  0  0
 45 46  1  0  0  0  0
 46 34  1  0  0  0  0
 46 38  1  0  0  0  0
 46 36  1  0  0  0  0
M  END
$$$$
