CSD_code = YUGRUN | q = -1 | S = 0 | Stoichiometry = C6H15Cl4NbOP(1-) | MND = 6
 OpenBabel04212202123D

 28 27  0  0  0  0  0  0  0  0999 V2000
    0.0896   13.7767    7.8850 Nb  0  0  0  0  0  0  0  0  0  0  0  0
    0.9712   13.8393   10.0835 Cl  0  0  0  0  0  0  0  0  0  0  0  0
   -2.0117   14.4078    8.9433 Cl  0  0  0  0  0  0  0  0  0  0  0  0
   -0.0405   11.4493    8.0754 Cl  0  0  0  0  0  0  0  0  0  0  0  0
    2.4172   13.9349    7.1445 Cl  0  0  0  0  0  0  0  0  0  0  0  0
    0.4764   16.4006    7.9723 P   0  0  0  0  0  4  0  0  0  0  0  0
    1.3682   17.0422    6.4950 C   0  0  0  0  0  0  0  0  0  0  0  0
    1.4096   17.1188    9.3880 C   0  0  0  0  0  0  0  0  0  0  0  0
   -1.1119   17.3406    7.9942 C   0  0  0  0  0  0  0  0  0  0  0  0
    0.5979   16.7070    5.2236 C   0  0  0  0  0  0  0  0  0  0  0  0
    2.8679   16.6782    9.3946 C   0  0  0  0  0  0  0  0  0  0  0  0
   -1.0330   18.8460    7.7707 C   0  0  0  0  0  0  0  0  0  0  0  0
   -0.5119   13.9983    6.3289 O   0  0  0  0  0  1  0  0  0  0  0  0
    1.5425   18.1178    6.6045 H   0  0  0  0  0  0  0  0  0  0  0  0
    2.3272   16.5172    6.4811 H   0  0  0  0  0  0  0  0  0  0  0  0
    1.3295   18.2101    9.3595 H   0  0  0  0  0  0  0  0  0  0  0  0
    0.9084   16.7476   10.2877 H   0  0  0  0  0  0  0  0  0  0  0  0
   -1.7348   16.8633    7.2303 H   0  0  0  0  0  0  0  0  0  0  0  0
   -1.5742   17.1146    8.9603 H   0  0  0  0  0  0  0  0  0  0  0  0
    1.2198   16.8638    4.3443 H   0  0  0  0  0  0  0  0  0  0  0  0
   -0.2991   17.3157    5.1289 H   0  0  0  0  0  0  0  0  0  0  0  0
    0.2981   15.6556    5.2602 H   0  0  0  0  0  0  0  0  0  0  0  0
    3.3512   16.9836   10.3214 H   0  0  0  0  0  0  0  0  0  0  0  0
    3.4129   17.1108    8.5588 H   0  0  0  0  0  0  0  0  0  0  0  0
    2.9241   15.5938    9.3160 H   0  0  0  0  0  0  0  0  0  0  0  0
   -2.0320   19.2753    7.8285 H   0  0  0  0  0  0  0  0  0  0  0  0
   -0.6226   19.0790    6.7915 H   0  0  0  0  0  0  0  0  0  0  0  0
   -0.4179   19.3285    8.5268 H   0  0  0  0  0  0  0  0  0  0  0  0
  1  6  1  0  0  0  0
  1  4  1  0  0  0  0
  1  3  1  0  0  0  0
  1  2  1  0  0  0  0
  5  1  1  0  0  0  0
  6  9  1  0  0  0  0
  6  8  1  0  0  0  0
  7 14  1  0  0  0  0
  7  6  1  0  0  0  0
  8 11  1  0  0  0  0
  8 17  1  0  0  0  0
  9 19  1  0  0  0  0
 10 22  1  0  0  0  0
 10  7  1  0  0  0  0
 11 23  1  0  0  0  0
 12 26  1  0  0  0  0
 12  9  1  0  0  0  0
 12 28  1  0  0  0  0
 13  1  1  0  0  0  0
 15  7  1  0  0  0  0
 16  8  1  0  0  0  0
 18  9  1  0  0  0  0
 20 10  1  0  0  0  0
 21 10  1  0  0  0  0
 24 11  1  0  0  0  0
 25 11  1  0  0  0  0
 27 12  1  0  0  0  0
M  END
$$$$
