CSD_code = YUHPAS | q = 0 | S = 0 | Stoichiometry = C12H20Cl2PtS2 | MND = 4
 OpenBabel04212202123D

 37 40  0  0  1  0  0  0  0  0999 V2000
    0.0000    0.0004   -0.0007 Pt  0  0  0  0  0  0  0  0  0  0  0  0
    1.9145    0.1386    1.2968 Cl  0  0  0  0  0  0  0  0  0  0  0  0
    1.3197   -0.1870   -1.9212 S   0  0  1  0  0  3  0  0  0  0  0  0
    2.5689   -1.4699   -1.5386 C   0  0  1  0  0  0  0  0  0  0  0  0
    1.7424   -2.6102   -0.9571 C   0  0  0  0  0  0  0  0  0  0  0  0
    0.4778   -2.6931   -1.8356 C   0  0  0  0  0  0  0  0  0  0  0  0
    0.6293   -1.5893   -2.8751 C   0  0  2  0  0  0  0  0  0  0  0  0
    1.7895   -1.9121   -3.8117 C   0  0  0  0  0  0  0  0  0  0  0  0
    3.0582   -1.8404   -2.9354 C   0  0  0  0  0  0  0  0  0  0  0  0
    3.3380   -1.0911   -0.8712 H   0  0  0  0  0  0  0  0  0  0  0  0
    2.3160   -3.5378   -0.9736 H   0  0  0  0  0  0  0  0  0  0  0  0
    1.4838   -2.3894    0.0815 H   0  0  0  0  0  0  0  0  0  0  0  0
    0.3831   -3.6617   -2.3282 H   0  0  0  0  0  0  0  0  0  0  0  0
   -0.4237   -2.5244   -1.2423 H   0  0  0  0  0  0  0  0  0  0  0  0
   -0.2967   -1.3157   -3.3733 H   0  0  0  0  0  0  0  0  0  0  0  0
    1.6545   -2.8989   -4.2548 H   0  0  0  0  0  0  0  0  0  0  0  0
    1.8368   -1.1837   -4.6215 H   0  0  0  0  0  0  0  0  0  0  0  0
    3.7457   -1.0820   -3.3105 H   0  0  0  0  0  0  0  0  0  0  0  0
    3.5895   -2.7920   -2.9085 H   0  0  0  0  0  0  0  0  0  0  0  0
   -1.9147   -0.1381   -1.2970 Cl  0  0  0  0  0  0  0  0  0  0  0  0
   -1.3191    0.1872    1.9205 S   0  0  2  0  0  3  0  0  0  0  0  0
   -2.5686    1.4699    1.5384 C   0  0  2  0  0  0  0  0  0  0  0  0
   -0.6291    1.5894    2.8750 C   0  0  1  0  0  0  0  0  0  0  0  0
   -1.7426    2.6108    0.9574 C   0  0  0  0  0  0  0  0  0  0  0  0
   -3.0581    1.8397    2.9354 C   0  0  0  0  0  0  0  0  0  0  0  0
   -3.3377    1.0912    0.8709 H   0  0  0  0  0  0  0  0  0  0  0  0
   -0.4780    2.6937    1.8359 C   0  0  0  0  0  0  0  0  0  0  0  0
   -1.7894    1.9114    3.8117 C   0  0  0  0  0  0  0  0  0  0  0  0
    0.2970    1.3159    3.3730 H   0  0  0  0  0  0  0  0  0  0  0  0
   -2.3165    3.5381    0.9744 H   0  0  0  0  0  0  0  0  0  0  0  0
   -1.4840    2.3905   -0.0813 H   0  0  0  0  0  0  0  0  0  0  0  0
   -3.7453    1.0808    3.3101 H   0  0  0  0  0  0  0  0  0  0  0  0
   -3.5898    2.7910    2.9089 H   0  0  0  0  0  0  0  0  0  0  0  0
   -0.3836    3.6621    2.3289 H   0  0  0  0  0  0  0  0  0  0  0  0
    0.4235    2.5255    1.2425 H   0  0  0  0  0  0  0  0  0  0  0  0
   -1.6547    2.8982    4.2552 H   0  0  0  0  0  0  0  0  0  0  0  0
   -1.8364    1.1826    4.6212 H   0  0  0  0  0  0  0  0  0  0  0  0
  1  2  1  0  0  0  0
  3  4  1  0  0  0  0
  3  1  1  1  0  0  0
  4  5  1  0  0  0  0
  4 10  1  1  0  0  0
  5 12  1  0  0  0  0
  6 14  1  0  0  0  0
  6  5  1  0  0  0  0
  7 15  1  6  0  0  0
  7  3  1  0  0  0  0
  7  6  1  0  0  0  0
  8  9  1  0  0  0  0
  8  7  1  0  0  0  0
  9 19  1  0  0  0  0
  9  4  1  0  0  0  0
 11  5  1  0  0  0  0
 13  6  1  0  0  0  0
 16  8  1  0  0  0  0
 17  8  1  0  0  0  0
 18  9  1  0  0  0  0
 20  1  1  0  0  0  0
 21  1  1  6  0  0  0
 21 23  1  0  0  0  0
 22 26  1  6  0  0  0
 22 21  1  0  0  0  0
 22 25  1  0  0  0  0
 23 29  1  1  0  0  0
 23 28  1  0  0  0  0
 24 30  1  0  0  0  0
 24 22  1  0  0  0  0
 24 27  1  0  0  0  0
 25 32  1  0  0  0  0
 25 28  1  0  0  0  0
 27 34  1  0  0  0  0
 27 23  1  0  0  0  0
 28 36  1  0  0  0  0
 28 37  1  0  0  0  0
 31 24  1  0  0  0  0
 33 25  1  0  0  0  0
 35 27  1  0  0  0  0
M  END
$$$$
