CSD_code = YUHROJ | q = 0 | S = 0 | Stoichiometry = C17H23ClN5OReS2 | MND = 5
 OpenBabel04212202123D

 50 53  0  0  1  0  0  0  0  0999 V2000
   -4.8179   -2.0240   -6.2479 Re  0  0  0  0  0  0  0  0  0  0  0  0
   -5.7103   -1.5030   -8.2313 Cl  0  0  0  0  0  0  0  0  0  0  0  0
   -6.1269   -3.9910   -6.5235 S   0  0  0  0  0  0  0  0  0  0  0  0
   -2.9182   -0.8952   -7.0449 S   0  0  0  0  0  0  0  0  0  0  0  0
   -5.5102   -1.1740   -4.9867 O   0  0  0  0  0  1  0  0  0  0  0  0
   -4.5878   -4.9632   -4.5093 N   0  0  0  0  0  0  0  0  0  0  0  0
   -3.3685   -3.1008   -5.3038 N   0  0  0  0  0  0  0  0  0  0  0  0
   -5.9341   -6.4424   -5.5610 N   0  0  0  0  0  0  0  0  0  0  0  0
   -2.1024   -2.6308   -5.1820 N   0  0  0  0  0  0  0  0  0  0  0  0
   -0.5219   -1.1445   -5.8901 N   0  0  0  0  0  0  0  0  0  0  0  0
   -5.4618   -5.1953   -5.4566 C   0  0  1  0  0  3  0  0  0  0  0  0
   -3.7197   -3.9895   -4.3600 C   0  0  0  0  0  0  0  0  0  0  0  0
   -1.7621   -1.6333   -5.9254 C   0  0  0  0  0  0  0  0  0  0  0  0
   -3.0212   -3.9701   -3.0621 C   0  0  0  0  0  0  0  0  0  0  0  0
   -2.7639   -2.7526   -2.4369 C   0  0  0  0  0  0  0  0  0  0  0  0
   -3.0729   -1.8343   -2.9141 H   0  0  0  0  0  0  0  0  0  0  0  0
   -2.1486   -2.7292   -1.2003 C   0  0  0  0  0  0  0  0  0  0  0  0
   -1.9580   -1.7841   -0.7138 H   0  0  0  0  0  0  0  0  0  0  0  0
   -1.7822   -3.9137   -0.5807 C   0  0  0  0  0  0  0  0  0  0  0  0
   -1.2969   -3.8912    0.3840 H   0  0  0  0  0  0  0  0  0  0  0  0
   -2.0463   -5.1264   -1.1956 C   0  0  0  0  0  0  0  0  0  0  0  0
   -1.7668   -6.0503   -0.7107 H   0  0  0  0  0  0  0  0  0  0  0  0
   -2.6699   -5.1578   -2.4292 C   0  0  0  0  0  0  0  0  0  0  0  0
   -2.8780   -6.0965   -2.9184 H   0  0  0  0  0  0  0  0  0  0  0  0
   -5.4199   -7.4726   -4.6797 C   0  0  0  0  0  0  0  0  0  0  0  0
   -6.1916   -8.2359   -4.5654 H   0  0  0  0  0  0  0  0  0  0  0  0
   -5.2196   -7.0148   -3.7086 H   0  0  0  0  0  0  0  0  0  0  0  0
   -4.1387   -8.0917   -5.2318 C   0  0  0  0  0  0  0  0  0  0  0  0
   -3.7773   -8.8635   -4.5579 H   0  0  0  0  0  0  0  0  0  0  0  0
   -3.3726   -7.3276   -5.3333 H   0  0  0  0  0  0  0  0  0  0  0  0
   -4.3158   -8.5373   -6.2080 H   0  0  0  0  0  0  0  0  0  0  0  0
   -6.9598   -6.8086   -6.5122 C   0  0  0  0  0  0  0  0  0  0  0  0
   -6.8287   -6.2158   -7.4207 H   0  0  0  0  0  0  0  0  0  0  0  0
   -6.8233   -7.8632   -6.7624 H   0  0  0  0  0  0  0  0  0  0  0  0
   -8.3593   -6.5741   -5.9499 C   0  0  0  0  0  0  0  0  0  0  0  0
   -9.1052   -6.8769   -6.6789 H   0  0  0  0  0  0  0  0  0  0  0  0
   -8.4979   -5.5199   -5.7280 H   0  0  0  0  0  0  0  0  0  0  0  0
   -8.5081   -7.1459   -5.0369 H   0  0  0  0  0  0  0  0  0  0  0  0
    0.5059   -1.6964   -5.0313 C   0  0  0  0  0  0  0  0  0  0  0  0
    0.4804   -2.7868   -5.0718 H   0  0  0  0  0  0  0  0  0  0  0  0
    0.3267   -1.3926   -3.9935 H   0  0  0  0  0  0  0  0  0  0  0  0
    1.7911   -1.0864   -5.5833 C   0  0  0  0  0  0  0  0  0  0  0  0
    2.1671   -1.6898   -6.4098 H   0  0  0  0  0  0  0  0  0  0  0  0
    2.5686   -1.0050   -4.8274 H   0  0  0  0  0  0  0  0  0  0  0  0
    1.3225    0.2740   -6.0995 C   0  0  0  0  0  0  0  0  0  0  0  0
    1.2190    0.9715   -5.2682 H   0  0  0  0  0  0  0  0  0  0  0  0
    2.0004    0.7031   -6.8335 H   0  0  0  0  0  0  0  0  0  0  0  0
   -0.0490   -0.0388   -6.6941 C   0  0  0  0  0  0  0  0  0  0  0  0
   -0.7417    0.8043   -6.6372 H   0  0  0  0  0  0  0  0  0  0  0  0
    0.0291   -0.3441   -7.7448 H   0  0  0  0  0  0  0  0  0  0  0  0
  1  7  1  0  0  0  0
  1  5  1  0  0  0  0
  2  1  1  0  0  0  0
  3  1  1  0  0  0  0
  3 11  1  0  0  0  0
  4  1  1  0  0  0  0
  4 13  1  0  0  0  0
  6 12  2  0  0  0  0
  7  9  1  0  0  0  0
  7 12  1  0  0  0  0
  8 25  1  0  0  0  0
 10 39  1  0  0  0  0
 11  8  1  1  0  0  0
 11  6  1  0  0  0  0
 12 14  1  0  0  0  0
 13 10  1  0  0  0  0
 13  9  2  0  0  0  0
 14 15  2  0  0  0  0
 14 23  1  0  0  0  0
 15 17  1  0  0  0  0
 16 15  1  0  0  0  0
 17 18  1  0  0  0  0
 17 19  2  0  0  0  0
 19 20  1  0  0  0  0
 21 22  1  0  0  0  0
 21 19  1  0  0  0  0
 23 21  2  0  0  0  0
 24 23  1  0  0  0  0
 25 26  1  0  0  0  0
 25 27  1  0  0  0  0
 28 25  1  0  0  0  0
 28 29  1  0  0  0  0
 30 28  1  0  0  0  0
 31 28  1  0  0  0  0
 32 35  1  0  0  0  0
 32  8  1  0  0  0  0
 33 32  1  0  0  0  0
 34 32  1  0  0  0  0
 35 37  1  0  0  0  0
 35 38  1  0  0  0  0
 36 35  1  0  0  0  0
 39 41  1  0  0  0  0
 40 39  1  0  0  0  0
 42 39  1  0  0  0  0
 42 44  1  0  0  0  0
 43 42  1  0  0  0  0
 45 42  1  0  0  0  0
 45 46  1  0  0  0  0
 47 45  1  0  0  0  0
 48 49  1  0  0  0  0
 48 45  1  0  0  0  0
 48 10  1  0  0  0  0
 50 48  1  0  0  0  0
M  END
$$$$
