CSD_code = YUHRUP | q = 0 | S = 0 | Stoichiometry = C19H27ClN5OReS2 | MND = 5
 OpenBabel04212202123D

 56 59  0  0  1  0  0  0  0  0999 V2000
    2.5804    2.7523    3.3332 Re  0  0  0  0  0  0  0  0  0  0  0  0
    2.1261    2.0132    1.9267 O   0  0  0  0  0  1  0  0  0  0  0  0
    3.0288    2.7849    5.4152 Cl  0  0  0  0  0  0  0  0  0  0  0  0
    4.9250    1.9569    2.9397 S   0  0  0  0  0  0  0  0  0  0  0  0
    5.3240    3.1401    1.7410 C   0  0  1  0  0  3  0  0  0  0  0  0
    5.1041    4.4266    1.9002 N   0  0  0  0  0  2  0  0  0  0  0  0
    4.1732    5.1280    2.4841 C   0  0  2  0  0  3  0  0  0  0  0  0
    2.9418    4.6917    2.8104 N   0  0  0  0  0  0  0  0  0  0  0  0
    1.9636    5.6104    2.7728 N   0  0  0  0  0  0  0  0  0  0  0  0
    0.7660    5.2885    3.1535 C   0  0  0  0  0  0  0  0  0  0  0  0
    0.3692    3.6964    3.7940 S   0  0  0  0  0  0  0  0  0  0  0  0
    4.4980    6.5501    2.7108 C   0  0  0  0  0  0  0  0  0  0  0  0
    4.1031    7.1752    3.8900 C   0  0  0  0  0  0  0  0  0  0  0  0
    3.5423    6.6225    4.6287 H   0  0  0  0  0  0  0  0  0  0  0  0
    4.4502    8.4928    4.1252 C   0  0  0  0  0  0  0  0  0  0  0  0
    4.1483    8.9707    5.0455 H   0  0  0  0  0  0  0  0  0  0  0  0
    5.1833    9.1984    3.1849 C   0  0  0  0  0  0  0  0  0  0  0  0
    5.4462   10.2296    3.3681 H   0  0  0  0  0  0  0  0  0  0  0  0
    5.5822    8.5776    2.0124 C   0  0  0  0  0  0  0  0  0  0  0  0
    6.1567    9.1251    1.2800 H   0  0  0  0  0  0  0  0  0  0  0  0
    5.2491    7.2568    1.7770 C   0  0  0  0  0  0  0  0  0  0  0  0
    5.5537    6.7640    0.8677 H   0  0  0  0  0  0  0  0  0  0  0  0
    6.0338    2.7620    0.6740 N   0  0  0  0  0  0  0  0  0  0  0  0
    6.4409    1.3868    0.4890 C   0  0  0  0  0  0  0  0  0  0  0  0
    6.5689    1.2130   -0.5816 H   0  0  0  0  0  0  0  0  0  0  0  0
    5.6354    0.7432    0.8543 H   0  0  0  0  0  0  0  0  0  0  0  0
    7.7279    1.0450    1.2351 C   0  0  0  0  0  0  0  0  0  0  0  0
    7.9556   -0.0088    1.1020 H   0  0  0  0  0  0  0  0  0  0  0  0
    7.6023    1.2418    2.2959 H   0  0  0  0  0  0  0  0  0  0  0  0
    8.5638    1.6312    0.8632 H   0  0  0  0  0  0  0  0  0  0  0  0
    6.4283    3.7600   -0.3026 C   0  0  0  0  0  0  0  0  0  0  0  0
    6.6219    3.2500   -1.2482 H   0  0  0  0  0  0  0  0  0  0  0  0
    5.5904    4.4479   -0.4430 H   0  0  0  0  0  0  0  0  0  0  0  0
    7.6631    4.5442    0.1347 C   0  0  0  0  0  0  0  0  0  0  0  0
    7.8806    5.3222   -0.5921 H   0  0  0  0  0  0  0  0  0  0  0  0
    8.5287    3.8927    0.2126 H   0  0  0  0  0  0  0  0  0  0  0  0
    7.4820    5.0044    1.1016 H   0  0  0  0  0  0  0  0  0  0  0  0
   -0.2235    6.1885    3.0249 N   0  0  0  0  0  0  0  0  0  0  0  0
   -1.5432    5.9568    3.5564 C   0  0  0  0  0  0  0  0  0  0  0  0
   -1.7824    4.8968    3.4432 H   0  0  0  0  0  0  0  0  0  0  0  0
   -2.2489    6.5396    2.9581 H   0  0  0  0  0  0  0  0  0  0  0  0
   -1.6623    6.3499    5.0304 C   0  0  0  0  0  0  0  0  0  0  0  0
   -1.0533    5.6670    5.6247 H   0  0  0  0  0  0  0  0  0  0  0  0
   -2.7025    6.2210    5.3343 H   0  0  0  0  0  0  0  0  0  0  0  0
   -1.2214    7.7877    5.3043 C   0  0  0  0  0  0  0  0  0  0  0  0
   -1.7805    8.4775    4.6689 H   0  0  0  0  0  0  0  0  0  0  0  0
   -1.4734    8.0220    6.3408 H   0  0  0  0  0  0  0  0  0  0  0  0
    0.2833    7.9968    5.1022 C   0  0  0  0  0  0  0  0  0  0  0  0
    0.6361    8.7713    5.7869 H   0  0  0  0  0  0  0  0  0  0  0  0
    0.8053    7.0744    5.3628 H   0  0  0  0  0  0  0  0  0  0  0  0
    0.6818    8.4194    3.6871 C   0  0  0  0  0  0  0  0  0  0  0  0
    0.3567    9.4462    3.5096 H   0  0  0  0  0  0  0  0  0  0  0  0
    1.7695    8.3968    3.6194 H   0  0  0  0  0  0  0  0  0  0  0  0
    0.0913    7.5254    2.5814 C   0  0  0  0  0  0  0  0  0  0  0  0
   -0.8343    7.9615    2.2005 H   0  0  0  0  0  0  0  0  0  0  0  0
    0.8072    7.4482    1.7604 H   0  0  0  0  0  0  0  0  0  0  0  0
  1 11  1  0  0  0  0
  1  3  1  0  0  0  0
  2  1  1  0  0  0  0
  4  1  1  0  0  0  0
  5 23  1  1  0  0  0
  5  6  1  0  0  0  0
  5  4  1  0  0  0  0
  6  7  1  0  0  0  0
  7 12  1  6  0  0  0
  7  8  1  0  0  0  0
  8  1  1  0  0  0  0
  9  8  1  0  0  0  0
  9 10  2  0  0  0  0
 10 11  1  0  0  0  0
 12 13  1  0  0  0  0
 13 15  2  0  0  0  0
 13 14  1  0  0  0  0
 15 16  1  0  0  0  0
 17 18  1  0  0  0  0
 17 15  1  0  0  0  0
 19 17  2  0  0  0  0
 20 19  1  0  0  0  0
 21 19  1  0  0  0  0
 21 12  2  0  0  0  0
 22 21  1  0  0  0  0
 24 23  1  0  0  0  0
 24 26  1  0  0  0  0
 24 27  1  0  0  0  0
 25 24  1  0  0  0  0
 27 29  1  0  0  0  0
 28 27  1  0  0  0  0
 30 27  1  0  0  0  0
 31 34  1  0  0  0  0
 31 23  1  0  0  0  0
 32 31  1  0  0  0  0
 33 31  1  0  0  0  0
 34 36  1  0  0  0  0
 34 37  1  0  0  0  0
 35 34  1  0  0  0  0
 38 10  1  0  0  0  0
 38 39  1  0  0  0  0
 39 42  1  0  0  0  0
 40 39  1  0  0  0  0
 41 39  1  0  0  0  0
 42 45  1  0  0  0  0
 42 44  1  0  0  0  0
 42 43  1  0  0  0  0
 45 47  1  0  0  0  0
 46 45  1  0  0  0  0
 48 45  1  0  0  0  0
 48 50  1  0  0  0  0
 48 49  1  0  0  0  0
 51 48  1  0  0  0  0
 52 51  1  0  0  0  0
 53 51  1  0  0  0  0
 54 38  1  0  0  0  0
 54 51  1  0  0  0  0
 55 54  1  0  0  0  0
 56 54  1  0  0  0  0
M  END
$$$$
