CSD_code = YUHSAW | q = 0 | S = 0 | Stoichiometry = C20H23ClN5OReS2 | MND = 5
 OpenBabel04212202123D

 53 56  0  0  1  0  0  0  0  0999 V2000
    0.5790    6.8990    7.6394 Re  0  0  0  0  0  0  0  0  0  0  0  0
   -1.1885    6.9121    6.2655 Cl  0  0  0  0  0  0  0  0  0  0  0  0
    0.2719    5.9636    8.9889 O   0  0  0  0  0  1  0  0  0  0  0  0
    1.4934    5.4915    5.9602 S   0  0  0  0  0  0  0  0  0  0  0  0
    3.2117    5.4208    6.2420 C   0  0  1  0  0  3  0  0  0  0  0  0
    3.8204    5.8726    7.3112 N   0  0  0  0  0  0  0  0  0  0  0  0
    3.4528    6.7823    8.1845 C   0  0  0  0  0  0  0  0  0  0  0  0
    2.4309    7.6415    8.0298 N   0  0  0  0  0  0  0  0  0  0  0  0
    2.5956    8.8293    8.6582 N   0  0  0  0  0  0  0  0  0  0  0  0
    1.5898    9.6325    8.6991 C   0  0  0  0  0  0  0  0  0  0  0  0
    0.0367    9.1505    7.9985 S   0  0  0  0  0  0  0  0  0  0  0  0
    4.3117    6.8891    9.3757 C   0  0  0  0  0  0  0  0  0  0  0  0
    3.7390    7.1583   10.6169 C   0  0  0  0  0  0  0  0  0  0  0  0
    2.6696    7.2892   10.6921 H   0  0  0  0  0  0  0  0  0  0  0  0
    4.5339    7.2170   11.7452 C   0  0  0  0  0  0  0  0  0  0  0  0
    4.0860    7.4182   12.7069 H   0  0  0  0  0  0  0  0  0  0  0  0
    5.9009    7.0099   11.6472 C   0  0  0  0  0  0  0  0  0  0  0  0
    6.5199    7.0616   12.5307 H   0  0  0  0  0  0  0  0  0  0  0  0
    6.4712    6.7265   10.4169 C   0  0  0  0  0  0  0  0  0  0  0  0
    7.5350    6.5554   10.3411 H   0  0  0  0  0  0  0  0  0  0  0  0
    5.6811    6.6594    9.2847 C   0  0  0  0  0  0  0  0  0  0  0  0
    6.1146    6.4399    8.3218 H   0  0  0  0  0  0  0  0  0  0  0  0
    3.9592    4.7984    5.3264 N   0  0  0  0  0  0  0  0  0  0  0  0
    3.3859    4.1105    4.1897 C   0  0  0  0  0  0  0  0  0  0  0  0
    2.4203    3.6912    4.4796 H   0  0  0  0  0  0  0  0  0  0  0  0
    4.0558    3.2889    3.9261 H   0  0  0  0  0  0  0  0  0  0  0  0
    3.2013    5.0433    2.9953 C   0  0  0  0  0  0  0  0  0  0  0  0
    2.8058    4.4866    2.1510 H   0  0  0  0  0  0  0  0  0  0  0  0
    4.1488    5.4920    2.7061 H   0  0  0  0  0  0  0  0  0  0  0  0
    2.5009    5.8349    3.2457 H   0  0  0  0  0  0  0  0  0  0  0  0
    5.4032    4.7798    5.4718 C   0  0  0  0  0  0  0  0  0  0  0  0
    5.7207    5.7389    5.8854 H   0  0  0  0  0  0  0  0  0  0  0  0
    5.8384    4.6647    4.4770 H   0  0  0  0  0  0  0  0  0  0  0  0
    5.8583    3.6492    6.3891 C   0  0  0  0  0  0  0  0  0  0  0  0
    6.9418    3.6480    6.4680 H   0  0  0  0  0  0  0  0  0  0  0  0
    5.5359    2.6865    6.0002 H   0  0  0  0  0  0  0  0  0  0  0  0
    5.4313    3.7891    7.3779 H   0  0  0  0  0  0  0  0  0  0  0  0
    1.7086   10.8295    9.3135 N   0  0  0  0  0  0  0  0  0  0  0  0
    2.9003   11.0660   10.1032 C   0  0  0  0  0  0  0  0  0  0  0  0
    3.0158   12.1364   10.2583 H   0  0  0  0  0  0  0  0  0  0  0  0
    3.7612   10.6746    9.5631 H   0  0  0  0  0  0  0  0  0  0  0  0
    2.8450   10.5570   11.0683 H   0  0  0  0  0  0  0  0  0  0  0  0
    0.6873   11.7977    9.3124 C   0  0  0  0  0  0  0  0  0  0  0  0
    0.0647   12.1700    8.1245 C   0  0  0  0  0  0  0  0  0  0  0  0
    0.3649   11.7105    7.1959 H   0  0  0  0  0  0  0  0  0  0  0  0
   -0.9281   13.1314    8.1341 C   0  0  0  0  0  0  0  0  0  0  0  0
   -1.4086   13.4084    7.2080 H   0  0  0  0  0  0  0  0  0  0  0  0
   -1.2972   13.7445    9.3194 C   0  0  0  0  0  0  0  0  0  0  0  0
   -2.0722   14.4958    9.3235 H   0  0  0  0  0  0  0  0  0  0  0  0
   -0.6647   13.3918   10.4993 C   0  0  0  0  0  0  0  0  0  0  0  0
   -0.9462   13.8666   11.4275 H   0  0  0  0  0  0  0  0  0  0  0  0
    0.3228   12.4240   10.5009 C   0  0  0  0  0  0  0  0  0  0  0  0
    0.7997   12.1410   11.4266 H   0  0  0  0  0  0  0  0  0  0  0  0
  1 11  1  0  0  0  0
  1  8  1  0  0  0  0
  1  3  1  0  0  0  0
  2  1  1  0  0  0  0
  4  5  1  0  0  0  0
  4  1  1  0  0  0  0
  5 23  1  1  0  0  0
  5  6  1  0  0  0  0
  6  7  2  0  0  0  0
  7 12  1  0  0  0  0
  8  7  1  0  0  0  0
  8  9  1  0  0  0  0
  9 10  2  0  0  0  0
 10 38  1  0  0  0  0
 11 10  1  0  0  0  0
 12 13  1  0  0  0  0
 13 14  1  0  0  0  0
 13 15  2  0  0  0  0
 15 16  1  0  0  0  0
 17 15  1  0  0  0  0
 17 18  1  0  0  0  0
 19 17  2  0  0  0  0
 20 19  1  0  0  0  0
 21 12  2  0  0  0  0
 21 19  1  0  0  0  0
 22 21  1  0  0  0  0
 23 31  1  0  0  0  0
 24 25  1  0  0  0  0
 24 23  1  0  0  0  0
 26 24  1  0  0  0  0
 27 30  1  0  0  0  0
 27 24  1  0  0  0  0
 28 27  1  0  0  0  0
 29 27  1  0  0  0  0
 31 32  1  0  0  0  0
 31 34  1  0  0  0  0
 33 31  1  0  0  0  0
 34 35  1  0  0  0  0
 34 37  1  0  0  0  0
 36 34  1  0  0  0  0
 38 39  1  0  0  0  0
 39 40  1  0  0  0  0
 39 42  1  0  0  0  0
 41 39  1  0  0  0  0
 43 38  1  0  0  0  0
 43 52  1  0  0  0  0
 44 46  1  0  0  0  0
 44 43  2  0  0  0  0
 45 44  1  0  0  0  0
 46 48  2  0  0  0  0
 47 46  1  0  0  0  0
 48 49  1  0  0  0  0
 48 50  1  0  0  0  0
 50 52  2  0  0  0  0
 50 51  1  0  0  0  0
 52 53  1  0  0  0  0
M  END
$$$$
