CSD_code = YUJBOV | q = 0 | S = 0 | Stoichiometry = C18H14Cl2N4O2Pd | MND = 4
 OpenBabel04212202123D

 41 46  0  0  1  0  0  0  0  0999 V2000
   -1.8540    5.1622   17.9792 Pd  0  0  0  0  0  0  0  0  0  0  0  0
   -0.7218    3.9319   19.4433 Cl  0  0  0  0  0  0  0  0  0  0  0  0
   -3.0017    6.1149   19.6244 Cl  0  0  0  0  0  0  0  0  0  0  0  0
   -2.5406    6.5809   16.5466 N   0  0  0  0  0  0  0  0  0  0  0  0
   -1.5595    4.1199   15.3246 N   0  0  2  0  0  0  0  0  0  0  0  0
   -3.6834    4.1556   16.5773 C   0  0  1  0  0  0  0  0  0  0  0  0
    0.4068    3.2329   14.9415 C   0  0  0  0  0  0  0  0  0  0  0  0
    1.2279    2.7180   14.4888 H   0  0  0  0  0  0  0  0  0  0  0  0
   -2.8821    6.0452   15.3701 N   0  0  1  0  0  0  0  0  0  0  0  0
   -3.6629    4.0971   14.0571 C   0  0  0  0  0  0  0  0  0  0  0  0
   -3.1636    4.4274   13.1490 H   0  0  0  0  0  0  0  0  0  0  0  0
   -4.6839    4.4699   14.0603 H   0  0  0  0  0  0  0  0  0  0  0  0
   -3.6955    3.0102   14.0758 H   0  0  0  0  0  0  0  0  0  0  0  0
   -3.8016    2.8107   18.6853 C   0  0  0  0  0  0  0  0  0  0  0  0
   -2.4138    2.1646   16.8586 O   0  0  0  0  0  0  0  0  0  0  0  0
   -6.8209    4.7450   18.1824 O   0  0  0  0  0  0  0  0  0  0  0  0
   -5.0029    3.4610   19.0089 C   0  0  0  0  0  0  0  0  0  0  0  0
   -3.1735    2.9831   17.3572 C   0  0  0  0  0  0  0  0  0  0  0  0
   -0.8147    4.3639   16.4077 N   0  0  0  0  0  0  0  0  0  0  0  0
   -4.8910    4.6974   16.8548 C   0  0  0  0  0  3  0  0  0  0  0  0
   -5.3187    5.4792   16.2383 H   0  0  0  0  0  0  0  0  0  0  0  0
   -5.5707    3.2606   20.2633 C   0  0  0  0  0  0  0  0  0  0  0  0
   -6.4910    3.7752   20.4949 H   0  0  0  0  0  0  0  0  0  0  0  0
   -2.9375    4.5878   15.3019 C   0  0  1  0  0  0  0  0  0  0  0  0
   -3.1354    7.0108   14.4644 C   0  0  0  0  0  3  0  0  0  0  0  0
   -3.4317    6.7952   13.4589 H   0  0  0  0  0  0  0  0  0  0  0  0
   -2.9449    8.2163   15.0983 C   0  0  0  0  0  0  0  0  0  0  0  0
   -3.0626    9.1940   14.6804 H   0  0  0  0  0  0  0  0  0  0  0  0
   -4.9558    2.4344   21.1865 C   0  0  0  0  0  0  0  0  0  0  0  0
   -5.3902    2.3067   22.1666 H   0  0  0  0  0  0  0  0  0  0  0  0
   -5.6840    4.3344   18.0350 C   0  0  0  0  0  0  0  0  0  0  0  0
   -0.8443    3.4338   14.4104 C   0  0  0  0  0  3  0  0  0  0  0  0
   -1.2489    3.1221   13.4708 H   0  0  0  0  0  0  0  0  0  0  0  0
   -3.7860    1.7673   20.8535 C   0  0  0  0  0  0  0  0  0  0  0  0
   -3.3102    1.1171   21.5717 H   0  0  0  0  0  0  0  0  0  0  0  0
   -3.2182    1.9403   19.6043 C   0  0  0  0  0  0  0  0  0  0  0  0
   -2.3037    1.4371   19.3293 H   0  0  0  0  0  0  0  0  0  0  0  0
    0.3733    3.8328   16.2043 C   0  0  0  0  0  0  0  0  0  0  0  0
    1.1348    3.8929   16.9586 H   0  0  0  0  0  0  0  0  0  0  0  0
   -2.5698    7.8910   16.4076 C   0  0  0  0  0  0  0  0  0  0  0  0
   -2.3382    8.5346   17.2350 H   0  0  0  0  0  0  0  0  0  0  0  0
  1  2  1  0  0  0  0
  1  3  1  0  0  0  0
  4  1  1  0  0  0  0
  5 32  1  1  0  0  0
  5 19  1  0  0  0  0
  6 20  1  1  0  0  0
  6 18  1  0  0  0  0
  6  1  1  0  0  0  0
  7 38  2  0  0  0  0
  8  7  1  0  0  0  0
  9 25  1  1  0  0  0
  9  4  1  0  0  0  0
 10 12  1  0  0  0  0
 10 13  1  0  0  0  0
 11 10  1  0  0  0  0
 14 17  2  0  0  0  0
 14 36  1  0  0  0  0
 15 18  2  0  0  0  0
 17 22  1  0  0  0  0
 18 14  1  0  0  0  0
 19  1  1  0  0  0  0
 20 31  1  0  0  0  0
 21 20  1  0  0  0  0
 22 23  1  0  0  0  0
 22 29  2  0  0  0  0
 24 10  1  6  0  0  0
 24  5  1  0  0  0  0
 24  9  1  0  0  0  0
 24  6  1  0  0  0  0
 25 27  1  0  0  0  0
 26 25  1  0  0  0  0
 27 40  2  0  0  0  0
 28 27  1  0  0  0  0
 29 30  1  0  0  0  0
 31 16  2  0  0  0  0
 31 17  1  0  0  0  0
 32  7  1  0  0  0  0
 33 32  1  0  0  0  0
 34 29  1  0  0  0  0
 34 35  1  0  0  0  0
 36 34  2  0  0  0  0
 37 36  1  0  0  0  0
 38 19  1  0  0  0  0
 38 39  1  0  0  0  0
 40  4  1  0  0  0  0
 40 41  1  0  0  0  0
M  END
$$$$
