CSD_code = YUJDUD | q = 1 | S = 0 | Stoichiometry = C21H22ClN4O2Pt(1+) | MND = 4
 OpenBabel04212202123D

 51 56  0  0  0  0  0  0  0  0999 V2000
    7.3070    9.4279   14.3045 Pt  0  0  2  0  0  0  0  0  0  0  0  0
    6.8201   11.1437   15.6309 Cl  0  0  0  0  0  0  0  0  0  0  0  0
    7.7267    7.9587   13.1690 N   0  0  0  0  0  0  0  0  0  0  0  0
    7.8492    8.1901   11.8513 C   0  0  0  0  0  0  0  0  0  0  0  0
    8.1628    7.1467   11.0045 C   0  0  0  0  0  0  0  0  0  0  0  0
    8.2750    7.2729    9.9415 H   0  0  0  0  0  0  0  0  0  0  0  0
    8.3459    5.8537   11.5390 C   0  0  0  0  0  0  0  0  0  0  0  0
    8.2036    5.6593   12.9232 C   0  0  0  0  0  0  0  0  0  0  0  0
    8.3402    4.6848   13.3585 H   0  0  0  0  0  0  0  0  0  0  0  0
    7.8910    6.7507   13.7216 C   0  0  0  0  0  0  0  0  0  0  0  0
    7.6142    9.6016   11.5110 C   0  0  0  0  0  0  0  0  0  0  0  0
    7.3283   10.4160   12.5648 N   0  0  0  0  0  0  0  0  0  0  0  0
    7.1000   11.7082   12.3495 C   0  0  0  0  0  3  0  0  0  0  0  0
    6.8787   12.3073   13.2242 H   0  0  0  0  0  0  0  0  0  0  0  0
    7.1396   12.2684   11.0826 C   0  0  0  0  0  0  0  0  0  0  0  0
    6.9469   13.3209   10.9554 H   0  0  0  0  0  0  0  0  0  0  0  0
    7.4283   11.4542    9.9981 C   0  0  0  0  0  0  0  0  0  0  0  0
    7.4662   11.8582    8.9988 H   0  0  0  0  0  0  0  0  0  0  0  0
    7.6683   10.1066   10.2176 C   0  0  0  0  0  0  0  0  0  0  0  0
    7.8948    9.4500    9.3939 H   0  0  0  0  0  0  0  0  0  0  0  0
    7.7063    6.7807   15.1804 C   0  0  0  0  0  0  0  0  0  0  0  0
    7.4097    8.0037   15.7039 N   0  0  0  0  0  0  0  0  0  0  0  0
    7.2284    8.1286   17.0152 C   0  0  0  0  0  0  0  0  0  0  0  0
    6.9953    9.1241   17.3728 H   0  0  0  0  0  0  0  0  0  0  0  0
    7.3294    7.0549   17.8852 C   0  0  0  0  0  0  0  0  0  0  0  0
    7.1752    7.2032   18.9412 H   0  0  0  0  0  0  0  0  0  0  0  0
    7.6294    5.8026   17.3712 C   0  0  0  0  0  0  0  0  0  0  0  0
    7.7150    4.9453   18.0201 H   0  0  0  0  0  0  0  0  0  0  0  0
    7.8190    5.6674   16.0049 C   0  0  0  0  0  0  0  0  0  0  0  0
    8.0531    4.7044   15.5818 H   0  0  0  0  0  0  0  0  0  0  0  0
    8.6539    4.9122   10.6617 O   0  0  0  0  0  0  0  0  0  0  0  0
    8.8087    3.5576   11.0662 C   0  0  0  0  0  0  0  0  0  0  0  0
    7.8996    3.2151   11.5718 H   0  0  0  0  0  0  0  0  0  0  0  0
    9.6655    3.4642   11.7448 H   0  0  0  0  0  0  0  0  0  0  0  0
    9.0517    2.7382    9.7970 C   0  0  0  0  0  0  0  0  0  0  0  0
    9.8467    3.2296    9.2327 H   0  0  0  0  0  0  0  0  0  0  0  0
    9.4021    1.7351   10.0873 H   0  0  0  0  0  0  0  0  0  0  0  0
    7.8545    2.6974    8.9823 N   0  0  0  0  0  0  0  0  0  0  0  0
    8.1256    2.6360    7.5539 C   0  0  0  0  0  0  0  0  0  0  0  0
    8.6200    1.6905    7.2758 H   0  0  0  0  0  0  0  0  0  0  0  0
    8.7721    3.4711    7.2783 H   0  0  0  0  0  0  0  0  0  0  0  0
    6.8010    2.7483    6.7971 C   0  0  0  0  0  0  0  0  0  0  0  0
    6.3465    3.7273    7.0138 H   0  0  0  0  0  0  0  0  0  0  0  0
    6.9626    2.6507    5.7229 H   0  0  0  0  0  0  0  0  0  0  0  0
    5.9145    1.7194    7.1606 O   0  0  0  0  0  0  0  0  0  0  0  0
    5.6617    1.7486    8.5417 C   0  0  0  0  0  0  0  0  0  0  0  0
    4.9898    0.9150    8.7504 H   0  0  0  0  0  0  0  0  0  0  0  0
    5.1685    2.6953    8.8128 H   0  0  0  0  0  0  0  0  0  0  0  0
    6.9556    1.6131    9.3465 C   0  0  0  0  0  0  0  0  0  0  0  0
    7.4116    0.6305    9.1352 H   0  0  0  0  0  0  0  0  0  0  0  0
    6.7255    1.6687   10.4124 H   0  0  0  0  0  0  0  0  0  0  0  0
  1  2  1  1  0  0  0
  1 22  1  0  0  0  0
  3 10  1  0  0  0  0
  3  1  1  0  0  0  0
  4  3  1  0  0  0  0
  5  7  1  0  0  0  0
  5  4  2  0  0  0  0
  6  5  1  0  0  0  0
  7  8  2  0  0  0  0
  8  9  1  0  0  0  0
  8 10  1  0  0  0  0
 10 21  2  0  0  0  0
 11  4  1  0  0  0  0
 11 12  1  0  0  0  0
 12  1  1  0  0  0  0
 13 12  1  0  0  0  0
 13 14  1  0  0  0  0
 15 13  1  0  0  0  0
 16 15  1  0  0  0  0
 17 19  1  0  0  0  0
 17 15  2  0  0  0  0
 18 17  1  0  0  0  0
 19 11  2  0  0  0  0
 20 19  1  0  0  0  0
 21 22  1  0  0  0  0
 21 29  1  0  0  0  0
 22 23  1  0  0  0  0
 23 24  1  0  0  0  0
 23 25  2  0  0  0  0
 25 26  1  0  0  0  0
 27 25  1  0  0  0  0
 27 28  1  0  0  0  0
 29 27  2  0  0  0  0
 30 29  1  0  0  0  0
 31 32  1  0  0  0  0
 31  7  1  0  0  0  0
 32 33  1  0  0  0  0
 32 34  1  0  0  0  0
 35 37  1  0  0  0  0
 35 32  1  0  0  0  0
 36 35  1  0  0  0  0
 38 49  1  0  0  0  0
 38 35  1  0  0  0  0
 39 38  1  0  0  0  0
 40 39  1  0  0  0  0
 41 39  1  0  0  0  0
 42 43  1  0  0  0  0
 42 45  1  0  0  0  0
 42 39  1  0  0  0  0
 44 42  1  0  0  0  0
 45 46  1  0  0  0  0
 46 47  1  0  0  0  0
 46 48  1  0  0  0  0
 46 49  1  0  0  0  0
 49 51  1  0  0  0  0
 50 49  1  0  0  0  0
M  END
$$$$
