CSD_code = YUJFEP | q = 1 | S = 0 | Stoichiometry = C18H24ClN2Ru(1+) | MND = 9
 OpenBabel04212202123D

 46 47  0  0  1  0  0  0  0  0999 V2000
    0.7106    3.0134    1.0909 C   0  0  0  0  0  0  0  0  0  0  0  0
    0.4471    2.7804   -0.2725 C   0  0  0  0  0  0  0  0  0  0  0  0
    0.8708    3.7377   -1.2672 C   0  0  0  0  0  0  0  0  0  0  0  0
    1.6119    4.8728   -0.8834 C   0  0  0  0  0  0  0  0  0  0  0  0
    2.0758    4.9890    0.4685 C   0  0  2  0  0  3  0  0  0  0  0  0
    1.6394    4.0411    1.4523 C   0  0  1  0  0  0  0  0  0  0  0  0
   -0.0100    2.2296    2.1530 C   0  0  0  0  0  0  0  0  0  0  0  0
   -0.3987    1.6181   -0.7033 C   0  0  0  0  0  0  0  0  0  0  0  0
    0.3971    3.5442   -2.6764 C   0  0  0  0  0  0  0  0  0  0  0  0
    1.8745    5.9630   -1.8871 C   0  0  0  0  0  0  0  0  0  0  0  0
    2.8508    6.2126    0.8788 C   0  0  0  0  0  0  0  0  0  0  0  0
    2.0304    4.2110    2.8968 C   0  0  0  0  0  0  0  0  0  0  0  0
    6.0087    0.6378    1.1839 C   0  0  0  0  0  0  0  0  0  0  0  0
    7.2987    0.6514    0.7385 C   0  0  0  0  0  0  0  0  0  0  0  0
    7.7439    1.6035   -0.2105 C   0  0  0  0  0  0  0  0  0  0  0  0
    6.9024    2.5487   -0.7209 C   0  0  0  0  0  0  0  0  0  0  0  0
    5.5527    2.5643   -0.2969 C   0  0  0  0  0  0  0  0  0  0  0  0
    5.0977    1.5914    0.6718 C   0  0  0  0  0  0  0  0  0  0  0  0
    2.7739    2.9607   -0.1245 Ru  0  0  0  0  0  0  0  0  0  0  0  0
    2.8518    1.3272   -1.7537 Cl  0  0  0  0  0 15  0  0  0  0  0  0
    3.8245    1.7534    0.9917 N   0  0  0  0  0  0  0  0  0  0  0  0
    4.5993    3.4093   -0.6513 N   0  0  0  0  0  0  0  0  0  0  0  0
   -0.1834    2.8517    3.0271 H   0  0  0  0  0  0  0  0  0  0  0  0
   -0.9784    1.9004    1.7865 H   0  0  0  0  0  0  0  0  0  0  0  0
    0.5496    1.3480    2.4650 H   0  0  0  0  0  0  0  0  0  0  0  0
   -0.0326    1.2126   -1.6438 H   0  0  0  0  0  0  0  0  0  0  0  0
   -1.4329    1.9353   -0.8470 H   0  0  0  0  0  0  0  0  0  0  0  0
   -0.3774    0.8164    0.0289 H   0  0  0  0  0  0  0  0  0  0  0  0
    0.6263    4.3925   -3.3104 H   0  0  0  0  0  0  0  0  0  0  0  0
   -0.6796    3.3826   -2.6902 H   0  0  0  0  0  0  0  0  0  0  0  0
    0.8745    2.6625   -3.1083 H   0  0  0  0  0  0  0  0  0  0  0  0
    2.4460    6.7816   -1.4665 H   0  0  0  0  0  0  0  0  0  0  0  0
    0.9241    6.3669   -2.2367 H   0  0  0  0  0  0  0  0  0  0  0  0
    2.4160    5.5792   -2.7505 H   0  0  0  0  0  0  0  0  0  0  0  0
    3.2459    6.1300    1.8848 H   0  0  0  0  0  0  0  0  0  0  0  0
    2.1908    7.0808    0.8522 H   0  0  0  0  0  0  0  0  0  0  0  0
    3.6885    6.3984    0.2095 H   0  0  0  0  0  0  0  0  0  0  0  0
    3.0853    4.4619    2.9909 H   0  0  0  0  0  0  0  0  0  0  0  0
    1.4453    5.0106    3.3533 H   0  0  0  0  0  0  0  0  0  0  0  0
    1.8655    3.2987    3.4618 H   0  0  0  0  0  0  0  0  0  0  0  0
    5.6685   -0.0894    1.9054 H   0  0  0  0  0  0  0  0  0  0  0  0
    8.0026   -0.0777    1.1081 H   0  0  0  0  0  0  0  0  0  0  0  0
    8.7728    1.5693   -0.5328 H   0  0  0  0  0  0  0  0  0  0  0  0
    7.2406    3.2736   -1.4457 H   0  0  0  0  0  0  0  0  0  0  0  0
    4.8760    4.1223   -1.3299 H   0  0  0  0  0  0  0  0  0  0  0  0
    3.4616    1.0964    1.6863 H   0  0  0  0  0  0  0  0  0  0  0  0
  1  6  1  0  0  0  0
  1  7  1  0  0  0  0
  2  1  2  0  0  0  0
  3  4  2  0  0  0  0
  3  2  1  0  0  0  0
  4  5  1  0  0  0  0
  5 11  1  1  0  0  0
  5  6  1  0  0  0  0
  6 12  1  1  0  0  0
  7 25  1  0  0  0  0
  7 23  1  0  0  0  0
  8  2  1  0  0  0  0
  8 28  1  0  0  0  0
  9  3  1  0  0  0  0
 10 32  1  0  0  0  0
 10  4  1  0  0  0  0
 11 35  1  0  0  0  0
 12 38  1  0  0  0  0
 12 39  1  0  0  0  0
 12 40  1  0  0  0  0
 13 41  1  0  0  0  0
 14 42  1  0  0  0  0
 14 13  1  0  0  0  0
 15 14  2  0  0  0  0
 16 17  2  0  0  0  0
 16 15  1  0  0  0  0
 17 18  1  0  0  0  0
 18 21  1  0  0  0  0
 18 13  2  0  0  0  0
 19 21  1  0  0  0  0
 19  6  1  0  0  0  0
 21 46  1  0  0  0  0
 22 17  1  0  0  0  0
 22 19  1  0  0  0  0
 24  7  1  0  0  0  0
 26  8  1  0  0  0  0
 27  8  1  0  0  0  0
 29  9  1  0  0  0  0
 30  9  1  0  0  0  0
 31  9  1  0  0  0  0
 33 10  1  0  0  0  0
 34 10  1  0  0  0  0
 36 11  1  0  0  0  0
 37 11  1  0  0  0  0
 43 15  1  0  0  0  0
 44 16  1  0  0  0  0
 45 22  1  0  0  0  0
M  END
$$$$
