CSD_code = YUKQAY | q = 0 | S = 0 | Stoichiometry = C15H15F3MnN3 | MND = 6
 OpenBabel04212202123D

 37 39  0  0  0  0  0  0  0  0999 V2000
    5.4631    5.3511    6.3335 C   0  0  0  0  0  3  0  0  0  0  0  0
    5.4417    5.4684    5.2587 H   0  0  0  0  0  0  0  0  0  0  0  0
    6.6054    5.6496    7.0502 C   0  0  0  0  0  0  0  0  0  0  0  0
    7.4808    6.0144    6.5354 H   0  0  0  0  0  0  0  0  0  0  0  0
    6.6081    5.4708    8.4263 C   0  0  0  0  0  0  0  0  0  0  0  0
    7.4844    5.6949    9.0152 H   0  0  0  0  0  0  0  0  0  0  0  0
    5.4494    4.9908    9.0180 C   0  0  0  0  0  0  0  0  0  0  0  0
    5.3957    4.8294   10.0833 H   0  0  0  0  0  0  0  0  0  0  0  0
    4.3507    4.7134    8.2267 C   0  0  0  0  0  0  0  0  0  0  0  0
    3.4332    4.3399    8.6612 H   0  0  0  0  0  0  0  0  0  0  0  0
    2.6923    6.4620    3.5004 C   0  0  0  0  0  3  0  0  0  0  0  0
    2.6156    5.5173    2.9798 H   0  0  0  0  0  0  0  0  0  0  0  0
    2.7390    7.6549    2.7997 C   0  0  0  0  0  0  0  0  0  0  0  0
    2.6886    7.6481    1.7223 H   0  0  0  0  0  0  0  0  0  0  0  0
    2.8502    8.8441    3.5033 C   0  0  0  0  0  0  0  0  0  0  0  0
    2.8907    9.7924    2.9887 H   0  0  0  0  0  0  0  0  0  0  0  0
    2.9076    8.7805    4.8869 C   0  0  0  0  0  0  0  0  0  0  0  0
    2.9946    9.6756    5.4824 H   0  0  0  0  0  0  0  0  0  0  0  0
    2.8534    7.5431    5.5048 C   0  0  0  0  0  0  0  0  0  0  0  0
    2.8859    7.4612    6.5825 H   0  0  0  0  0  0  0  0  0  0  0  0
    1.0542    2.6550    4.3966 C   0  0  0  0  0  3  0  0  0  0  0  0
    1.9589    2.0689    4.4861 H   0  0  0  0  0  0  0  0  0  0  0  0
   -0.0504    2.1580    3.7311 C   0  0  0  0  0  0  0  0  0  0  0  0
   -0.0144    1.1706    3.2978 H   0  0  0  0  0  0  0  0  0  0  0  0
   -1.1927    2.9383    3.6348 C   0  0  0  0  0  0  0  0  0  0  0  0
   -2.0730    2.5791    3.1240 H   0  0  0  0  0  0  0  0  0  0  0  0
   -1.1677    4.1963    4.2201 C   0  0  0  0  0  0  0  0  0  0  0  0
   -2.0295    4.8443    4.1815 H   0  0  0  0  0  0  0  0  0  0  0  0
   -0.0206    4.6184    4.8633 C   0  0  0  0  0  0  0  0  0  0  0  0
    0.0183    5.5887    5.3391 H   0  0  0  0  0  0  0  0  0  0  0  0
    4.3422    4.8898    6.9002 N   0  0  0  0  0  0  0  0  0  0  0  0
    2.7491    6.3980    4.8305 N   0  0  0  0  0  0  0  0  0  0  0  0
    1.0841    3.8696    4.9578 N   0  0  0  0  0  0  0  0  0  0  0  0
    3.6745    3.9890    4.4779 F   0  0  0  0  0  0  0  0  0  0  0  0
    2.6927    2.8920    6.7441 F   0  0  0  0  0  0  0  0  0  0  0  0
    1.7592    5.4109    7.0291 F   0  0  0  0  0  0  0  0  0  0  0  0
    2.7133    4.4214    5.9054 Mn  0  0  0  0  0  0  0  0  0  0  0  0
  1 31  1  0  0  0  0
  1  3  1  0  0  0  0
  2  1  1  0  0  0  0
  3  5  2  0  0  0  0
  4  3  1  0  0  0  0
  5  6  1  0  0  0  0
  5  7  1  0  0  0  0
  7  8  1  0  0  0  0
  9 10  1  0  0  0  0
  9  7  2  0  0  0  0
 11 32  1  0  0  0  0
 12 11  1  0  0  0  0
 13 11  1  0  0  0  0
 13 15  2  0  0  0  0
 14 13  1  0  0  0  0
 15 17  1  0  0  0  0
 16 15  1  0  0  0  0
 17 18  1  0  0  0  0
 17 19  2  0  0  0  0
 19 20  1  0  0  0  0
 21 22  1  0  0  0  0
 21 33  1  0  0  0  0
 23 21  1  0  0  0  0
 24 23  1  0  0  0  0
 25 23  2  0  0  0  0
 25 27  1  0  0  0  0
 26 25  1  0  0  0  0
 27 29  2  0  0  0  0
 28 27  1  0  0  0  0
 29 33  1  0  0  0  0
 29 30  1  0  0  0  0
 31  9  1  0  0  0  0
 32 19  1  0  0  0  0
 32 37  1  0  0  0  0
 33 37  1  0  0  0  0
 34 37  1  0  0  0  0
 37 35  1  0  0  0  0
 37 31  1  0  0  0  0
 37 36  1  0  0  0  0
M  END
$$$$
