CSD_code = YULCOY | q = 0 | S = 0 | Stoichiometry = C32H23AuClP | MND = 2
 OpenBabel04212202123D

 58 63  0  0  1  0  0  0  0  0999 V2000
    5.6008    4.4206    3.0556 C   0  0  1  0  0  3  0  0  0  0  0  0
    6.3190    4.1529    4.1727 C   0  0  0  0  0  0  0  0  0  0  0  0
    7.2268    5.1084    4.8203 C   0  0  0  0  0  0  0  0  0  0  0  0
    8.0310    4.4157    5.7511 C   0  0  0  0  0  0  0  0  0  0  0  0
    7.5739    3.0363    5.8105 C   0  0  0  0  0  0  0  0  0  0  0  0
    6.5069    2.8947    4.8989 C   0  0  1  0  0  3  0  0  0  0  0  0
    5.7507    1.7388    4.8929 C   0  0  0  0  0  0  0  0  0  0  0  0
    4.8464    1.6671    4.3010 H   0  0  0  0  0  0  0  0  0  0  0  0
    6.1382    0.6796    5.7004 C   0  0  0  0  0  0  0  0  0  0  0  0
    5.5633   -0.2350    5.6914 H   0  0  0  0  0  0  0  0  0  0  0  0
    7.2434    0.7893    6.5301 C   0  0  0  0  0  0  0  0  0  0  0  0
    7.5316   -0.0502    7.1459 H   0  0  0  0  0  0  0  0  0  0  0  0
    7.9546    1.9787    6.6139 C   0  0  0  0  0  0  0  0  0  0  0  0
    8.7778    2.0772    7.3059 H   0  0  0  0  0  0  0  0  0  0  0  0
    9.0282    5.0705    6.4489 C   0  0  0  0  0  0  0  0  0  0  0  0
    9.6483    4.5391    7.1557 H   0  0  0  0  0  0  0  0  0  0  0  0
    9.2160    6.4265    6.2231 C   0  0  0  0  0  0  0  0  0  0  0  0
    9.9868    6.9562    6.7638 H   0  0  0  0  0  0  0  0  0  0  0  0
    8.4233    7.1106    5.3136 C   0  0  0  0  0  0  0  0  0  0  0  0
    8.5811    8.1675    5.1586 H   0  0  0  0  0  0  0  0  0  0  0  0
    7.4284    6.4583    4.5998 C   0  0  0  0  0  0  0  0  0  0  0  0
    6.8118    6.9966    3.8938 H   0  0  0  0  0  0  0  0  0  0  0  0
    5.6779    1.5697    1.9611 C   0  0  0  0  0  0  0  0  0  0  0  0
    7.0685    1.5880    2.0365 C   0  0  0  0  0  0  0  0  0  0  0  0
    7.5824    2.5321    2.1674 H   0  0  0  0  0  0  0  0  0  0  0  0
    7.7790    0.4049    1.9682 C   0  0  0  0  0  0  0  0  0  0  0  0
    8.8569    0.4201    2.0314 H   0  0  0  0  0  0  0  0  0  0  0  0
    7.1060   -0.7983    1.8271 C   0  0  0  0  0  0  0  0  0  0  0  0
    7.6604   -1.7235    1.7792 H   0  0  0  0  0  0  0  0  0  0  0  0
    5.7231   -0.8174    1.7549 C   0  0  0  0  0  0  0  0  0  0  0  0
    5.1998   -1.7565    1.6502 H   0  0  0  0  0  0  0  0  0  0  0  0
    5.0044    0.3629    1.8220 C   0  0  0  0  0  0  0  0  0  0  0  0
    3.9245    0.3431    1.7828 H   0  0  0  0  0  0  0  0  0  0  0  0
    3.0996    2.9205    2.4849 C   0  0  0  0  0  0  0  0  0  0  0  0
    2.6423    3.3472    3.7266 C   0  0  0  0  0  0  0  0  0  0  0  0
    3.3272    3.8364    4.4067 H   0  0  0  0  0  0  0  0  0  0  0  0
    1.3170    3.1526    4.0711 C   0  0  0  0  0  0  0  0  0  0  0  0
    0.9569    3.4873    5.0320 H   0  0  0  0  0  0  0  0  0  0  0  0
    0.4536    2.5348    3.1804 C   0  0  0  0  0  0  0  0  0  0  0  0
   -0.5815    2.3867    3.4494 H   0  0  0  0  0  0  0  0  0  0  0  0
    0.9094    2.1142    1.9402 C   0  0  0  0  0  0  0  0  0  0  0  0
    0.2310    1.6411    1.2459 H   0  0  0  0  0  0  0  0  0  0  0  0
    2.2315    2.3078    1.5847 C   0  0  0  0  0  0  0  0  0  0  0  0
    2.5905    2.0023    0.6104 H   0  0  0  0  0  0  0  0  0  0  0  0
    4.8352    3.7078    0.3182 C   0  0  0  0  0  0  0  0  0  0  0  0
    3.7789    4.4781   -0.1678 C   0  0  0  0  0  0  0  0  0  0  0  0
    2.9455    4.7266    0.4751 H   0  0  0  0  0  0  0  0  0  0  0  0
    3.8021    4.9375   -1.4698 C   0  0  0  0  0  0  0  0  0  0  0  0
    2.9864    5.5418   -1.8352 H   0  0  0  0  0  0  0  0  0  0  0  0
    4.8774    4.6391   -2.2933 C   0  0  0  0  0  0  0  0  0  0  0  0
    4.8989    5.0099   -3.3070 H   0  0  0  0  0  0  0  0  0  0  0  0
    5.9231    3.8678   -1.8166 C   0  0  0  0  0  0  0  0  0  0  0  0
    6.7614    3.6339   -2.4562 H   0  0  0  0  0  0  0  0  0  0  0  0
    5.9037    3.3962   -0.5147 C   0  0  0  0  0  0  0  0  0  0  0  0
    6.7217    2.7919   -0.1479 H   0  0  0  0  0  0  0  0  0  0  0  0
    4.8327    3.1851    2.0590 P   0  0  0  0  0  4  0  0  0  0  0  0
    3.6498    7.8229    1.4128 Cl  0  0  0  0  0  0  0  0  0  0  0  0
    4.7940    6.0955    2.3219 Au  0  0  0  0  0  0  0  0  0  0  0  0
  1 58  1  1  0  0  0
  1  2  1  0  0  0  0
  2  3  2  0  0  0  0
  3  4  1  0  0  0  0
  4  5  2  0  0  0  0
  4 15  1  0  0  0  0
  5 13  1  0  0  0  0
  6  2  1  1  0  0  0
  6  5  1  0  0  0  0
  7  6  1  0  0  0  0
  7  9  2  0  0  0  0
  8  7  1  0  0  0  0
  9 11  1  0  0  0  0
 10  9  1  0  0  0  0
 11 13  2  0  0  0  0
 11 12  1  0  0  0  0
 13 14  1  0  0  0  0
 15 16  1  0  0  0  0
 17 15  2  0  0  0  0
 17 18  1  0  0  0  0
 19 17  1  0  0  0  0
 20 19  1  0  0  0  0
 21  3  1  0  0  0  0
 21 19  2  0  0  0  0
 22 21  1  0  0  0  0
 23 24  1  0  0  0  0
 23 56  1  0  0  0  0
 24 25  1  0  0  0  0
 26 27  1  0  0  0  0
 26 24  2  0  0  0  0
 28 26  1  0  0  0  0
 29 28  1  0  0  0  0
 30 32  1  0  0  0  0
 30 28  2  0  0  0  0
 31 30  1  0  0  0  0
 32 23  2  0  0  0  0
 33 32  1  0  0  0  0
 34 35  1  0  0  0  0
 35 37  2  0  0  0  0
 35 36  1  0  0  0  0
 37 38  1  0  0  0  0
 39 40  1  0  0  0  0
 39 37  1  0  0  0  0
 41 39  2  0  0  0  0
 42 41  1  0  0  0  0
 43 41  1  0  0  0  0
 43 34  2  0  0  0  0
 44 43  1  0  0  0  0
 45 56  1  0  0  0  0
 46 45  1  0  0  0  0
 46 47  1  0  0  0  0
 48 46  2  0  0  0  0
 49 48  1  0  0  0  0
 50 52  2  0  0  0  0
 50 48  1  0  0  0  0
 51 50  1  0  0  0  0
 52 54  1  0  0  0  0
 53 52  1  0  0  0  0
 54 55  1  0  0  0  0
 54 45  2  0  0  0  0
 56 34  1  0  0  0  0
 56  1  1  0  0  0  0
 57 58  1  0  0  0  0
M  END
$$$$
