CSD_code = YUMNOK | q = 0 | S = 0 | Stoichiometry = C12H24Cl2N6P2Zn | MND = 4
 OpenBabel04212202123D

 47 52  0  0  1  0  0  0  0  0999 V2000
    5.9070    1.8128   -0.0759 C   0  0  0  0  0  0  0  0  0  0  0  0
    5.1965    0.9806   -0.0260 H   0  0  0  0  0  0  0  0  0  0  0  0
    6.6448    1.6723    0.7231 H   0  0  0  0  0  0  0  0  0  0  0  0
    4.1587    3.2778   -0.8852 C   0  0  0  0  0  0  0  0  0  0  0  0
    3.5054    2.4016   -0.9212 H   0  0  0  0  0  0  0  0  0  0  0  0
    3.5679    4.1562   -0.6036 H   0  0  0  0  0  0  0  0  0  0  0  0
    6.1004    4.2189    0.1448 C   0  0  0  0  0  0  0  0  0  0  0  0
    5.5335    5.1049    0.4461 H   0  0  0  0  0  0  0  0  0  0  0  0
    6.9015    4.0475    0.8708 H   0  0  0  0  0  0  0  0  0  0  0  0
    5.6254    4.6439   -2.1294 C   0  0  0  0  0  0  0  0  0  0  0  0
    6.0719    4.8009   -3.1140 H   0  0  0  0  0  0  0  0  0  0  0  0
    5.0479    5.5304   -1.8500 H   0  0  0  0  0  0  0  0  0  0  0  0
    7.6060    3.4200   -1.5425 C   0  0  0  0  0  0  0  0  0  0  0  0
    8.4085    3.3590   -0.7995 H   0  0  0  0  0  0  0  0  0  0  0  0
    8.0555    3.6913   -2.5028 H   0  0  0  0  0  0  0  0  0  0  0  0
    5.3588    2.3302   -2.7298 C   0  0  0  0  0  0  0  0  0  0  0  0
    5.7075    2.5497   -3.7439 H   0  0  0  0  0  0  0  0  0  0  0  0
    4.6197    1.5247   -2.7900 H   0  0  0  0  0  0  0  0  0  0  0  0
    6.1832    3.2024    4.1642 C   0  0  0  0  0  0  0  0  0  0  0  0
    5.8517    4.2461    4.1365 H   0  0  0  0  0  0  0  0  0  0  0  0
    6.9262    3.0659    3.3692 H   0  0  0  0  0  0  0  0  0  0  0  0
    5.4311    0.9157    3.8795 C   0  0  0  0  0  0  0  0  0  0  0  0
    4.5681    0.3269    3.5544 H   0  0  0  0  0  0  0  0  0  0  0  0
    6.2442    0.7806    3.1591 H   0  0  0  0  0  0  0  0  0  0  0  0
    3.9954    2.5106    4.9337 C   0  0  0  0  0  0  0  0  0  0  0  0
    3.7327    3.5705    4.9932 H   0  0  0  0  0  0  0  0  0  0  0  0
    3.1134    1.9373    4.6285 H   0  0  0  0  0  0  0  0  0  0  0  0
    4.8037    0.6519    6.1409 C   0  0  0  0  0  0  0  0  0  0  0  0
    5.1433    0.3093    7.1210 H   0  0  0  0  0  0  0  0  0  0  0  0
    3.9307    0.0665    5.8368 H   0  0  0  0  0  0  0  0  0  0  0  0
    7.1103    1.0264    5.5882 C   0  0  0  0  0  0  0  0  0  0  0  0
    7.8818    0.7892    4.8477 H   0  0  0  0  0  0  0  0  0  0  0  0
    7.4088    0.5787    6.5413 H   0  0  0  0  0  0  0  0  0  0  0  0
    5.4493    2.8722    6.8034 C   0  0  0  0  0  0  0  0  0  0  0  0
    5.6752    2.5089    7.8110 H   0  0  0  0  0  0  0  0  0  0  0  0
    5.0797    3.8994    6.8860 H   0  0  0  0  0  0  0  0  0  0  0  0
    5.1802    3.0621    0.1687 N   0  0  2  0  0  4  0  0  0  0  0  0
    4.7244    3.5084   -2.1857 N   0  0  1  0  0  0  0  0  0  0  0  0
    6.6811    4.4585   -1.1495 N   0  0  2  0  0  0  0  0  0  0  0  0
    5.0317    2.3391    3.8860 N   0  0  1  0  0  4  0  0  0  0  0  0
    5.8594    0.4376    5.1671 N   0  0  2  0  0  0  0  0  0  0  0  0
    4.4133    2.0464    6.2277 N   0  0  1  0  0  0  0  0  0  0  0  0
    6.8197    1.7174   -1.7157 P   0  0  2  0  0  0  0  0  0  0  0  0
    7.0442    2.8959    5.8062 P   0  0  2  0  0  0  0  0  0  0  0  0
    2.7110    1.2025    1.6467 Cl  0  0  0  0  0  0  0  0  0  0  0  0
    3.5351    5.0587    2.4238 Cl  0  0  0  0  0  0  0  0  0  0  0  0
    4.0088    2.9432    2.0307 Zn  0  0  0  0  0  0  0  0  0  0  0  0
  1  2  1  0  0  0  0
  1 37  1  0  0  0  0
  1  3  1  0  0  0  0
  4  6  1  0  0  0  0
  4 37  1  0  0  0  0
  5  4  1  0  0  0  0
  7 37  1  0  0  0  0
  7  8  1  0  0  0  0
  7  9  1  0  0  0  0
 10 12  1  0  0  0  0
 11 10  1  0  0  0  0
 13 39  1  0  0  0  0
 13 14  1  0  0  0  0
 15 13  1  0  0  0  0
 17 16  1  0  0  0  0
 18 16  1  0  0  0  0
 20 19  1  0  0  0  0
 21 19  1  0  0  0  0
 22 40  1  0  0  0  0
 23 22  1  0  0  0  0
 24 22  1  0  0  0  0
 25 26  1  0  0  0  0
 27 25  1  0  0  0  0
 28 42  1  0  0  0  0
 28 29  1  0  0  0  0
 30 28  1  0  0  0  0
 31 44  1  0  0  0  0
 31 33  1  0  0  0  0
 32 31  1  0  0  0  0
 34 36  1  0  0  0  0
 34 35  1  0  0  0  0
 37 47  1  1  0  0  0
 38 16  1  1  0  0  0
 38 10  1  0  0  0  0
 38  4  1  0  0  0  0
 39 10  1  6  0  0  0
 39  7  1  0  0  0  0
 40 47  1  6  0  0  0
 40 19  1  0  0  0  0
 40 25  1  0  0  0  0
 41 22  1  6  0  0  0
 41 31  1  0  0  0  0
 41 28  1  0  0  0  0
 42 25  1  6  0  0  0
 42 34  1  0  0  0  0
 43 16  1  6  0  0  0
 43 13  1  0  0  0  0
 43  1  1  0  0  0  0
 44 19  1  6  0  0  0
 44 34  1  0  0  0  0
 45 47  1  0  0  0  0
 47 46  1  0  0  0  0
M  END
$$$$
