CSD_code = YUNFAP | q = 0 | S = 0 | Stoichiometry = C18H22ClCuN6S2 | MND = 3
 OpenBabel04212202123D

 50 51  0  0  1  0  0  0  0  0999 V2000
    1.0058   -0.0542   -2.0386 Cu  0  0  0  0  0  0  0  0  0  0  0  0
    1.3720    0.6993    0.0613 Cl  0  0  0  0  0  0  0  0  0  0  0  0
    2.0853   -1.9528   -2.8143 S   0  0  0  0  0  0  0  0  0  0  0  0
   -0.4268    1.0807   -3.4638 S   0  0  0  0  0  0  0  0  0  0  0  0
    4.1019   -2.1703    0.5145 N   0  0  0  0  0  0  0  0  0  0  0  0
    3.2485   -1.7637   -0.4458 N   0  0  0  0  0  0  0  0  0  0  0  0
    2.6504   -0.9346   -0.2905 H   0  0  0  0  0  0  0  0  0  0  0  0
    3.9272   -3.5196   -1.7297 N   0  0  0  0  0  0  0  0  0  0  0  0
    4.5345   -3.6985   -0.9389 H   0  0  0  0  0  0  0  0  0  0  0  0
   -0.9368    3.8431   -0.7612 N   0  0  0  0  0  0  0  0  0  0  0  0
   -0.5138    2.7354   -1.4015 N   0  0  0  0  0  0  0  0  0  0  0  0
    0.1269    2.0760   -0.9285 H   0  0  0  0  0  0  0  0  0  0  0  0
   -1.7707    3.3501   -3.1999 N   0  0  0  0  0  0  0  0  0  0  0  0
   -2.0045    4.1369   -2.6062 H   0  0  0  0  0  0  0  0  0  0  0  0
    5.0569   -1.1033    3.8475 C   0  0  0  0  0  0  0  0  0  0  0  0
    4.4083   -0.2428    3.9258 H   0  0  0  0  0  0  0  0  0  0  0  0
    5.8951   -1.4383    4.8931 C   0  0  0  0  0  0  0  0  0  0  0  0
    5.9018   -0.8379    5.7909 H   0  0  0  0  0  0  0  0  0  0  0  0
    6.7262   -2.5424    4.7922 C   0  0  0  0  0  0  0  0  0  0  0  0
    7.3806   -2.8033    5.6107 H   0  0  0  0  0  0  0  0  0  0  0  0
    6.7161   -3.3122    3.6383 C   0  0  0  0  0  0  0  0  0  0  0  0
    7.3640   -4.1731    3.5604 H   0  0  0  0  0  0  0  0  0  0  0  0
    5.8812   -2.9822    2.5906 C   0  0  0  0  0  0  0  0  0  0  0  0
    5.8652   -3.5743    1.6891 H   0  0  0  0  0  0  0  0  0  0  0  0
    5.0385   -1.8711    2.6812 C   0  0  0  0  0  0  0  0  0  0  0  0
    4.1515   -1.5013    1.6019 C   0  0  0  0  0  0  0  0  0  0  0  0
    3.5200   -0.6230    1.7543 H   0  0  0  0  0  0  0  0  0  0  0  0
    3.1467   -2.4441   -1.6046 C   0  0  1  0  0  3  0  0  0  0  0  0
    4.0006   -4.3750   -2.8800 C   0  0  0  0  0  0  0  0  0  0  0  0
    4.9680   -4.2722   -3.3764 H   0  0  0  0  0  0  0  0  0  0  0  0
    3.8625   -5.4150   -2.5818 H   0  0  0  0  0  0  0  0  0  0  0  0
    3.2131   -4.0895   -3.5736 H   0  0  0  0  0  0  0  0  0  0  0  0
   -1.7895    6.1718    0.6481 C   0  0  0  0  0  0  0  0  0  0  0  0
   -2.1537    6.0381   -0.3584 H   0  0  0  0  0  0  0  0  0  0  0  0
   -2.1641    7.2694    1.3954 C   0  0  0  0  0  0  0  0  0  0  0  0
   -2.8303    8.0072    0.9725 H   0  0  0  0  0  0  0  0  0  0  0  0
   -1.6884    7.4290    2.6886 C   0  0  0  0  0  0  0  0  0  0  0  0
   -1.9838    8.2889    3.2713 H   0  0  0  0  0  0  0  0  0  0  0  0
   -0.8335    6.4832    3.2316 C   0  0  0  0  0  0  0  0  0  0  0  0
   -0.4622    6.6061    4.2384 H   0  0  0  0  0  0  0  0  0  0  0  0
   -0.4548    5.3825    2.4879 C   0  0  0  0  0  0  0  0  0  0  0  0
    0.2114    4.6446    2.9110 H   0  0  0  0  0  0  0  0  0  0  0  0
   -0.9284    5.2113    1.1855 C   0  0  0  0  0  0  0  0  0  0  0  0
   -0.5203    4.0495    0.4289 C   0  0  0  0  0  0  0  0  0  0  0  0
    0.1601    3.3493    0.9189 H   0  0  0  0  0  0  0  0  0  0  0  0
   -0.9364    2.4639   -2.6521 C   0  0  1  0  0  3  0  0  0  0  0  0
   -2.3503    3.2621   -4.5099 C   0  0  0  0  0  0  0  0  0  0  0  0
   -1.9713    2.3659   -4.9958 H   0  0  0  0  0  0  0  0  0  0  0  0
   -3.4382    3.2019   -4.4421 H   0  0  0  0  0  0  0  0  0  0  0  0
   -2.0791    4.1367   -5.1036 H   0  0  0  0  0  0  0  0  0  0  0  0
  1  2  1  0  0  0  0
  3  1  1  0  0  0  0
  4  1  1  0  0  0  0
  5 26  2  0  0  0  0
  6  7  1  0  0  0  0
  6  5  1  0  0  0  0
  8 28  1  0  0  0  0
  8  9  1  0  0  0  0
 10 44  2  0  0  0  0
 11 12  1  0  0  0  0
 11 10  1  0  0  0  0
 13 46  1  0  0  0  0
 13 14  1  0  0  0  0
 15 16  1  0  0  0  0
 15 17  1  0  0  0  0
 17 18  1  0  0  0  0
 19 17  2  0  0  0  0
 19 20  1  0  0  0  0
 21 19  1  0  0  0  0
 22 21  1  0  0  0  0
 23 25  1  0  0  0  0
 23 21  2  0  0  0  0
 24 23  1  0  0  0  0
 25 15  2  0  0  0  0
 26 27  1  0  0  0  0
 26 25  1  0  0  0  0
 28  3  1  1  0  0  0
 28  6  1  0  0  0  0
 29 31  1  0  0  0  0
 29  8  1  0  0  0  0
 30 29  1  0  0  0  0
 32 29  1  0  0  0  0
 33 43  2  0  0  0  0
 33 35  1  0  0  0  0
 34 33  1  0  0  0  0
 35 37  2  0  0  0  0
 36 35  1  0  0  0  0
 37 39  1  0  0  0  0
 37 38  1  0  0  0  0
 39 40  1  0  0  0  0
 41 42  1  0  0  0  0
 41 39  2  0  0  0  0
 43 41  1  0  0  0  0
 44 45  1  0  0  0  0
 44 43  1  0  0  0  0
 46  4  1  6  0  0  0
 46 11  1  0  0  0  0
 47 49  1  0  0  0  0
 47 13  1  0  0  0  0
 48 47  1  0  0  0  0
 50 47  1  0  0  0  0
M  END
$$$$
