CSD_code = YUNTEG | q = 0 | S = 0 | Stoichiometry = C8H10I2N6O4Pt | MND = 4
 OpenBabel04212202123D

 31 32  0  0  0  0  0  0  0  0999 V2000
    6.6475    6.1988   -0.0006 Pt  0  0  0  0  0  0  0  0  0  0  0  0
    4.9887    4.5493    1.1535 I   0  0  0  0  0  0  0  0  0  0  0  0
    3.6843   10.9060    3.1416 O   0  0  0  0  0  0  0  0  0  0  0  0
    4.7030    9.4337    4.3463 O   0  0  0  0  0  0  0  0  0  0  0  0
    4.5165    9.6107    0.8348 N   0  0  0  0  0  0  0  0  0  0  0  0
    5.6605    7.7316    0.7474 N   0  0  0  0  0  0  0  0  0  0  0  0
    4.3526    9.9023    3.2870 N   0  0  0  0  0  0  0  0  0  0  0  0
    3.8087   10.7815    0.3964 C   0  0  0  0  0  0  0  0  0  0  0  0
    5.0769    8.6930    0.0436 C   0  0  0  0  0  3  0  0  0  0  0  0
    5.4796    8.0301    2.0485 C   0  0  0  0  0  0  0  0  0  0  0  0
    4.7658    9.2093    2.1242 C   0  0  0  0  0  0  0  0  0  0  0  0
    3.8275   10.8180   -0.6906 H   0  0  0  0  0  0  0  0  0  0  0  0
    2.7768   10.7542    0.7483 H   0  0  0  0  0  0  0  0  0  0  0  0
    4.2761   11.6792    0.8021 H   0  0  0  0  0  0  0  0  0  0  0  0
    5.0596    8.7409   -1.0305 H   0  0  0  0  0  0  0  0  0  0  0  0
    5.8400    7.4194    2.8559 H   0  0  0  0  0  0  0  0  0  0  0  0
    8.3077    7.8478   -1.1549 I   0  0  0  0  0  0  0  0  0  0  0  0
    7.6338    4.6651   -0.7475 N   0  0  0  0  0  0  0  0  0  0  0  0
    8.2179    3.7041   -0.0436 C   0  0  0  0  0  3  0  0  0  0  0  0
    7.8150    4.3666   -2.0485 C   0  0  0  0  0  0  0  0  0  0  0  0
    8.7787    2.7866   -0.8346 N   0  0  0  0  0  0  0  0  0  0  0  0
    8.2354    3.6564    1.0306 H   0  0  0  0  0  0  0  0  0  0  0  0
    8.5293    3.1877   -2.1241 C   0  0  0  0  0  0  0  0  0  0  0  0
    7.4544    4.9771   -2.8560 H   0  0  0  0  0  0  0  0  0  0  0  0
    9.4870    1.6161   -0.3961 C   0  0  0  0  0  0  0  0  0  0  0  0
    8.9429    2.4949   -3.2868 N   0  0  0  0  0  0  0  0  0  0  0  0
    9.4692    1.5803    0.6909 H   0  0  0  0  0  0  0  0  0  0  0  0
   10.5185    1.6432   -0.7491 H   0  0  0  0  0  0  0  0  0  0  0  0
    9.0191    0.7182   -0.8008 H   0  0  0  0  0  0  0  0  0  0  0  0
    9.6113    1.4912   -3.1412 O   0  0  0  0  0  0  0  0  0  0  0  0
    8.5925    2.9633   -4.3462 O   0  0  0  0  0  0  0  0  0  0  0  0
  1  6  1  0  0  0  0
  1  2  1  0  0  0  0
  3  7  2  0  0  0  0
  5 11  1  0  0  0  0
  6 10  1  0  0  0  0
  7  4  2  0  0  0  0
  8 13  1  0  0  0  0
  8 14  1  0  0  0  0
  8  5  1  0  0  0  0
  9  6  1  0  0  0  0
  9  5  1  0  0  0  0
 10 11  2  0  0  0  0
 10 16  1  0  0  0  0
 11  7  1  0  0  0  0
 12  8  1  0  0  0  0
 15  9  1  0  0  0  0
 17  1  1  0  0  0  0
 18 19  1  0  0  0  0
 18  1  1  0  0  0  0
 19 22  1  0  0  0  0
 20 18  1  0  0  0  0
 21 25  1  0  0  0  0
 21 19  1  0  0  0  0
 23 20  2  0  0  0  0
 23 21  1  0  0  0  0
 24 20  1  0  0  0  0
 25 27  1  0  0  0  0
 26 30  2  0  0  0  0
 26 23  1  0  0  0  0
 28 25  1  0  0  0  0
 29 25  1  0  0  0  0
 31 26  2  0  0  0  0
M  END
$$$$
