CSD_code = YUQLIH | q = 0 | S = 0 | Stoichiometry = C20H16Br2N2Pd | MND = 4
 OpenBabel04212202123D

 41 45  0  0  0  0  0  0  0  0999 V2000
   16.2821    4.5637    0.4215 Pd  0  0  0  0  0  0  0  0  0  0  0  0
   17.8689    5.6725   -0.9239 Br  0  0  0  0  0  0  0  0  0  0  0  0
   15.1265    3.6828   -1.4286 Br  0  0  0  0  0  0  0  0  0  0  0  0
   17.3846    5.2463    2.1935 N   0  0  0  0  0  4  0  0  0  0  0  0
   18.1694    5.8154    1.8733 H   0  0  0  0  0  0  0  0  0  0  0  0
   16.8576    5.7104    2.9321 H   0  0  0  0  0  0  0  0  0  0  0  0
   14.7510    3.5397    1.7106 N   0  0  0  0  0  4  0  0  0  0  0  0
   13.8590    3.5953    1.2155 H   0  0  0  0  0  0  0  0  0  0  0  0
   15.1311    2.5939    1.6130 H   0  0  0  0  0  0  0  0  0  0  0  0
   16.9709    3.1651    3.3805 C   0  0  0  0  0  0  0  0  0  0  0  0
   17.7578    3.9165    2.5222 C   0  0  0  0  0  0  0  0  0  0  0  0
   18.9172    3.3584    1.9380 C   0  0  0  0  0  0  0  0  0  0  0  0
   19.5171    3.9663    1.2728 H   0  0  0  0  0  0  0  0  0  0  0  0
   19.2667    2.0677    2.2133 C   0  0  0  0  0  0  0  0  0  0  0  0
   20.1494    1.6387    1.7640 H   0  0  0  0  0  0  0  0  0  0  0  0
   18.4895    1.2704    3.0811 C   0  0  0  0  0  0  0  0  0  0  0  0
   18.8362   -0.0633    3.3761 C   0  0  0  0  0  0  0  0  0  0  0  0
   19.7283   -0.4752    2.9273 H   0  0  0  0  0  0  0  0  0  0  0  0
   18.0603   -0.8210    4.2083 C   0  0  0  0  0  0  0  0  0  0  0  0
   18.3325   -1.8421    4.4290 H   0  0  0  0  0  0  0  0  0  0  0  0
   16.8997   -0.2779    4.7800 C   0  0  0  0  0  0  0  0  0  0  0  0
   16.2933   -0.8889    5.4319 H   0  0  0  0  0  0  0  0  0  0  0  0
   16.5343    1.0124    4.5165 C   0  0  0  0  0  0  0  0  0  0  0  0
   15.6406    1.4292    4.9583 H   0  0  0  0  0  0  0  0  0  0  0  0
   17.3196    1.8225    3.6681 C   0  0  0  0  0  0  0  0  0  0  0  0
   15.7269    3.7766    3.9179 C   0  0  0  0  0  0  0  0  0  0  0  0
   14.6554    3.9581    3.0602 C   0  0  0  0  0  0  0  0  0  0  0  0
   13.4837    4.5953    3.5112 C   0  0  0  0  0  0  0  0  0  0  0  0
   12.6648    4.7342    2.8196 H   0  0  0  0  0  0  0  0  0  0  0  0
   13.3888    5.0330    4.8006 C   0  0  0  0  0  0  0  0  0  0  0  0
   12.4887    5.5202    5.1444 H   0  0  0  0  0  0  0  0  0  0  0  0
   14.4551    4.8567    5.7069 C   0  0  0  0  0  0  0  0  0  0  0  0
   14.3767    5.2953    7.0445 C   0  0  0  0  0  0  0  0  0  0  0  0
   13.4659    5.7701    7.3792 H   0  0  0  0  0  0  0  0  0  0  0  0
   15.4292    5.1243    7.8992 C   0  0  0  0  0  0  0  0  0  0  0  0
   15.3613    5.4613    8.9226 H   0  0  0  0  0  0  0  0  0  0  0  0
   16.6100    4.5110    7.4522 C   0  0  0  0  0  0  0  0  0  0  0  0
   17.4348    4.3862    8.1378 H   0  0  0  0  0  0  0  0  0  0  0  0
   16.7198    4.0734    6.1625 C   0  0  0  0  0  0  0  0  0  0  0  0
   17.6279    3.5991    5.8195 H   0  0  0  0  0  0  0  0  0  0  0  0
   15.6463    4.2261    5.2583 C   0  0  0  0  0  0  0  0  0  0  0  0
  1  7  1  0  0  0  0
  1  4  1  0  0  0  0
  2  1  1  0  0  0  0
  3  1  1  0  0  0  0
  4 11  1  0  0  0  0
  4  6  1  0  0  0  0
  5  4  1  0  0  0  0
  7 27  1  0  0  0  0
  8  7  1  0  0  0  0
  9  7  1  0  0  0  0
 10 25  1  0  0  0  0
 10 26  1  0  0  0  0
 11 10  2  0  0  0  0
 12 14  2  0  0  0  0
 12 11  1  0  0  0  0
 13 12  1  0  0  0  0
 14 16  1  0  0  0  0
 15 14  1  0  0  0  0
 16 17  2  0  0  0  0
 16 25  1  0  0  0  0
 17 19  1  0  0  0  0
 18 17  1  0  0  0  0
 19 20  1  0  0  0  0
 19 21  2  0  0  0  0
 21 22  1  0  0  0  0
 23 21  1  0  0  0  0
 23 24  1  0  0  0  0
 25 23  2  0  0  0  0
 26 41  1  0  0  0  0
 27 28  1  0  0  0  0
 27 26  2  0  0  0  0
 28 30  2  0  0  0  0
 29 28  1  0  0  0  0
 30 31  1  0  0  0  0
 30 32  1  0  0  0  0
 32 33  1  0  0  0  0
 33 34  1  0  0  0  0
 33 35  2  0  0  0  0
 35 36  1  0  0  0  0
 37 35  1  0  0  0  0
 37 38  1  0  0  0  0
 39 37  2  0  0  0  0
 40 39  1  0  0  0  0
 41 32  2  0  0  0  0
 41 39  1  0  0  0  0
M  END
$$$$
