CSD_code = YURBIY | q = 0 | S = 0 | Stoichiometry = C12H11BCl3N6P3Ti | MND = 6
 OpenBabel04212202123D

 37 42  0  0  1  0  0  0  0  0999 V2000
    5.3648    2.5730    4.3789 Ti  0  0  0  0  0  0  0  0  0  0  0  0
    7.6992   -0.5914    2.0350 P   0  0  0  0  0  0  0  0  0  0  0  0
    7.3606    2.5736    5.2787 Cl  0  0  0  0  0  0  0  0  0  0  0  0
    4.5097    0.9535    5.5731 Cl  0  0  0  0  0  0  0  0  0  0  0  0
    1.3361    2.5728    2.2332 P   0  0  0  0  0  0  0  0  0  0  0  0
    3.8801    2.5729    1.7814 N   0  0  2  0  0  0  0  0  0  0  0  0
    3.7808    2.5729    3.1062 N   0  0  0  0  0  0  0  0  0  0  0  0
    2.6942    2.5729    1.1604 C   0  0  0  0  0  3  0  0  0  0  0  0
    2.6685    2.5729    0.0860 H   0  0  0  0  0  0  0  0  0  0  0  0
    6.0658    1.3690    1.6527 N   0  0  2  0  0  0  0  0  0  0  0  0
    6.0150    1.1577    2.9656 N   0  0  0  0  0  0  0  0  0  0  0  0
    2.5218    2.5728    3.5155 C   0  0  0  0  0  0  0  0  0  0  0  0
    2.3220    2.5728    4.5783 H   0  0  0  0  0  0  0  0  0  0  0  0
    5.0461    2.5730   -0.5036 C   0  0  0  0  0  0  0  0  0  0  0  0
    4.8742    3.7629   -1.2136 C   0  0  0  0  0  0  0  0  0  0  0  0
    4.9193    4.7080   -0.6917 H   0  0  0  0  0  0  0  0  0  0  0  0
    6.9210    0.5675    1.0097 C   0  0  0  0  0  3  0  0  0  0  0  0
    7.0673    0.7018   -0.0463 H   0  0  0  0  0  0  0  0  0  0  0  0
    5.2695    2.5730    1.0857 B   0  0  1  0  0  0  0  0  0  0  0  0
    4.6173    3.7672   -2.5734 C   0  0  0  0  0  0  0  0  0  0  0  0
    4.4981    4.7066   -3.0926 H   0  0  0  0  0  0  0  0  0  0  0  0
    6.7934    0.1501    3.3314 C   0  0  0  0  0  0  0  0  0  0  0  0
    6.8172   -0.1371    4.3733 H   0  0  0  0  0  0  0  0  0  0  0  0
    4.5043    2.5731   -3.2637 C   0  0  0  0  0  0  0  0  0  0  0  0
    4.3094    2.5732   -4.3254 H   0  0  0  0  0  0  0  0  0  0  0  0
    7.6993    5.7373    2.0348 P   0  0  0  0  0  0  0  0  0  0  0  0
    6.0658    3.7769    1.6526 N   0  0  1  0  0  0  0  0  0  0  0  0
    6.0152    3.9882    2.9655 N   0  0  0  0  0  0  0  0  0  0  0  0
    4.8742    1.3831   -1.2137 C   0  0  0  0  0  0  0  0  0  0  0  0
    4.9194    0.4381   -0.6918 H   0  0  0  0  0  0  0  0  0  0  0  0
    6.9210    4.5783    1.0096 C   0  0  0  0  0  3  0  0  0  0  0  0
    7.0673    4.4440   -0.0464 H   0  0  0  0  0  0  0  0  0  0  0  0
    4.6174    1.3790   -2.5735 C   0  0  0  0  0  0  0  0  0  0  0  0
    4.4982    0.4397   -3.0927 H   0  0  0  0  0  0  0  0  0  0  0  0
    6.7936    4.9958    3.3313 C   0  0  0  0  0  0  0  0  0  0  0  0
    6.8174    5.2831    4.3731 H   0  0  0  0  0  0  0  0  0  0  0  0
    4.5099    4.1929    5.5729 Cl  0  0  0  0  0  0  0  0  0  0  0  0
  1  3  1  0  0  0  0
  1 37  1  0  0  0  0
  1  4  1  0  0  0  0
  2 22  2  0  0  0  0
  5 12  2  0  0  0  0
  6  8  1  6  0  0  0
  6  7  1  0  0  0  0
  7 12  1  0  0  0  0
  7  1  1  0  0  0  0
  8  5  1  0  0  0  0
  9  8  1  0  0  0  0
 10 17  1  1  0  0  0
 10 11  1  0  0  0  0
 11 22  1  0  0  0  0
 11  1  1  0  0  0  0
 12 13  1  0  0  0  0
 15 16  1  0  0  0  0
 15 14  1  0  0  0  0
 17  2  1  0  0  0  0
 18 17  1  0  0  0  0
 19 14  1  6  0  0  0
 19 27  1  0  0  0  0
 19 10  1  0  0  0  0
 19  6  1  0  0  0  0
 20 15  2  0  0  0  0
 21 20  1  0  0  0  0
 22 23  1  0  0  0  0
 24 33  2  0  0  0  0
 24 20  1  0  0  0  0
 25 24  1  0  0  0  0
 26 35  2  0  0  0  0
 27 31  1  1  0  0  0
 27 28  1  0  0  0  0
 28 35  1  0  0  0  0
 28  1  1  0  0  0  0
 29 30  1  0  0  0  0
 29 14  2  0  0  0  0
 31 26  1  0  0  0  0
 32 31  1  0  0  0  0
 33 29  1  0  0  0  0
 34 33  1  0  0  0  0
 35 36  1  0  0  0  0
M  END
$$$$
