CSD_code = YURZIU | q = 1 | S = 0 | Stoichiometry = C12H16BrN4NiO(1+) | MND = 6
 OpenBabel04212202123D

 35 38  0  0  1  0  0  0  0  0999 V2000
    7.7246    1.4168    3.4642 Br  0  0  0  0  0  0  0  0  0  0  0  0
    8.4413    2.9664    1.5986 Ni  0  0  0  0  0  0  0  0  0  0  0  0
    9.6421    4.2699    0.0170 O   0  0  0  0  0  0  0  0  0  0  0  0
    7.0377    2.6595    0.3433 N   0  0  0  0  0  0  0  0  0  0  0  0
    7.3197    4.2186    2.2401 N   0  0  0  0  0  0  0  0  0  0  0  0
    9.2679    1.4317    0.6479 N   0  0  0  0  0  4  0  0  0  0  0  0
    9.7984    3.8972    3.0223 N   0  0  0  0  0  4  0  0  0  0  0  0
    7.1219    1.6038   -0.4595 C   0  0  2  0  0  3  0  0  0  0  0  0
    5.9777    1.0562   -1.0182 C   0  0  0  0  0  0  0  0  0  0  0  0
    4.7476    1.6170   -0.6893 C   0  0  0  0  0  0  0  0  0  0  0  0
    4.6745    2.6711    0.2092 C   0  0  0  0  0  0  0  0  0  0  0  0
    5.8614    3.1777    0.7282 C   0  0  0  0  0  0  0  0  0  0  0  0
    6.0511    4.1860    1.7684 C   0  0  1  0  0  3  0  0  0  0  0  0
    5.0773    5.0258    2.2927 C   0  0  0  0  0  0  0  0  0  0  0  0
    5.4241    5.9053    3.3054 C   0  0  0  0  0  0  0  0  0  0  0  0
    6.7345    5.9392    3.7566 C   0  0  0  0  0  0  0  0  0  0  0  0
    7.6683    5.0773    3.1951 C   0  0  0  0  0  0  0  0  0  0  0  0
    8.5424    1.1245   -0.6091 C   0  0  0  0  0  0  0  0  0  0  0  0
    9.1219    5.0763    3.5904 C   0  0  0  0  0  0  0  0  0  0  0  0
   10.3392    4.8724    0.2876 H   0  0  0  0  0  0  0  0  0  0  0  0
    9.1067    4.7267   -0.6382 H   0  0  0  0  0  0  0  0  0  0  0  0
    9.1255    0.6601    1.3086 H   0  0  0  0  0  0  0  0  0  0  0  0
   10.2684    1.4844    0.4619 H   0  0  0  0  0  0  0  0  0  0  0  0
   10.7858    4.0947    2.8804 H   0  0  0  0  0  0  0  0  0  0  0  0
    9.7502    3.1365    3.7076 H   0  0  0  0  0  0  0  0  0  0  0  0
    6.0400    0.2086   -1.6810 H   0  0  0  0  0  0  0  0  0  0  0  0
    3.8430    1.2055   -1.1084 H   0  0  0  0  0  0  0  0  0  0  0  0
    3.7215    3.0675    0.5176 H   0  0  0  0  0  0  0  0  0  0  0  0
    4.0693    4.9849    1.9147 H   0  0  0  0  0  0  0  0  0  0  0  0
    4.6830    6.5585    3.7375 H   0  0  0  0  0  0  0  0  0  0  0  0
    7.0354    6.6174    4.5386 H   0  0  0  0  0  0  0  0  0  0  0  0
    8.5769    0.0557   -0.8437 H   0  0  0  0  0  0  0  0  0  0  0  0
    9.0134    1.6748   -1.4305 H   0  0  0  0  0  0  0  0  0  0  0  0
    9.5765    5.9903    3.1923 H   0  0  0  0  0  0  0  0  0  0  0  0
    9.2088    5.1134    4.6827 H   0  0  0  0  0  0  0  0  0  0  0  0
  2  5  1  0  0  0  0
  2  7  1  0  0  0  0
  2  1  1  0  0  0  0
  3 20  1  0  0  0  0
  4 12  1  0  0  0  0
  4  2  1  0  0  0  0
  5 17  1  0  0  0  0
  6 22  1  0  0  0  0
  6  2  1  0  0  0  0
  7 19  1  0  0  0  0
  7 25  1  0  0  0  0
  8  9  1  1  0  0  0
  8  4  1  0  0  0  0
  9 10  2  0  0  0  0
 10 11  1  0  0  0  0
 11 28  1  0  0  0  0
 11 12  2  0  0  0  0
 13 12  1  1  0  0  0
 13  5  1  0  0  0  0
 13 14  1  0  0  0  0
 14 15  2  0  0  0  0
 15 30  1  0  0  0  0
 15 16  1  0  0  0  0
 16 31  1  0  0  0  0
 17 19  1  0  0  0  0
 17 16  2  0  0  0  0
 18  8  1  0  0  0  0
 18  6  1  0  0  0  0
 19 35  1  0  0  0  0
 21  3  1  0  0  0  0
 23  6  1  0  0  0  0
 24  7  1  0  0  0  0
 26  9  1  0  0  0  0
 27 10  1  0  0  0  0
 29 14  1  0  0  0  0
 32 18  1  0  0  0  0
 33 18  1  0  0  0  0
 34 19  1  0  0  0  0
M  END
$$$$
