CSD_code = YUSJUR | q = 0 | S = 0 | Stoichiometry = C16H13Cl3N3Re | MND = 6
 OpenBabel04212202123D

 36 39  0  0  0  0  0  0  0  0999 V2000
    0.0087    0.6147    7.2093 Re  0  0  0  0  0  0  0  0  0  0  0  0
    0.9890    1.8056    6.3743 N   0  0  0  0  0  2  0  0  0  0  0  0
   -1.0451   -0.8080    8.4739 N   0  0  0  0  0  0  0  0  0  0  0  0
    1.0209    0.7016    9.0183 N   0  0  0  0  0  0  0  0  0  0  0  0
    1.2277   -1.3365    6.6907 Cl  0  0  0  0  0  0  0  0  0  0  0  0
   -1.6482    2.0386    8.1011 Cl  0  0  0  0  0  0  0  0  0  0  0  0
   -1.3939    0.1535    5.4569 Cl  0  0  0  0  0  0  0  0  0  0  0  0
    1.6997    2.7203    5.7265 C   0  0  0  0  0  0  0  0  0  0  0  0
    3.0176    2.4447    5.3068 C   0  0  0  0  0  0  0  0  0  0  0  0
    3.7328    3.4027    4.6229 C   0  0  0  0  0  0  0  0  0  0  0  0
    3.1654    4.6392    4.3431 C   0  0  0  0  0  0  0  0  0  0  0  0
    1.8666    4.9188    4.7493 C   0  0  0  0  0  0  0  0  0  0  0  0
    1.1323    3.9794    5.4374 C   0  0  0  0  0  0  0  0  0  0  0  0
   -0.5653   -0.9322    9.7229 C   0  0  0  0  0  0  0  0  0  0  0  0
   -1.1631   -1.8005   10.6381 C   0  0  0  0  0  0  0  0  0  0  0  0
   -2.2616   -2.5427   10.2503 C   0  0  0  0  0  0  0  0  0  0  0  0
   -2.7411   -2.4039    8.9562 C   0  0  0  0  0  0  0  0  0  0  0  0
   -2.0990   -1.5230    8.1047 C   0  0  0  0  0  0  0  0  0  0  0  0
    0.5974   -0.1004   10.0229 C   0  0  0  0  0  0  0  0  0  0  0  0
    1.2454   -0.1200   11.2583 C   0  0  0  0  0  0  0  0  0  0  0  0
    2.3401    0.6888   11.4780 C   0  0  0  0  0  0  0  0  0  0  0  0
    2.7640    1.5133   10.4409 C   0  0  0  0  0  0  0  0  0  0  0  0
    2.0815    1.4863    9.2458 C   0  0  0  0  0  0  0  0  0  0  0  0
    3.4312    1.4722    5.5265 H   0  0  0  0  0  0  0  0  0  0  0  0
    4.7406    3.1873    4.3004 H   0  0  0  0  0  0  0  0  0  0  0  0
    3.7335    5.3826    3.8051 H   0  0  0  0  0  0  0  0  0  0  0  0
    1.4267    5.8788    4.5242 H   0  0  0  0  0  0  0  0  0  0  0  0
    0.1204    4.1664    5.7622 H   0  0  0  0  0  0  0  0  0  0  0  0
   -0.7770   -1.8936   11.6394 H   0  0  0  0  0  0  0  0  0  0  0  0
   -2.7355   -3.2182   10.9463 H   0  0  0  0  0  0  0  0  0  0  0  0
   -3.5944   -2.9628    8.6086 H   0  0  0  0  0  0  0  0  0  0  0  0
   -2.4363   -1.3780    7.0850 H   0  0  0  0  0  0  0  0  0  0  0  0
    0.8924   -0.7703   12.0410 H   0  0  0  0  0  0  0  0  0  0  0  0
    2.8509    0.6807   12.4276 H   0  0  0  0  0  0  0  0  0  0  0  0
    3.6130    2.1664   10.5583 H   0  0  0  0  0  0  0  0  0  0  0  0
    2.3894    2.1172    8.4240 H   0  0  0  0  0  0  0  0  0  0  0  0
  1  6  1  0  0  0  0
  1  3  1  0  0  0  0
  1  4  1  0  0  0  0
  2  1  1  0  0  0  0
  3 14  1  0  0  0  0
  4 23  1  0  0  0  0
  4 19  1  0  0  0  0
  5  1  1  0  0  0  0
  7  1  1  0  0  0  0
  8  2  1  0  0  0  0
  9 24  1  0  0  0  0
  9  8  2  0  0  0  0
 10  9  1  0  0  0  0
 11 10  2  0  0  0  0
 11 12  1  0  0  0  0
 12 13  2  0  0  0  0
 13  8  1  0  0  0  0
 13 28  1  0  0  0  0
 14 19  2  0  0  0  0
 14 15  1  0  0  0  0
 15 29  1  0  0  0  0
 16 15  2  0  0  0  0
 16 30  1  0  0  0  0
 17 16  1  0  0  0  0
 18  3  1  0  0  0  0
 18 17  2  0  0  0  0
 19 20  1  0  0  0  0
 20 21  2  0  0  0  0
 20 33  1  0  0  0  0
 21 34  1  0  0  0  0
 22 35  1  0  0  0  0
 22 21  1  0  0  0  0
 23 22  2  0  0  0  0
 25 10  1  0  0  0  0
 26 11  1  0  0  0  0
 27 12  1  0  0  0  0
 31 17  1  0  0  0  0
 32 18  1  0  0  0  0
 36 23  1  0  0  0  0
M  END
$$$$
