CSD_code = YUSKUU | q = 0 | S = 0 | Stoichiometry = C22H33Cl2N4PRu | MND = 6
 OpenBabel04212202123D

 63 66  0  0  1  0  0  0  0  0999 V2000
    1.5401    3.7510    3.2474 Ru  0  0  0  0  0  0  0  0  0  0  0  0
   -0.3841    2.3371    3.4725 Cl  0  0  0  0  0  0  0  0  0  0  0  0
    0.3140    5.3227    1.9330 Cl  0  0  0  0  0  0  0  0  0  0  0  0
    3.2982    2.6461    4.4084 P   0  0  0  0  0  4  0  0  0  0  0  0
    3.2840    4.7532    3.1275 C   0  0  1  0  0  3  0  0  0  0  0  0
    4.2340    3.9359    3.6859 N   0  0  0  0  0  0  0  0  0  0  0  0
    5.4813    4.4957    3.5392 C   0  0  0  0  0  0  0  0  0  0  0  0
    6.3903    4.0348    3.8699 H   0  0  0  0  0  0  0  0  0  0  0  0
    5.3008    5.6705    2.8928 C   0  0  0  0  0  0  0  0  0  0  0  0
    6.0134    6.4084    2.5834 H   0  0  0  0  0  0  0  0  0  0  0  0
    3.9509    5.8160    2.6518 N   0  0  0  0  0  0  0  0  0  0  0  0
    3.3485    6.9418    1.9876 C   0  0  0  0  0  0  0  0  0  0  0  0
    2.2943    6.7084    1.8056 H   0  0  0  0  0  0  0  0  0  0  0  0
    3.8494    7.1341    1.0375 H   0  0  0  0  0  0  0  0  0  0  0  0
    3.4234    7.8371    2.6090 H   0  0  0  0  0  0  0  0  0  0  0  0
    3.8004    2.8739    6.2356 C   0  0  0  0  0  0  0  0  0  0  0  0
    2.9209    1.9047    7.0237 C   0  0  0  0  0  0  0  0  0  0  0  0
    1.8803    2.0097    6.7198 H   0  0  0  0  0  0  0  0  0  0  0  0
    2.9922    2.1059    8.0917 H   0  0  0  0  0  0  0  0  0  0  0  0
    3.2225    0.8736    6.8515 H   0  0  0  0  0  0  0  0  0  0  0  0
    3.4325    4.3163    6.5956 C   0  0  0  0  0  0  0  0  0  0  0  0
    4.0948    5.0230    6.0968 H   0  0  0  0  0  0  0  0  0  0  0  0
    3.5285    4.4644    7.6706 H   0  0  0  0  0  0  0  0  0  0  0  0
    2.4092    4.5435    6.3148 H   0  0  0  0  0  0  0  0  0  0  0  0
    5.2761    2.6855    6.5905 C   0  0  0  0  0  0  0  0  0  0  0  0
    5.9263    3.1455    5.8519 H   0  0  0  0  0  0  0  0  0  0  0  0
    5.5474    1.6428    6.7026 H   0  0  0  0  0  0  0  0  0  0  0  0
    5.4681    3.1743    7.5455 H   0  0  0  0  0  0  0  0  0  0  0  0
    4.0525    1.0314    3.7424 C   0  0  0  0  0  0  0  0  0  0  0  0
    4.4884    1.3122    2.3031 C   0  0  0  0  0  0  0  0  0  0  0  0
    3.7212    1.8639    1.7652 H   0  0  0  0  0  0  0  0  0  0  0  0
    4.6648    0.3744    1.7783 H   0  0  0  0  0  0  0  0  0  0  0  0
    5.4105    1.8918    2.2832 H   0  0  0  0  0  0  0  0  0  0  0  0
    2.8553    0.0750    3.7666 C   0  0  0  0  0  0  0  0  0  0  0  0
    1.9568    0.5759    3.4070 H   0  0  0  0  0  0  0  0  0  0  0  0
    2.6559   -0.2647    4.7814 H   0  0  0  0  0  0  0  0  0  0  0  0
    3.0443   -0.7986    3.1452 H   0  0  0  0  0  0  0  0  0  0  0  0
    5.2277    0.3858    4.4695 C   0  0  0  0  0  0  0  0  0  0  0  0
    4.9572    0.0632    5.4705 H   0  0  0  0  0  0  0  0  0  0  0  0
    6.0876    1.0482    4.5184 H   0  0  0  0  0  0  0  0  0  0  0  0
    5.5245   -0.5025    3.9111 H   0  0  0  0  0  0  0  0  0  0  0  0
    0.7654    4.7837    4.8366 N   0  0  0  0  0  0  0  0  0  0  0  0
    0.7161    6.1183    4.7735 C   0  0  0  0  0  3  0  0  0  0  0  0
    1.3846    6.5935    4.0697 H   0  0  0  0  0  0  0  0  0  0  0  0
   -0.1370    6.8802    5.5505 C   0  0  0  0  0  0  0  0  0  0  0  0
   -0.1414    7.9530    5.4395 H   0  0  0  0  0  0  0  0  0  0  0  0
   -0.9843    6.2479    6.4466 C   0  0  0  0  0  0  0  0  0  0  0  0
   -1.6765    6.8123    7.0526 H   0  0  0  0  0  0  0  0  0  0  0  0
   -0.9063    4.8682    6.5461 C   0  0  0  0  0  0  0  0  0  0  0  0
   -1.5289    4.3202    7.2355 H   0  0  0  0  0  0  0  0  0  0  0  0
   -0.0224    4.1809    5.7344 C   0  0  0  0  0  0  0  0  0  0  0  0
    0.0455    3.1025    5.7928 H   0  0  0  0  0  0  0  0  0  0  0  0
    1.8165    2.9033    1.3304 N   0  0  0  0  0  0  0  0  0  0  0  0
    1.1464    1.8162    0.9375 C   0  0  0  0  0  3  0  0  0  0  0  0
    0.7544    1.1750    1.7149 H   0  0  0  0  0  0  0  0  0  0  0  0
    0.9085    1.5063   -0.3903 C   0  0  0  0  0  0  0  0  0  0  0  0
    0.3420    0.6210   -0.6320 H   0  0  0  0  0  0  0  0  0  0  0  0
    1.3879    2.3460   -1.3805 C   0  0  0  0  0  0  0  0  0  0  0  0
    1.2058    2.1427   -2.4248 H   0  0  0  0  0  0  0  0  0  0  0  0
    2.1124    3.4582   -0.9826 C   0  0  0  0  0  0  0  0  0  0  0  0
    2.5187    4.1487   -1.7049 H   0  0  0  0  0  0  0  0  0  0  0  0
    2.2982    3.6961    0.3656 C   0  0  0  0  0  0  0  0  0  0  0  0
    2.8603    4.5620    0.6825 H   0  0  0  0  0  0  0  0  0  0  0  0
  1  2  1  0  0  0  0
  1  4  1  0  0  0  0
  1 42  1  0  0  0  0
  3  1  1  0  0  0  0
  4 16  1  0  0  0  0
  5 11  1  6  0  0  0
  5  1  1  0  0  0  0
  5  6  1  0  0  0  0
  6  4  1  0  0  0  0
  7  6  1  0  0  0  0
  7  8  1  0  0  0  0
  9  7  2  0  0  0  0
 10  9  1  0  0  0  0
 11  9  1  0  0  0  0
 12 15  1  0  0  0  0
 12 11  1  0  0  0  0
 13 12  1  0  0  0  0
 14 12  1  0  0  0  0
 16 25  1  0  0  0  0
 16 21  1  0  0  0  0
 16 17  1  0  0  0  0
 17 19  1  0  0  0  0
 18 17  1  0  0  0  0
 20 17  1  0  0  0  0
 21 23  1  0  0  0  0
 22 21  1  0  0  0  0
 24 21  1  0  0  0  0
 25 27  1  0  0  0  0
 25 28  1  0  0  0  0
 26 25  1  0  0  0  0
 29 34  1  0  0  0  0
 29  4  1  0  0  0  0
 29 38  1  0  0  0  0
 30 29  1  0  0  0  0
 31 30  1  0  0  0  0
 32 30  1  0  0  0  0
 33 30  1  0  0  0  0
 34 36  1  0  0  0  0
 35 34  1  0  0  0  0
 37 34  1  0  0  0  0
 38 40  1  0  0  0  0
 38 39  1  0  0  0  0
 41 38  1  0  0  0  0
 42 51  1  0  0  0  0
 43 42  1  0  0  0  0
 43 45  1  0  0  0  0
 44 43  1  0  0  0  0
 45 47  2  0  0  0  0
 46 45  1  0  0  0  0
 47 49  1  0  0  0  0
 47 48  1  0  0  0  0
 49 50  1  0  0  0  0
 51 52  1  0  0  0  0
 51 49  2  0  0  0  0
 53  1  1  0  0  0  0
 54 53  1  0  0  0  0
 54 55  1  0  0  0  0
 56 54  1  0  0  0  0
 57 56  1  0  0  0  0
 58 60  1  0  0  0  0
 58 56  2  0  0  0  0
 59 58  1  0  0  0  0
 60 62  2  0  0  0  0
 61 60  1  0  0  0  0
 62 63  1  0  0  0  0
 62 53  1  0  0  0  0
M  END
$$$$
