CSD_code = YUSLOP | q = 0 | S = 0 | Stoichiometry = C18H37Cl2N2PRuSi | MND = 5
 OpenBabel04212202123D

 62 63  0  0  1  0  0  0  0  0999 V2000
    3.1725    5.3876   11.7686 Ru  0  0  0  0  0  0  0  0  0  0  0  0
    5.1078    6.6848   11.7046 Cl  0  0  0  0  0  0  0  0  0  0  0  0
    4.1887    3.8591   13.0988 Cl  0  0  0  0  0  0  0  0  0  0  0  0
    1.6244    7.0725   11.7909 P   0  0  0  0  0  4  0  0  0  0  0  0
    1.3312    4.6806   12.1476 C   0  0  2  0  0  3  0  0  0  0  0  0
    0.5055    5.7747   12.1373 N   0  0  0  0  0  0  0  0  0  0  0  0
   -0.7813    5.3866   12.4282 C   0  0  0  0  0  0  0  0  0  0  0  0
   -1.6132    6.0609   12.4710 H   0  0  0  0  0  0  0  0  0  0  0  0
   -0.7414    4.0468   12.6155 C   0  0  0  0  0  0  0  0  0  0  0  0
   -1.5325    3.3680   12.8591 H   0  0  0  0  0  0  0  0  0  0  0  0
    0.5614    3.6310   12.4399 N   0  0  0  0  0  0  0  0  0  0  0  0
    1.0514    2.2692   12.5433 C   0  0  0  0  0  0  0  0  0  0  0  0
    2.1241    2.3321   12.3207 H   0  0  0  0  0  0  0  0  0  0  0  0
    0.3621    1.3816   11.5110 C   0  0  0  0  0  0  0  0  0  0  0  0
   -0.6999    1.2804   11.7260 H   0  0  0  0  0  0  0  0  0  0  0  0
    0.8111    0.3930   11.5230 H   0  0  0  0  0  0  0  0  0  0  0  0
    0.4812    1.8020   10.5149 H   0  0  0  0  0  0  0  0  0  0  0  0
    0.8676    1.7506   13.9665 C   0  0  0  0  0  0  0  0  0  0  0  0
    1.3854    2.4020   14.6664 H   0  0  0  0  0  0  0  0  0  0  0  0
    1.2933    0.7552   14.0496 H   0  0  0  0  0  0  0  0  0  0  0  0
   -0.1860    1.7023   14.2359 H   0  0  0  0  0  0  0  0  0  0  0  0
    0.8325    8.0218   10.3717 C   0  0  0  0  0  0  0  0  0  0  0  0
   -0.3596    8.8951   10.7407 C   0  0  0  0  0  0  0  0  0  0  0  0
   -0.8159    9.2787    9.8286 H   0  0  0  0  0  0  0  0  0  0  0  0
   -0.0569    9.7487   11.3417 H   0  0  0  0  0  0  0  0  0  0  0  0
   -1.1139    8.3256   11.2797 H   0  0  0  0  0  0  0  0  0  0  0  0
    1.9754    8.8443    9.7739 C   0  0  0  0  0  0  0  0  0  0  0  0
    2.8558    8.2106    9.6462 H   0  0  0  0  0  0  0  0  0  0  0  0
    2.2460    9.6808   10.4133 H   0  0  0  0  0  0  0  0  0  0  0  0
    1.6884    9.2393    8.8009 H   0  0  0  0  0  0  0  0  0  0  0  0
    0.4146    6.9519    9.3632 C   0  0  0  0  0  0  0  0  0  0  0  0
    0.1301    7.4186    8.4220 H   0  0  0  0  0  0  0  0  0  0  0  0
   -0.4309    6.3697    9.7263 H   0  0  0  0  0  0  0  0  0  0  0  0
    1.2540    6.2794    9.1754 H   0  0  0  0  0  0  0  0  0  0  0  0
    1.6602    8.0008   13.4294 C   0  0  0  0  0  0  0  0  0  0  0  0
    2.5624    9.2165   13.2236 C   0  0  0  0  0  0  0  0  0  0  0  0
    2.0614    9.9911   12.6460 H   0  0  0  0  0  0  0  0  0  0  0  0
    3.4753    8.9176   12.7033 H   0  0  0  0  0  0  0  0  0  0  0  0
    2.8439    9.6425   14.1856 H   0  0  0  0  0  0  0  0  0  0  0  0
    2.3486    7.0221   14.3898 C   0  0  0  0  0  0  0  0  0  0  0  0
    2.5260    7.5034   15.3509 H   0  0  0  0  0  0  0  0  0  0  0  0
    3.3250    6.7078   13.9967 H   0  0  0  0  0  0  0  0  0  0  0  0
    1.7340    6.1360   14.5662 H   0  0  0  0  0  0  0  0  0  0  0  0
    0.2986    8.3849   14.0021 C   0  0  0  0  0  0  0  0  0  0  0  0
    0.4391    8.7781   15.0086 H   0  0  0  0  0  0  0  0  0  0  0  0
   -0.3550    7.5173   14.0725 H   0  0  0  0  0  0  0  0  0  0  0  0
   -0.1948    9.1516   13.4136 H   0  0  0  0  0  0  0  0  0  0  0  0
    3.0217    4.6821   10.0063 C   0  0  0  0  0  3  0  0  0  0  0  0
    2.1043    4.2331    9.6061 H   0  0  0  0  0  0  0  0  0  0  0  0
    4.5645    4.4842    8.9245 Si  0  0  0  0  0  0  0  0  0  0  0  0
    5.9717    3.6543    9.9088 C   0  0  0  0  0  0  0  0  0  0  0  0
    6.8713    3.5549    9.3076 H   0  0  0  0  0  0  0  0  0  0  0  0
    5.6841    2.6650   10.2568 H   0  0  0  0  0  0  0  0  0  0  0  0
    6.2178    4.2502   10.7835 H   0  0  0  0  0  0  0  0  0  0  0  0
    5.0926    6.1703    8.1888 C   0  0  0  0  0  0  0  0  0  0  0  0
    5.3298    6.8743    8.9793 H   0  0  0  0  0  0  0  0  0  0  0  0
    4.3117    6.6044    7.5702 H   0  0  0  0  0  0  0  0  0  0  0  0
    5.9780    6.0515    7.5717 H   0  0  0  0  0  0  0  0  0  0  0  0
    4.0545    3.3514    7.4680 C   0  0  0  0  0  0  0  0  0  0  0  0
    3.2512    3.7873    6.8830 H   0  0  0  0  0  0  0  0  0  0  0  0
    3.7248    2.3761    7.8100 H   0  0  0  0  0  0  0  0  0  0  0  0
    4.8963    3.1980    6.8025 H   0  0  0  0  0  0  0  0  0  0  0  0
  1  4  1  0  0  0  0
  1  5  1  0  0  0  0
  1  3  1  0  0  0  0
  2  1  1  0  0  0  0
  4  6  1  0  0  0  0
  4 35  1  0  0  0  0
  5  6  1  1  0  0  0
  5 11  1  0  0  0  0
  6  7  1  0  0  0  0
  7  8  1  0  0  0  0
  7  9  2  0  0  0  0
  9 10  1  0  0  0  0
 11 12  1  0  0  0  0
 11  9  1  0  0  0  0
 12 18  1  0  0  0  0
 13 12  1  0  0  0  0
 14 16  1  0  0  0  0
 14 15  1  0  0  0  0
 14 12  1  0  0  0  0
 17 14  1  0  0  0  0
 18 20  1  0  0  0  0
 18 21  1  0  0  0  0
 18 19  1  0  0  0  0
 22 23  1  0  0  0  0
 22  4  1  0  0  0  0
 23 26  1  0  0  0  0
 23 25  1  0  0  0  0
 24 23  1  0  0  0  0
 27 22  1  0  0  0  0
 27 29  1  0  0  0  0
 28 27  1  0  0  0  0
 30 27  1  0  0  0  0
 31 33  1  0  0  0  0
 31 22  1  0  0  0  0
 32 31  1  0  0  0  0
 34 31  1  0  0  0  0
 35 44  1  0  0  0  0
 35 40  1  0  0  0  0
 36 35  1  0  0  0  0
 36 39  1  0  0  0  0
 37 36  1  0  0  0  0
 38 36  1  0  0  0  0
 40 43  1  0  0  0  0
 40 41  1  0  0  0  0
 42 40  1  0  0  0  0
 44 46  1  0  0  0  0
 44 45  1  0  0  0  0
 47 44  1  0  0  0  0
 48  1  1  0  0  0  0
 49 48  1  0  0  0  0
 50 51  1  0  0  0  0
 50 48  1  0  0  0  0
 51 53  1  0  0  0  0
 51 54  1  0  0  0  0
 52 51  1  0  0  0  0
 55 50  1  0  0  0  0
 55 56  1  0  0  0  0
 57 55  1  0  0  0  0
 58 55  1  0  0  0  0
 59 61  1  0  0  0  0
 59 50  1  0  0  0  0
 60 59  1  0  0  0  0
 62 59  1  0  0  0  0
M  END
$$$$
