CSD_code = YUTNOS | q = 0 | S = 0 | Stoichiometry = C15H16Cl2HgN2 | MND = 4
 OpenBabel04212202123D

 36 36  0  0  1  0  0  0  0  0999 V2000
    4.1853    5.7797   -0.0054 Hg  0  0  0  0  0  0  0  0  0  0  0  0
    2.8218    3.9648    0.1728 Cl  0  0  0  0  0  0  0  0  0  0  0  0
    4.4910    7.9529   -0.6661 Cl  0  0  0  0  0  0  0  0  0  0  0  0
    5.3020    6.2289    2.2243 N   0  0  0  0  0  0  0  0  0  0  0  0
    4.7227    6.7696    3.2813 C   0  0  0  0  0  0  0  0  0  0  0  0
    3.6404    6.7513    3.2923 H   0  0  0  0  0  0  0  0  0  0  0  0
    5.4374    7.3321    4.3315 C   0  0  0  0  0  0  0  0  0  0  0  0
    4.9181    7.7638    5.1720 H   0  0  0  0  0  0  0  0  0  0  0  0
    6.8209    7.3292    4.2666 C   0  0  0  0  0  0  0  0  0  0  0  0
    7.4129    7.7623    5.0591 H   0  0  0  0  0  0  0  0  0  0  0  0
    7.4323    6.7602    3.1622 C   0  0  0  0  0  0  0  0  0  0  0  0
    8.5078    6.7361    3.0742 H   0  0  0  0  0  0  0  0  0  0  0  0
    6.6379    6.2159    2.1543 C   0  0  0  0  0  0  0  0  0  0  0  0
    7.2518    5.6055    0.9781 C   0  0  0  0  0  0  0  0  0  0  0  0
    8.3441    5.6639    0.9156 H   0  0  0  0  0  0  0  0  0  0  0  0
    6.5551    5.0361    0.0909 N   0  0  0  0  0  0  0  0  0  0  0  0
    7.1522    4.4637   -1.0893 C   0  0  1  0  0  0  0  0  0  0  0  0
    8.2385    4.6536   -1.1093 H   0  0  0  0  0  0  0  0  0  0  0  0
    6.8949    2.9564   -1.0818 C   0  0  0  0  0  0  0  0  0  0  0  0
    7.1027    2.5399   -2.0636 H   0  0  0  0  0  0  0  0  0  0  0  0
    5.8615    2.7541   -0.8114 H   0  0  0  0  0  0  0  0  0  0  0  0
    7.5378    2.4762   -0.3475 H   0  0  0  0  0  0  0  0  0  0  0  0
    6.4911    5.1964   -2.2411 C   0  0  0  0  0  0  0  0  0  0  0  0
    7.0844    6.3481   -2.7439 C   0  0  0  0  0  0  0  0  0  0  0  0
    8.0449    6.6661   -2.3625 H   0  0  0  0  0  0  0  0  0  0  0  0
    6.4554    7.0973   -3.7189 C   0  0  0  0  0  0  0  0  0  0  0  0
    6.9292    7.9943   -4.0902 H   0  0  0  0  0  0  0  0  0  0  0  0
    5.2093    6.7272   -4.2105 C   0  0  0  0  0  0  0  0  0  0  0  0
    4.6244    5.5667   -3.7201 C   0  0  0  0  0  0  0  0  0  0  0  0
    3.6662    5.2472   -4.1049 H   0  0  0  0  0  0  0  0  0  0  0  0
    5.2482    4.8076   -2.7410 C   0  0  0  0  0  0  0  0  0  0  0  0
    4.7886    3.8813   -2.4213 H   0  0  0  0  0  0  0  0  0  0  0  0
    4.5072    7.5790   -5.2201 C   0  0  0  0  0  0  0  0  0  0  0  0
    3.7349    7.0163   -5.7387 H   0  0  0  0  0  0  0  0  0  0  0  0
    5.2093    7.9786   -5.9491 H   0  0  0  0  0  0  0  0  0  0  0  0
    4.0342    8.4205   -4.7133 H   0  0  0  0  0  0  0  0  0  0  0  0
  1  2  1  0  0  0  0
  3  1  1  0  0  0  0
  4  5  1  0  0  0  0
  5  6  1  0  0  0  0
  5  7  2  0  0  0  0
  7  8  1  0  0  0  0
  9  7  1  0  0  0  0
  9 10  1  0  0  0  0
 11  9  2  0  0  0  0
 12 11  1  0  0  0  0
 13  4  2  0  0  0  0
 13 11  1  0  0  0  0
 14 13  1  0  0  0  0
 15 14  1  0  0  0  0
 16 14  2  0  0  0  0
 17 18  1  6  0  0  0
 17 19  1  0  0  0  0
 17 16  1  0  0  0  0
 19 21  1  0  0  0  0
 19 22  1  0  0  0  0
 20 19  1  0  0  0  0
 23 17  1  0  0  0  0
 24 25  1  0  0  0  0
 24 23  2  0  0  0  0
 26 24  1  0  0  0  0
 27 26  1  0  0  0  0
 28 29  1  0  0  0  0
 28 26  2  0  0  0  0
 29 31  2  0  0  0  0
 30 29  1  0  0  0  0
 31 32  1  0  0  0  0
 31 23  1  0  0  0  0
 33 36  1  0  0  0  0
 33 28  1  0  0  0  0
 34 33  1  0  0  0  0
 35 33  1  0  0  0  0
M  END
$$$$
