CSD_code = YUVHAA | q = 0 | S = 0 | Stoichiometry = C17H26Cl2FeN4 | MND = 5
 OpenBabel04212202123D

 50 53  0  0  1  0  0  0  0  0999 V2000
    0.9266    3.6738    2.2123 Fe  0  0  0  0  0  0  0  0  0  0  0  0
   -0.0236    4.2229    0.4003 Cl  0  0  0  0  0  0  0  0  0  0  0  0
   -0.2889    4.7436    3.6214 Cl  0  0  0  0  0  0  0  0  0  0  0  0
    2.3391    6.2630    1.5894 N   0  0  0  0  0  0  0  0  0  0  0  0
    2.1991    5.0782    2.1681 N   0  0  0  0  0  0  0  0  0  0  0  0
    2.0103    3.0518    3.5034 N   0  0  0  0  0  0  0  0  0  0  0  0
   -0.1109    1.7969    2.5149 N   0  0  0  0  0  4  0  0  0  0  0  0
    3.4421    6.9110    2.0321 C   0  0  2  0  0  3  0  0  0  0  0  0
    4.0413    6.0786    2.9555 C   0  0  0  0  0  0  0  0  0  0  0  0
    3.2230    4.9363    3.0256 C   0  0  0  0  0  0  0  0  0  0  0  0
    3.1634    3.7166    3.7850 C   0  0  2  0  0  3  0  0  0  0  0  0
    4.0884    3.2110    4.6872 C   0  0  0  0  0  0  0  0  0  0  0  0
    3.8207    2.0076    5.3152 C   0  0  0  0  0  0  0  0  0  0  0  0
    2.6221    1.3472    5.0382 C   0  0  0  0  0  0  0  0  0  0  0  0
    1.7378    1.9039    4.1386 C   0  0  0  0  0  0  0  0  0  0  0  0
    0.3721    1.3513    3.8315 C   0  0  0  0  0  0  0  0  0  0  0  0
    3.8072    8.2794    1.5354 C   0  0  0  0  0  0  0  0  0  0  0  0
    3.9220    8.2520    0.0052 C   0  0  0  0  0  0  0  0  0  0  0  0
    2.7090    9.2648    1.9585 C   0  0  0  0  0  0  0  0  0  0  0  0
    5.1444    8.7144    2.1384 C   0  0  0  0  0  0  0  0  0  0  0  0
    0.3482    0.9137    1.4364 C   0  0  0  0  0  0  0  0  0  0  0  0
    1.8250    1.1089    1.1039 C   0  0  0  0  0  0  0  0  0  0  0  0
   -1.5724    1.9523    2.4947 C   0  0  0  0  0  0  0  0  0  0  0  0
   -2.3731    0.6750    2.7346 C   0  0  0  0  0  0  0  0  0  0  0  0
    1.6446    6.5644    0.9225 H   0  0  0  0  0  0  0  0  0  0  0  0
    4.9331    6.2592    3.5173 H   0  0  0  0  0  0  0  0  0  0  0  0
    4.9949    3.7592    4.8874 H   0  0  0  0  0  0  0  0  0  0  0  0
    4.5201    1.5881    6.0204 H   0  0  0  0  0  0  0  0  0  0  0  0
    2.3782    0.4199    5.5330 H   0  0  0  0  0  0  0  0  0  0  0  0
   -0.3049    1.7651    4.5851 H   0  0  0  0  0  0  0  0  0  0  0  0
    0.3670    0.2566    3.9149 H   0  0  0  0  0  0  0  0  0  0  0  0
    2.9742    7.9901   -0.4583 H   0  0  0  0  0  0  0  0  0  0  0  0
    4.6706    7.5272   -0.3074 H   0  0  0  0  0  0  0  0  0  0  0  0
    4.2190    9.2319   -0.3609 H   0  0  0  0  0  0  0  0  0  0  0  0
    2.6028    9.2706    3.0407 H   0  0  0  0  0  0  0  0  0  0  0  0
    1.7500    8.9943    1.5238 H   0  0  0  0  0  0  0  0  0  0  0  0
    2.9636   10.2696    1.6301 H   0  0  0  0  0  0  0  0  0  0  0  0
    5.9342    8.0203    1.8615 H   0  0  0  0  0  0  0  0  0  0  0  0
    5.0795    8.7574    3.2224 H   0  0  0  0  0  0  0  0  0  0  0  0
    5.4116    9.7026    1.7722 H   0  0  0  0  0  0  0  0  0  0  0  0
    0.1704   -0.1393    1.6977 H   0  0  0  0  0  0  0  0  0  0  0  0
   -0.2360    1.1564    0.5454 H   0  0  0  0  0  0  0  0  0  0  0  0
    2.0863    0.4951    0.2453 H   0  0  0  0  0  0  0  0  0  0  0  0
    2.4651    0.8280    1.9373 H   0  0  0  0  0  0  0  0  0  0  0  0
    2.0184    2.1566    0.8422 H   0  0  0  0  0  0  0  0  0  0  0  0
   -1.8251    2.6989    3.2509 H   0  0  0  0  0  0  0  0  0  0  0  0
   -1.8373    2.3753    1.5228 H   0  0  0  0  0  0  0  0  0  0  0  0
   -3.4314    0.9207    2.7266 H   0  0  0  0  0  0  0  0  0  0  0  0
   -2.1377    0.2330    3.7000 H   0  0  0  0  0  0  0  0  0  0  0  0
   -2.1939   -0.0631    1.9562 H   0  0  0  0  0  0  0  0  0  0  0  0
  1  7  1  0  0  0  0
  1  6  1  0  0  0  0
  1  3  1  0  0  0  0
  2  1  1  0  0  0  0
  4  8  1  0  0  0  0
  4  5  1  0  0  0  0
  5  1  1  0  0  0  0
  5 10  1  0  0  0  0
  6 11  1  0  0  0  0
  6 15  1  0  0  0  0
  7 16  1  0  0  0  0
  8 17  1  1  0  0  0
  8  9  1  0  0  0  0
  9 10  2  0  0  0  0
  9 26  1  0  0  0  0
 11 10  1  6  0  0  0
 11 12  1  0  0  0  0
 12 27  1  0  0  0  0
 12 13  2  0  0  0  0
 13 28  1  0  0  0  0
 14 13  1  0  0  0  0
 14 29  1  0  0  0  0
 15 14  2  0  0  0  0
 16 31  1  0  0  0  0
 16 15  1  0  0  0  0
 16 30  1  0  0  0  0
 17 19  1  0  0  0  0
 17 20  1  0  0  0  0
 18 17  1  0  0  0  0
 19 35  1  0  0  0  0
 20 39  1  0  0  0  0
 21 41  1  0  0  0  0
 21  7  1  0  0  0  0
 22 21  1  0  0  0  0
 22 44  1  0  0  0  0
 23  7  1  0  0  0  0
 23 24  1  0  0  0  0
 23 46  1  0  0  0  0
 24 49  1  0  0  0  0
 25  4  1  0  0  0  0
 32 18  1  0  0  0  0
 33 18  1  0  0  0  0
 34 18  1  0  0  0  0
 36 19  1  0  0  0  0
 37 19  1  0  0  0  0
 38 20  1  0  0  0  0
 40 20  1  0  0  0  0
 42 21  1  0  0  0  0
 43 22  1  0  0  0  0
 45 22  1  0  0  0  0
 47 23  1  0  0  0  0
 48 24  1  0  0  0  0
 50 24  1  0  0  0  0
M  END
$$$$
