CSD_code = YUVQAJ | q = 0 | S = 0 | Stoichiometry = C14H18Br2N4Zn | MND = 4
 OpenBabel04212202123D

 39 41  0  0  0  0  0  0  0  0999 V2000
    4.4419    4.8851    9.8081 Zn  0  0  0  0  0  0  0  0  0  0  0  0
    2.8089    3.3046    9.2024 Br  0  0  0  0  0  0  0  0  0  0  0  0
    6.0534    4.9747   11.5674 Br  0  0  0  0  0  0  0  0  0  0  0  0
    3.6548    6.8210   10.0845 N   0  0  0  0  0  0  0  0  0  0  0  0
    4.3030    8.4192   11.6800 N   0  0  0  0  0  0  0  0  0  0  0  0
    2.8354    6.7091   12.2313 N   0  0  0  0  0  0  0  0  0  0  0  0
    5.0878    5.7776    8.0105 N   0  0  0  0  0  0  0  0  0  0  0  0
    3.5962    7.3254   11.3048 C   0  0  0  0  0  3  0  0  0  0  0  0
    5.5358    8.7966   11.0330 C   0  0  0  0  0  0  0  0  0  0  0  0
    5.9500    7.9501   10.4912 H   0  0  0  0  0  0  0  0  0  0  0  0
    6.2537    9.0897   11.8008 H   0  0  0  0  0  0  0  0  0  0  0  0
    5.3933    9.6310   10.3382 H   0  0  0  0  0  0  0  0  0  0  0  0
    3.8614    9.3219   12.7163 C   0  0  0  0  0  0  0  0  0  0  0  0
    2.8365    9.0975   12.9985 H   0  0  0  0  0  0  0  0  0  0  0  0
    3.8993   10.3426   12.3255 H   0  0  0  0  0  0  0  0  0  0  0  0
    4.5018    9.2715   13.6004 H   0  0  0  0  0  0  0  0  0  0  0  0
    1.7763    5.8093   11.8311 C   0  0  0  0  0  0  0  0  0  0  0  0
    1.4452    6.0462   10.8227 H   0  0  0  0  0  0  0  0  0  0  0  0
    0.9393    5.9321   12.5205 H   0  0  0  0  0  0  0  0  0  0  0  0
    2.0941    4.7631   11.8630 H   0  0  0  0  0  0  0  0  0  0  0  0
    3.2782    6.5397   13.6002 C   0  0  0  0  0  0  0  0  0  0  0  0
    4.2928    6.9080   13.7190 H   0  0  0  0  0  0  0  0  0  0  0  0
    3.2865    5.4739   13.8370 H   0  0  0  0  0  0  0  0  0  0  0  0
    2.6090    7.0450   14.3001 H   0  0  0  0  0  0  0  0  0  0  0  0
    3.8650    7.5924    8.9680 C   0  0  0  0  0  0  0  0  0  0  0  0
    3.3347    8.8632    8.8147 C   0  0  0  0  0  0  0  0  0  0  0  0
    2.7672    9.2963    9.6258 H   0  0  0  0  0  0  0  0  0  0  0  0
    3.4918    9.5765    7.6262 C   0  0  0  0  0  0  0  0  0  0  0  0
    3.0593   10.5632    7.5498 H   0  0  0  0  0  0  0  0  0  0  0  0
    4.1762    9.0436    6.5660 C   0  0  0  0  0  3  0  0  0  0  0  0
    4.2993    9.5952    5.6468 H   0  0  0  0  0  0  0  0  0  0  0  0
    4.7245    7.7519    6.6655 C   0  0  0  0  0  0  0  0  0  0  0  0
    4.5704    7.0168    7.8708 C   0  0  0  0  0  0  0  0  0  0  0  0
    5.4316    7.1335    5.6142 C   0  0  0  0  0  0  0  0  0  0  0  0
    5.5578    7.6648    4.6819 H   0  0  0  0  0  0  0  0  0  0  0  0
    5.9406    5.8749    5.7879 C   0  0  0  0  0  0  0  0  0  0  0  0
    6.4843    5.3710    5.0052 H   0  0  0  0  0  0  0  0  0  0  0  0
    5.7405    5.2293    7.0137 C   0  0  0  0  0  0  0  0  0  0  0  0
    6.1264    4.2318    7.1776 H   0  0  0  0  0  0  0  0  0  0  0  0
  1  4  1  0  0  0  0
  1  3  1  0  0  0  0
  2  1  1  0  0  0  0
  4  8  1  0  0  0  0
  5 13  1  0  0  0  0
  6 21  1  0  0  0  0
  7  1  1  0  0  0  0
  8  5  1  0  0  0  0
  8  6  1  0  0  0  0
  9  5  1  0  0  0  0
  9 11  1  0  0  0  0
 10  9  1  0  0  0  0
 12  9  1  0  0  0  0
 13 14  1  0  0  0  0
 13 16  1  0  0  0  0
 15 13  1  0  0  0  0
 17 20  1  0  0  0  0
 17  6  1  0  0  0  0
 17 19  1  0  0  0  0
 18 17  1  0  0  0  0
 21 22  1  0  0  0  0
 21 23  1  0  0  0  0
 21 24  1  0  0  0  0
 25  4  1  0  0  0  0
 26 25  1  0  0  0  0
 26 27  1  0  0  0  0
 28 26  2  0  0  0  0
 29 28  1  0  0  0  0
 30 32  1  0  0  0  0
 30 28  1  0  0  0  0
 31 30  1  0  0  0  0
 32 33  1  0  0  0  0
 33  7  1  0  0  0  0
 33 25  2  0  0  0  0
 34 36  1  0  0  0  0
 34 32  2  0  0  0  0
 35 34  1  0  0  0  0
 36 38  2  0  0  0  0
 37 36  1  0  0  0  0
 38 39  1  0  0  0  0
 38  7  1  0  0  0  0
M  END
$$$$
