CSD_code = YUWHUU | q = 0 | S = 0 | Stoichiometry = C25H21AuClO2P | MND = 2
 OpenBabel04212202123D

 51 54  0  0  0  0  0  0  0  0999 V2000
    9.1784   -1.0688    1.6959 Cl  0  0  0  0  0  0  0  0  0  0  0  0
    9.3733   -0.1172    3.7362 Au  0  0  0  0  0  0  0  0  0  0  0  0
    9.5955    0.8930    5.7444 P   0  0  1  0  0  4  0  0  0  0  0  0
    9.8745    0.2048    7.3130 C   0  0  0  0  0  0  0  0  0  0  0  0
   10.0586    1.0000    8.4327 C   0  0  0  0  0  0  0  0  0  0  0  0
   10.2524    0.4972    9.3716 H   0  0  0  0  0  0  0  0  0  0  0  0
   10.0767    2.3941    8.4298 C   0  0  0  0  0  0  0  0  0  0  0  0
    9.8810    3.1397    7.2689 C   0  0  0  0  0  0  0  0  0  0  0  0
    9.8710    4.2181    7.3612 H   0  0  0  0  0  0  0  0  0  0  0  0
    9.6387    2.6075    6.0121 C   0  0  0  0  0  0  0  0  0  0  0  0
    9.4251    3.4588    4.8395 C   0  0  0  0  0  0  0  0  0  0  0  0
   10.2141    4.5950    4.6304 C   0  0  0  0  0  0  0  0  0  0  0  0
   10.9826    4.8318    5.3490 H   0  0  0  0  0  0  0  0  0  0  0  0
   10.0484    5.3754    3.5035 C   0  0  0  0  0  0  0  0  0  0  0  0
    9.0624    5.0243    2.5476 C   0  0  0  0  0  0  0  0  0  0  0  0
    8.2690    3.9117    2.7746 C   0  0  0  0  0  0  0  0  0  0  0  0
    7.5039    3.6308    2.0698 H   0  0  0  0  0  0  0  0  0  0  0  0
    8.4510    3.1355    3.9075 C   0  0  0  0  0  0  0  0  0  0  0  0
    7.8011    2.2884    4.0806 H   0  0  0  0  0  0  0  0  0  0  0  0
   10.7732    6.4858    3.2076 O   0  0  0  0  0  0  0  0  0  0  0  0
   11.7766    6.8917    4.1039 C   0  0  0  0  0  0  0  0  0  0  0  0
   12.5529    6.1272    4.2151 H   0  0  0  0  0  0  0  0  0  0  0  0
   11.3633    7.1371    5.0882 H   0  0  0  0  0  0  0  0  0  0  0  0
   12.2152    7.7868    3.6660 H   0  0  0  0  0  0  0  0  0  0  0  0
    8.9829    5.8367    1.4673 O   0  0  0  0  0  0  0  0  0  0  0  0
    8.0827    5.4983    0.4389 C   0  0  0  0  0  0  0  0  0  0  0  0
    7.0445    5.5339    0.7848 H   0  0  0  0  0  0  0  0  0  0  0  0
    8.2962    4.5063    0.0290 H   0  0  0  0  0  0  0  0  0  0  0  0
    8.2291    6.2489   -0.3359 H   0  0  0  0  0  0  0  0  0  0  0  0
    9.8972   -1.2603    7.4082 C   0  0  0  0  0  0  0  0  0  0  0  0
   10.5665   -2.0122    6.4453 C   0  0  0  0  0  0  0  0  0  0  0  0
   11.0973   -1.5033    5.6505 H   0  0  0  0  0  0  0  0  0  0  0  0
   10.5829   -3.3922    6.5175 C   0  0  0  0  0  0  0  0  0  0  0  0
   11.1058   -3.9615    5.7642 H   0  0  0  0  0  0  0  0  0  0  0  0
    9.9279   -4.0396    7.5520 C   0  0  0  0  0  0  0  0  0  0  0  0
    9.9353   -5.1177    7.6064 H   0  0  0  0  0  0  0  0  0  0  0  0
    9.2619   -3.3007    8.5163 C   0  0  0  0  0  0  0  0  0  0  0  0
    8.7479   -3.8029    9.3226 H   0  0  0  0  0  0  0  0  0  0  0  0
    9.2464   -1.9203    8.4486 C   0  0  0  0  0  0  0  0  0  0  0  0
    8.7071   -1.3487    9.1900 H   0  0  0  0  0  0  0  0  0  0  0  0
   10.3124    3.1034    9.6982 C   0  0  0  0  0  0  0  0  0  0  0  0
    9.6827    2.6911   10.8705 C   0  0  0  0  0  0  0  0  0  0  0  0
    8.9968    1.8569   10.8430 H   0  0  0  0  0  0  0  0  0  0  0  0
    9.9029    3.3608   12.0595 C   0  0  0  0  0  0  0  0  0  0  0  0
    9.4016    3.0353   12.9591 H   0  0  0  0  0  0  0  0  0  0  0  0
   10.7617    4.4465   12.0988 C   0  0  0  0  0  0  0  0  0  0  0  0
   10.9358    4.9668   13.0287 H   0  0  0  0  0  0  0  0  0  0  0  0
   11.3966    4.8620   10.9403 C   0  0  0  0  0  0  0  0  0  0  0  0
   12.0716    5.7048   10.9662 H   0  0  0  0  0  0  0  0  0  0  0  0
   11.1711    4.1994    9.7483 C   0  0  0  0  0  0  0  0  0  0  0  0
   11.6850    4.5161    8.8522 H   0  0  0  0  0  0  0  0  0  0  0  0
  1  2  1  0  0  0  0
  3  2  1  6  0  0  0
  3 10  1  0  0  0  0
  3  4  2  0  0  0  0
  4 30  1  0  0  0  0
  4  5  1  0  0  0  0
  5  6  1  0  0  0  0
  7  5  2  0  0  0  0
  7 41  1  0  0  0  0
  8  9  1  0  0  0  0
  8  7  1  0  0  0  0
 10  8  2  0  0  0  0
 11 10  1  0  0  0  0
 12 11  1  0  0  0  0
 12 13  1  0  0  0  0
 14 12  2  0  0  0  0
 15 16  2  0  0  0  0
 15 14  1  0  0  0  0
 16 18  1  0  0  0  0
 17 16  1  0  0  0  0
 18 19  1  0  0  0  0
 18 11  2  0  0  0  0
 20 14  1  0  0  0  0
 20 21  1  0  0  0  0
 21 22  1  0  0  0  0
 21 23  1  0  0  0  0
 24 21  1  0  0  0  0
 25 15  1  0  0  0  0
 26 27  1  0  0  0  0
 26 25  1  0  0  0  0
 28 26  1  0  0  0  0
 29 26  1  0  0  0  0
 30 39  1  0  0  0  0
 31 33  1  0  0  0  0
 31 30  2  0  0  0  0
 32 31  1  0  0  0  0
 33 35  2  0  0  0  0
 34 33  1  0  0  0  0
 35 36  1  0  0  0  0
 35 37  1  0  0  0  0
 37 38  1  0  0  0  0
 39 37  2  0  0  0  0
 39 40  1  0  0  0  0
 41 50  2  0  0  0  0
 41 42  1  0  0  0  0
 42 44  2  0  0  0  0
 43 42  1  0  0  0  0
 44 46  1  0  0  0  0
 44 45  1  0  0  0  0
 46 47  1  0  0  0  0
 48 49  1  0  0  0  0
 48 46  2  0  0  0  0
 50 48  1  0  0  0  0
 51 50  1  0  0  0  0
M  END
$$$$
