CSD_code = YUWNUB | q = -1 | S = 0 | Stoichiometry = C6H4ClF15O6P3Pt(1-) | MND = 4
 OpenBabel04212202123D

 36 35  0  0  0  0  0  0  0  0999 V2000
    2.2318    6.2155    7.2720 Pt  0  0  1  0  0  0  0  0  0  0  0  0
    3.4492    4.8787    5.7338 Cl  0  0  0  0  0  0  0  0  0  0  0  0
    3.9746    7.6600    7.4257 P   0  0  2  0  0  0  0  0  0  0  0  0
    0.8459    7.6367    8.3929 P   0  0  1  0  0  0  0  0  0  0  0  0
    0.5024    4.7562    6.9559 P   0  0  0  0  0  4  0  0  0  0  0  0
    4.5403    7.4490   10.0522 F   0  0  0  0  0  0  0  0  0  0  0  0
    6.3068    7.5906    8.8029 F   0  0  0  0  0  0  0  0  0  0  0  0
    4.0506    4.8938    8.9144 F   0  0  0  0  0  0  0  0  0  0  0  0
    5.8953    5.0715   10.0079 F   0  0  0  0  0  0  0  0  0  0  0  0
    5.9202    5.0873    7.8611 F   0  0  0  0  0  0  0  0  0  0  0  0
    2.0665    6.2379   10.3517 F   0  0  0  0  0  0  0  0  0  0  0  0
   -0.0860    6.0091   10.2860 F   0  0  0  0  0  0  0  0  0  0  0  0
   -0.3165    8.7399   11.0072 F   0  0  0  0  0  0  0  0  0  0  0  0
    0.5527    7.4525   12.4864 F   0  0  0  0  0  0  0  0  0  0  0  0
    1.8082    8.7663   11.3453 F   0  0  0  0  0  0  0  0  0  0  0  0
    0.7270    3.4539    9.3352 F   0  0  0  0  0  0  0  0  0  0  0  0
    1.2669    2.2802    7.5977 F   0  0  0  0  0  0  0  0  0  0  0  0
   -1.0343    1.3321    8.5560 F   0  0  0  0  0  0  0  0  0  0  0  0
   -1.4690    2.4600    6.7858 F   0  0  0  0  0  0  0  0  0  0  0  0
   -1.8935    3.2901    8.7263 F   0  0  0  0  0  0  0  0  0  0  0  0
    3.8002    9.1013    7.7005 O   0  0  0  0  0  0  0  0  0  0  0  0
    5.0147    7.4893    6.2259 O   0  0  0  0  0  0  0  0  0  0  0  0
    4.9121    6.6386    5.7686 H   0  0  0  0  0  0  0  0  0  0  0  0
    1.3260    9.1201    8.5911 O   0  0  0  0  0  0  0  0  0  0  0  0
    2.2743    9.2774    8.3260 H   0  0  0  0  0  0  0  0  0  0  0  0
   -0.5940    7.6183    8.0291 O   0  0  0  0  0  0  0  0  0  0  0  0
   -0.9687    5.2655    7.0128 O   0  0  0  0  0  0  0  0  0  0  0  0
   -1.0176    6.2026    7.3859 H   0  0  0  0  0  0  0  0  0  0  0  0
    0.5608    4.0352    5.5522 O   0  0  0  0  0  0  0  0  0  0  0  0
    1.4775    4.0600    5.2071 H   0  0  0  0  0  0  0  0  0  0  0  0
    5.0739    7.0288    8.8825 C   0  0  0  0  0  0  0  0  0  0  0  0
    5.2406    5.5130    8.9300 C   0  0  0  0  0  0  0  0  0  0  0  0
    0.9097    6.9232   10.1719 C   0  0  0  0  0  0  0  0  0  0  0  0
    0.7435    7.9713   11.2634 C   0  0  0  0  0  0  0  0  0  0  0  0
    0.3786    3.1982    8.0582 C   0  0  0  0  0  0  0  0  0  0  0  0
   -1.0164    2.5682    8.0360 C   0  0  0  0  0  0  0  0  0  0  0  0
  1  2  1  6  0  0  0
  1  3  1  0  0  0  0
  1  4  1  0  0  0  0
  3 21  2  1  0  0  0
  3 31  1  0  0  0  0
  4 26  2  6  0  0  0
  4 24  1  0  0  0  0
  4 33  1  0  0  0  0
  5 27  1  0  0  0  0
  5  1  1  0  0  0  0
  5 35  1  0  0  0  0
  7 31  1  0  0  0  0
  8 32  1  0  0  0  0
 10 32  1  0  0  0  0
 13 34  1  0  0  0  0
 17 35  1  0  0  0  0
 19 36  1  0  0  0  0
 22  3  1  0  0  0  0
 23 22  1  0  0  0  0
 25 24  1  0  0  0  0
 27 28  1  0  0  0  0
 29  5  1  0  0  0  0
 30 29  1  0  0  0  0
 31 32  1  0  0  0  0
 31  6  1  0  0  0  0
 32  9  1  0  0  0  0
 33 12  1  0  0  0  0
 33 11  1  0  0  0  0
 33 34  1  0  0  0  0
 34 15  1  0  0  0  0
 34 14  1  0  0  0  0
 35 16  1  0  0  0  0
 36 35  1  0  0  0  0
 36 18  1  0  0  0  0
 36 20  1  0  0  0  0
M  END
$$$$
