CSD_code = YUWTEP | q = 0 | S = 0 | Stoichiometry = C27H29Cl3NP2Re | MND = 6
 OpenBabel04212202123D

 63 66  0  0  0  0  0  0  0  0999 V2000
   18.0756    8.9193   12.7321 Re  0  0  0  0  0  0  0  0  0  0  0  0
   18.0714    8.9394   10.3110 Cl  0  0  0  0  0  0  0  0  0  0  0  0
   18.0912    8.9164   15.1560 Cl  0  0  0  0  0  0  0  0  0  0  0  0
   16.5980    7.2972   12.7274 Cl  0  0  0  0  0  0  0  0  0  0  0  0
   19.7073    7.1239   12.7456 P   0  0  0  0  0  4  0  0  0  0  0  0
   16.3200   10.6465   12.7225 P   0  0  0  0  0  4  0  0  0  0  0  0
   19.3046   10.1717   12.7375 N   0  0  0  0  0  2  0  0  0  0  0  0
   19.6434    6.0513   11.2775 C   0  0  0  0  0  0  0  0  0  0  0  0
   21.4489    7.6586   12.8279 C   0  0  0  0  0  0  0  0  0  0  0  0
   19.5393    5.9778   14.1487 C   0  0  0  0  0  0  0  0  0  0  0  0
   17.1665   12.2494   12.7544 C   0  0  0  0  0  0  0  0  0  0  0  0
   17.6466   12.7883   11.5634 C   0  0  0  0  0  0  0  0  0  0  0  0
   18.4151   13.9371   11.5867 C   0  0  0  0  0  0  0  0  0  0  0  0
   18.7246   14.5419   12.7942 C   0  0  0  0  0  0  0  0  0  0  0  0
   18.2757   13.9890   13.9824 C   0  0  0  0  0  0  0  0  0  0  0  0
   17.5047   12.8410   13.9677 C   0  0  0  0  0  0  0  0  0  0  0  0
   15.1285   10.7089   14.0955 C   0  0  0  0  0  0  0  0  0  0  0  0
   14.4645   11.8980   14.3865 C   0  0  0  0  0  0  0  0  0  0  0  0
   13.5222   11.9318   15.3961 C   0  0  0  0  0  0  0  0  0  0  0  0
   13.2304   10.7836   16.1163 C   0  0  0  0  0  0  0  0  0  0  0  0
   13.8820    9.5986   15.8229 C   0  0  0  0  0  0  0  0  0  0  0  0
   14.8268    9.5579   14.8127 C   0  0  0  0  0  0  0  0  0  0  0  0
   15.1902   10.7347   11.2995 C   0  0  0  0  0  0  0  0  0  0  0  0
   14.8203    9.5628   10.6499 C   0  0  0  0  0  0  0  0  0  0  0  0
   13.9213    9.6050    9.5997 C   0  0  0  0  0  0  0  0  0  0  0  0
   13.3800   10.8142    9.1987 C   0  0  0  0  0  0  0  0  0  0  0  0
   13.7388   11.9834    9.8505 C   0  0  0  0  0  0  0  0  0  0  0  0
   14.6387   11.9484   10.8987 C   0  0  0  0  0  0  0  0  0  0  0  0
   20.2314   11.1204   12.7378 C   0  0  0  0  0  0  0  0  0  0  0  0
   20.6853   11.6740   13.9517 C   0  0  0  0  0  0  0  0  0  0  0  0
   20.7623   11.5973   11.5222 C   0  0  0  0  0  0  0  0  0  0  0  0
   21.6302   12.6753   13.9371 C   0  0  0  0  0  0  0  0  0  0  0  0
   22.1416   13.1431   12.7341 C   0  0  0  0  0  0  0  0  0  0  0  0
   21.7065   12.5990   11.5331 C   0  0  0  0  0  0  0  0  0  0  0  0
   18.6600    5.5860   11.2181 H   0  0  0  0  0  0  0  0  0  0  0  0
   20.4148    5.2845   11.3403 H   0  0  0  0  0  0  0  0  0  0  0  0
   19.7871    6.6669   10.3904 H   0  0  0  0  0  0  0  0  0  0  0  0
   21.5924    8.2404   13.7370 H   0  0  0  0  0  0  0  0  0  0  0  0
   21.6647    8.2901   11.9676 H   0  0  0  0  0  0  0  0  0  0  0  0
   22.1090    6.7922   12.8306 H   0  0  0  0  0  0  0  0  0  0  0  0
   19.6103    6.5490   15.0737 H   0  0  0  0  0  0  0  0  0  0  0  0
   20.3215    5.2206   14.1063 H   0  0  0  0  0  0  0  0  0  0  0  0
   18.5597    5.5026   14.1092 H   0  0  0  0  0  0  0  0  0  0  0  0
   17.4233   12.2941   10.6278 H   0  0  0  0  0  0  0  0  0  0  0  0
   18.7813   14.3575   10.6618 H   0  0  0  0  0  0  0  0  0  0  0  0
   19.3272   15.4378   12.8098 H   0  0  0  0  0  0  0  0  0  0  0  0
   18.5338   14.4499   14.9243 H   0  0  0  0  0  0  0  0  0  0  0  0
   17.1708   12.3920   14.8927 H   0  0  0  0  0  0  0  0  0  0  0  0
   14.6949   12.7961   13.8308 H   0  0  0  0  0  0  0  0  0  0  0  0
   13.0140   12.8576   15.6242 H   0  0  0  0  0  0  0  0  0  0  0  0
   12.4954   10.8161   16.9072 H   0  0  0  0  0  0  0  0  0  0  0  0
   13.6586    8.7031   16.3835 H   0  0  0  0  0  0  0  0  0  0  0  0
   15.3414    8.6335   14.5965 H   0  0  0  0  0  0  0  0  0  0  0  0
   15.2484    8.6185   10.9525 H   0  0  0  0  0  0  0  0  0  0  0  0
   13.6471    8.6925    9.0916 H   0  0  0  0  0  0  0  0  0  0  0  0
   12.6803   10.8482    8.3766 H   0  0  0  0  0  0  0  0  0  0  0  0
   13.3175   12.9281    9.5384 H   0  0  0  0  0  0  0  0  0  0  0  0
   14.9233   12.8649   11.3961 H   0  0  0  0  0  0  0  0  0  0  0  0
   20.2679   11.2929   14.8709 H   0  0  0  0  0  0  0  0  0  0  0  0
   20.4010   11.1592   10.6045 H   0  0  0  0  0  0  0  0  0  0  0  0
   21.9738   13.0996   14.8688 H   0  0  0  0  0  0  0  0  0  0  0  0
   22.8801   13.9306   12.7326 H   0  0  0  0  0  0  0  0  0  0  0  0
   22.1091   12.9645   10.5999 H   0  0  0  0  0  0  0  0  0  0  0  0
  1  7  1  0  0  0  0
  1  5  1  0  0  0  0
  1  3  1  0  0  0  0
  2  1  1  0  0  0  0
  4  1  1  0  0  0  0
  5  9  1  0  0  0  0
  5 10  1  0  0  0  0
  6  1  1  0  0  0  0
  6 11  1  0  0  0  0
  6 17  1  0  0  0  0
  7 29  1  0  0  0  0
  8 36  1  0  0  0  0
  8  5  1  0  0  0  0
  9 40  1  0  0  0  0
  9 38  1  0  0  0  0
 10 41  1  0  0  0  0
 11 16  1  0  0  0  0
 12 13  1  0  0  0  0
 12 11  2  0  0  0  0
 13 14  2  0  0  0  0
 14 46  1  0  0  0  0
 14 15  1  0  0  0  0
 15 47  1  0  0  0  0
 16 15  2  0  0  0  0
 16 48  1  0  0  0  0
 17 18  2  0  0  0  0
 17 22  1  0  0  0  0
 18 19  1  0  0  0  0
 19 50  1  0  0  0  0
 19 20  2  0  0  0  0
 20 51  1  0  0  0  0
 21 20  1  0  0  0  0
 21 52  1  0  0  0  0
 22 21  2  0  0  0  0
 23  6  1  0  0  0  0
 24 54  1  0  0  0  0
 24 23  2  0  0  0  0
 25 24  1  0  0  0  0
 26 25  2  0  0  0  0
 26 27  1  0  0  0  0
 27 28  2  0  0  0  0
 28 23  1  0  0  0  0
 28 58  1  0  0  0  0
 29 30  1  0  0  0  0
 30 59  1  0  0  0  0
 31 34  1  0  0  0  0
 31 29  2  0  0  0  0
 32 30  2  0  0  0  0
 32 61  1  0  0  0  0
 33 32  1  0  0  0  0
 34 33  2  0  0  0  0
 35  8  1  0  0  0  0
 37  8  1  0  0  0  0
 39  9  1  0  0  0  0
 42 10  1  0  0  0  0
 43 10  1  0  0  0  0
 44 12  1  0  0  0  0
 45 13  1  0  0  0  0
 49 18  1  0  0  0  0
 53 22  1  0  0  0  0
 55 25  1  0  0  0  0
 56 26  1  0  0  0  0
 57 27  1  0  0  0  0
 60 31  1  0  0  0  0
 62 33  1  0  0  0  0
 63 34  1  0  0  0  0
M  END
$$$$
