CSD_code = YUWVOC | q = 1 | S = 0 | Stoichiometry = C14H32ClCrN4(1+) | MND = 5
 OpenBabel04212202123D

 52 55  0  0  1  0  0  0  0  0999 V2000
    8.7962    4.4677   11.2643 Cr  0  0  0  0  0  0  0  0  0  0  0  0
   10.3746    2.9985   11.3281 N   0  0  1  0  0  4  0  0  0  0  0  0
    9.8934    5.2536    9.6134 N   0  0  2  0  0  4  0  0  0  0  0  0
    7.0485    5.6362   10.8971 N   0  0  2  0  0  4  0  0  0  0  0  0
    7.5151    3.3818   12.6201 N   0  0  2  0  0  4  0  0  0  0  0  0
    7.0726    7.0967   11.0126 C   0  0  0  0  0  0  0  0  0  0  0  0
    6.0644    7.5169   10.9345 H   0  0  0  0  0  0  0  0  0  0  0  0
    7.6856    7.5459   10.2427 H   0  0  0  0  0  0  0  0  0  0  0  0
    7.5064    7.3638   11.9735 H   0  0  0  0  0  0  0  0  0  0  0  0
    9.0337    4.9089    8.4734 C   0  0  0  0  0  0  0  0  0  0  0  0
    8.8652    3.8250    8.4915 H   0  0  0  0  0  0  0  0  0  0  0  0
    9.5533    5.1483    7.5322 H   0  0  0  0  0  0  0  0  0  0  0  0
    6.0222    5.1817   11.8480 C   0  0  0  0  0  0  0  0  0  0  0  0
    5.0133    5.3818   11.4607 H   0  0  0  0  0  0  0  0  0  0  0  0
    6.1487    5.7630   12.7613 H   0  0  0  0  0  0  0  0  0  0  0  0
   10.9906    3.0560    9.9955 C   0  0  0  0  0  0  0  0  0  0  0  0
   10.3579    2.5068    9.2915 H   0  0  0  0  0  0  0  0  0  0  0  0
   11.9751    2.5681    9.9966 H   0  0  0  0  0  0  0  0  0  0  0  0
    7.6671    5.5986    8.4282 C   0  0  0  0  0  0  0  0  0  0  0  0
    7.2014    5.2928    7.4875 H   0  0  0  0  0  0  0  0  0  0  0  0
    7.7855    6.6786    8.3664 H   0  0  0  0  0  0  0  0  0  0  0  0
    9.0743    1.4022   12.7910 C   0  0  0  0  0  0  0  0  0  0  0  0
    9.5335    1.8351   13.6762 H   0  0  0  0  0  0  0  0  0  0  0  0
    9.0076    0.3261   12.9621 H   0  0  0  0  0  0  0  0  0  0  0  0
    6.1513    3.7045   12.1796 C   0  0  0  0  0  0  0  0  0  0  0  0
    5.4166    3.4458   12.9546 H   0  0  0  0  0  0  0  0  0  0  0  0
    5.9154    3.1031   11.2962 H   0  0  0  0  0  0  0  0  0  0  0  0
    7.6959    3.8551   13.9945 C   0  0  0  0  0  0  0  0  0  0  0  0
    7.5825    4.9334   14.0365 H   0  0  0  0  0  0  0  0  0  0  0  0
    8.7021    3.6340   14.3354 H   0  0  0  0  0  0  0  0  0  0  0  0
    6.9764    3.3856   14.6746 H   0  0  0  0  0  0  0  0  0  0  0  0
   11.1506    4.4942    9.5323 C   0  0  0  0  0  0  0  0  0  0  0  0
   11.5500    4.5057    8.5085 H   0  0  0  0  0  0  0  0  0  0  0  0
   11.8729    4.9964   10.1759 H   0  0  0  0  0  0  0  0  0  0  0  0
    7.6513    1.9178   12.6044 C   0  0  0  0  0  0  0  0  0  0  0  0
    7.2837    1.5464   11.6410 H   0  0  0  0  0  0  0  0  0  0  0  0
    7.0138    1.4846   13.3883 H   0  0  0  0  0  0  0  0  0  0  0  0
    6.6772    5.2272    9.5362 C   0  0  0  0  0  0  0  0  0  0  0  0
    5.7044    5.6693    9.2691 H   0  0  0  0  0  0  0  0  0  0  0  0
    6.5572    4.1367    9.5307 H   0  0  0  0  0  0  0  0  0  0  0  0
   10.2817    6.6655    9.5636 C   0  0  0  0  0  0  0  0  0  0  0  0
   10.9473    6.8638    8.7169 H   0  0  0  0  0  0  0  0  0  0  0  0
   10.7859    6.9218   10.4925 H   0  0  0  0  0  0  0  0  0  0  0  0
    9.4185    7.3115    9.4744 H   0  0  0  0  0  0  0  0  0  0  0  0
   11.3782    3.3596   12.3322 C   0  0  0  0  0  0  0  0  0  0  0  0
   12.2317    2.6729   12.3063 H   0  0  0  0  0  0  0  0  0  0  0  0
   10.9373    3.3405   13.3235 H   0  0  0  0  0  0  0  0  0  0  0  0
   11.7256    4.3739   12.1653 H   0  0  0  0  0  0  0  0  0  0  0  0
    9.9523    1.6097   11.5616 C   0  0  0  0  0  0  0  0  0  0  0  0
    9.3895    1.2675   10.6857 H   0  0  0  0  0  0  0  0  0  0  0  0
   10.8415    0.9693   11.6514 H   0  0  0  0  0  0  0  0  0  0  0  0
    9.6468    5.9695   12.7011 Cl  0  0  0  0  0  0  0  0  0  0  0  0
  1  2  1  0  0  0  0
  1  5  1  0  0  0  0
  1 52  1  0  0  0  0
  2 49  1  0  0  0  0
  2 45  1  1  0  0  0
  3 41  1  1  0  0  0
  3  1  1  0  0  0  0
  4  6  1  1  0  0  0
  4  1  1  0  0  0  0
  4 13  1  0  0  0  0
  5 28  1  1  0  0  0
  6  9  1  0  0  0  0
  7  6  1  0  0  0  0
  8  6  1  0  0  0  0
 10 11  1  0  0  0  0
 10  3  1  0  0  0  0
 12 10  1  0  0  0  0
 13 25  1  0  0  0  0
 13 15  1  0  0  0  0
 14 13  1  0  0  0  0
 16 18  1  0  0  0  0
 16  2  1  0  0  0  0
 17 16  1  0  0  0  0
 19 10  1  0  0  0  0
 19 38  1  0  0  0  0
 20 19  1  0  0  0  0
 21 19  1  0  0  0  0
 22 24  1  0  0  0  0
 22 23  1  0  0  0  0
 25  5  1  0  0  0  0
 25 26  1  0  0  0  0
 27 25  1  0  0  0  0
 28 29  1  0  0  0  0
 28 30  1  0  0  0  0
 28 31  1  0  0  0  0
 32  3  1  0  0  0  0
 32 16  1  0  0  0  0
 32 34  1  0  0  0  0
 33 32  1  0  0  0  0
 35  5  1  0  0  0  0
 35 22  1  0  0  0  0
 35 37  1  0  0  0  0
 36 35  1  0  0  0  0
 38  4  1  0  0  0  0
 39 38  1  0  0  0  0
 40 38  1  0  0  0  0
 41 43  1  0  0  0  0
 42 41  1  0  0  0  0
 44 41  1  0  0  0  0
 45 47  1  0  0  0  0
 46 45  1  0  0  0  0
 48 45  1  0  0  0  0
 49 51  1  0  0  0  0
 49 22  1  0  0  0  0
 50 49  1  0  0  0  0
M  END
$$$$
