CSD_code = YUWXAP | q = 0 | S = 0 | Stoichiometry = C13H18AuCl3N3OP | MND = 2
 OpenBabel04212202123D

 40 41  0  0  0  0  0  0  0  0999 V2000
    3.5262   12.4197    2.2442 Au  0  0  0  0  0  0  0  0  0  0  0  0
    4.7953   10.6841    2.8607 P   0  0  2  0  0  4  0  0  0  0  0  0
    2.2533   14.1676    1.6129 Cl  0  0  0  0  0  0  0  0  0  0  0  0
    4.3215    7.0395    3.9127 Cl  0  0  0  0  0  0  0  0  0  0  0  0
    1.0195    8.4492    0.3422 Cl  0  0  0  0  0  0  0  0  0  0  0  0
    8.5316   11.2033    3.6554 O   0  0  0  0  0  0  0  0  0  0  0  0
    4.6112   10.2156    4.4625 N   0  0  0  0  0  0  0  0  0  0  0  0
    6.4470   10.9808    2.8283 N   0  0  0  0  0  0  0  0  0  0  0  0
    4.6481    9.3644    1.8276 N   0  0  0  0  0  0  0  0  0  0  0  0
    7.4014   10.7997    3.8210 C   0  0  0  0  0  0  0  0  0  0  0  0
    6.9726   10.0378    4.9984 C   0  0  0  0  0  0  0  0  0  0  0  0
    7.9793    9.6001    5.8612 C   0  0  0  0  0  0  0  0  0  0  0  0
    8.9974    9.8514    5.6053 H   0  0  0  0  0  0  0  0  0  0  0  0
    7.6806    8.8767    6.9942 C   0  0  0  0  0  0  0  0  0  0  0  0
    8.4663    8.5414    7.6523 H   0  0  0  0  0  0  0  0  0  0  0  0
    6.3539    8.5856    7.2763 C   0  0  0  0  0  0  0  0  0  0  0  0
    6.1001    8.0151    8.1570 H   0  0  0  0  0  0  0  0  0  0  0  0
    5.3435    9.0168    6.4398 C   0  0  0  0  0  0  0  0  0  0  0  0
    4.3248    8.7634    6.6810 H   0  0  0  0  0  0  0  0  0  0  0  0
    5.6312    9.7500    5.2871 C   0  0  0  0  0  0  0  0  0  0  0  0
    3.2423   10.2006    4.9492 C   0  0  0  0  0  0  0  0  0  0  0  0
    2.6378   10.8195    4.2813 H   0  0  0  0  0  0  0  0  0  0  0  0
    3.1960   10.6291    5.9513 H   0  0  0  0  0  0  0  0  0  0  0  0
    2.8232    9.1917    4.9639 H   0  0  0  0  0  0  0  0  0  0  0  0
    6.8677   11.6875    1.6229 C   0  0  0  0  0  0  0  0  0  0  0  0
    6.7182   12.7639    1.7270 H   0  0  0  0  0  0  0  0  0  0  0  0
    6.2891   11.3236    0.7723 H   0  0  0  0  0  0  0  0  0  0  0  0
    7.9286   11.4968    1.4619 H   0  0  0  0  0  0  0  0  0  0  0  0
    5.5922    8.2649    1.8439 C   0  0  0  0  0  0  0  0  0  0  0  0
    6.4005    8.5326    2.5310 H   0  0  0  0  0  0  0  0  0  0  0  0
    6.0223    8.1319    0.8419 H   0  0  0  0  0  0  0  0  0  0  0  0
    5.0023    6.9260    2.2718 C   0  0  0  0  0  0  0  0  0  0  0  0
    5.7834    6.1664    2.3000 H   0  0  0  0  0  0  0  0  0  0  0  0
    4.2003    6.6046    1.6086 H   0  0  0  0  0  0  0  0  0  0  0  0
    3.5342    9.2950    0.8997 C   0  0  0  0  0  0  0  0  0  0  0  0
    3.7895    8.6023    0.0940 H   0  0  0  0  0  0  0  0  0  0  0  0
    3.3699   10.2852    0.4595 H   0  0  0  0  0  0  0  0  0  0  0  0
    2.2386    8.8500    1.5777 C   0  0  0  0  0  0  0  0  0  0  0  0
    1.8308    9.6568    2.1885 H   0  0  0  0  0  0  0  0  0  0  0  0
    2.3837    7.9639    2.1935 H   0  0  0  0  0  0  0  0  0  0  0  0
  2  1  1  6  0  0  0
  2  7  1  0  0  0  0
  3  1  1  0  0  0  0
  5 38  1  0  0  0  0
  6 10  2  0  0  0  0
  7 21  1  0  0  0  0
  7 20  1  0  0  0  0
  8  2  1  0  0  0  0
  8 10  1  0  0  0  0
  9 29  1  0  0  0  0
  9  2  1  0  0  0  0
 10 11  1  0  0  0  0
 11 20  2  0  0  0  0
 11 12  1  0  0  0  0
 12 14  2  0  0  0  0
 13 12  1  0  0  0  0
 14 16  1  0  0  0  0
 14 15  1  0  0  0  0
 16 17  1  0  0  0  0
 18 19  1  0  0  0  0
 18 16  2  0  0  0  0
 20 18  1  0  0  0  0
 21 24  1  0  0  0  0
 21 23  1  0  0  0  0
 22 21  1  0  0  0  0
 25 26  1  0  0  0  0
 25  8  1  0  0  0  0
 27 25  1  0  0  0  0
 28 25  1  0  0  0  0
 29 32  1  0  0  0  0
 29 30  1  0  0  0  0
 31 29  1  0  0  0  0
 32 33  1  0  0  0  0
 32  4  1  0  0  0  0
 34 32  1  0  0  0  0
 35 38  1  0  0  0  0
 35  9  1  0  0  0  0
 36 35  1  0  0  0  0
 37 35  1  0  0  0  0
 38 39  1  0  0  0  0
 38 40  1  0  0  0  0
M  END
$$$$
