CSD_code = YUWXET | q = 0 | S = 0 | Stoichiometry = C11H12AuCl3NO3P | MND = 2
 OpenBabel04212202123D

 32 33  0  0  0  0  0  0  0  0999 V2000
    7.2363    0.5559   18.6474 Au  0  0  0  0  0  0  0  0  0  0  0  0
    8.4038    2.3308   19.3666 P   0  0  2  0  0  4  0  0  0  0  0  0
    6.2203   -1.3047   17.9080 Cl  0  0  0  0  0  0  0  0  0  0  0  0
    8.9290    6.5002   17.1761 Cl  0  0  0  0  0  0  0  0  0  0  0  0
    5.9364    2.9107   20.7152 Cl  0  0  0  0  0  0  0  0  0  0  0  0
    9.9249    2.2159   18.7539 O   0  0  0  0  0  0  0  0  0  0  0  0
    8.8152    2.3144   20.9491 O   0  0  0  0  0  0  0  0  0  0  0  0
    9.7944    1.3043   22.6606 O   0  0  0  0  0  0  0  0  0  0  0  0
    8.1279    3.9132   18.9992 N   0  0  0  0  0  0  0  0  0  0  0  0
    9.6984    1.3930   21.4738 C   0  0  0  0  0  0  0  0  0  0  0  0
   10.4892    0.6414   20.4900 C   0  0  0  0  0  0  0  0  0  0  0  0
   11.2114   -0.4815   20.8965 C   0  0  0  0  0  0  0  0  0  0  0  0
   11.1062   -0.8133   21.9179 H   0  0  0  0  0  0  0  0  0  0  0  0
   12.0270   -1.1424   20.0009 C   0  0  0  0  0  0  0  0  0  0  0  0
   12.5714   -2.0196   20.3126 H   0  0  0  0  0  0  0  0  0  0  0  0
   12.1514   -0.6729   18.7003 C   0  0  0  0  0  0  0  0  0  0  0  0
   12.7931   -1.1856   18.0005 H   0  0  0  0  0  0  0  0  0  0  0  0
   11.4517    0.4464   18.2841 C   0  0  0  0  0  0  0  0  0  0  0  0
   11.5354    0.8201   17.2758 H   0  0  0  0  0  0  0  0  0  0  0  0
   10.6128    1.0992   19.1739 C   0  0  0  0  0  0  0  0  0  0  0  0
    9.0333    4.9600   19.4391 C   0  0  0  0  0  0  0  0  0  0  0  0
    9.7058    4.5437   20.1953 H   0  0  0  0  0  0  0  0  0  0  0  0
    8.4689    5.7769   19.8964 H   0  0  0  0  0  0  0  0  0  0  0  0
    9.8878    5.4919   18.2947 C   0  0  0  0  0  0  0  0  0  0  0  0
   10.2985    4.6690   17.7111 H   0  0  0  0  0  0  0  0  0  0  0  0
   10.6885    6.1245   18.6768 H   0  0  0  0  0  0  0  0  0  0  0  0
    6.7899    4.2673   18.5820 C   0  0  0  0  0  0  0  0  0  0  0  0
    6.8229    5.1960   18.0088 H   0  0  0  0  0  0  0  0  0  0  0  0
    6.4193    3.4671   17.9338 H   0  0  0  0  0  0  0  0  0  0  0  0
    5.8444    4.4168   19.7709 C   0  0  0  0  0  0  0  0  0  0  0  0
    4.8157    4.5544   19.4441 H   0  0  0  0  0  0  0  0  0  0  0  0
    6.1424    5.2318   20.4293 H   0  0  0  0  0  0  0  0  0  0  0  0
  2  1  1  6  0  0  0
  2  7  1  0  0  0  0
  3  1  1  0  0  0  0
  4 24  1  0  0  0  0
  6 20  1  0  0  0  0
  6  2  1  0  0  0  0
  7 10  1  0  0  0  0
  9  2  1  0  0  0  0
  9 21  1  0  0  0  0
 10  8  2  0  0  0  0
 11 12  1  0  0  0  0
 11 10  1  0  0  0  0
 12 13  1  0  0  0  0
 14 15  1  0  0  0  0
 14 12  2  0  0  0  0
 16 14  1  0  0  0  0
 17 16  1  0  0  0  0
 18 16  2  0  0  0  0
 18 20  1  0  0  0  0
 19 18  1  0  0  0  0
 20 11  2  0  0  0  0
 21 23  1  0  0  0  0
 21 22  1  0  0  0  0
 24 26  1  0  0  0  0
 24 21  1  0  0  0  0
 25 24  1  0  0  0  0
 27  9  1  0  0  0  0
 27 30  1  0  0  0  0
 28 27  1  0  0  0  0
 29 27  1  0  0  0  0
 30 32  1  0  0  0  0
 30  5  1  0  0  0  0
 31 30  1  0  0  0  0
M  END
$$$$
