CSD_code = YUXFAZ | q = 0 | S = 0 | Stoichiometry = C33H25ClN4O2Pd | MND = 5
 OpenBabel04212202123D

 66 70  0  0  1  0  0  0  0  0999 V2000
    2.5958   -0.7334   10.0432 Pd  0  0  0  0  0  0  0  0  0  0  0  0
    2.3662    1.5406    9.7179 Cl  0  0  0  0  0 15  0  0  0  0  0  0
    2.7242    1.0020    5.0034 O   0  0  0  0  0  0  0  0  0  0  0  0
    0.9038   -2.5615    8.6596 O   0  0  0  0  0  0  0  0  0  0  0  0
   -0.8145    1.2287    8.5649 N   0  0  0  0  0  0  0  0  0  0  0  0
    0.6190   -0.8863   10.8012 N   0  0  0  0  0  0  0  0  0  0  0  0
   -1.2073    3.1970    7.4140 N   0  0  0  0  0  0  0  0  0  0  0  0
    1.1972    2.8556    6.0150 N   0  0  0  0  0  0  0  0  0  0  0  0
   -0.4491    2.0934    7.6461 C   0  0  0  0  0  0  0  0  0  0  0  0
    0.7187    1.8779    6.8266 C   0  0  0  0  0  0  0  0  0  0  0  0
    1.2577    0.5784    6.8132 C   0  0  0  0  0  0  0  0  0  0  0  0
    2.3225    0.2331    5.8811 C   0  0  0  0  0  0  0  0  0  0  0  0
    2.8993   -1.1182    5.9952 C   0  0  0  0  0  0  0  0  0  0  0  0
    3.9021   -1.4962    5.1020 C   0  0  0  0  0  0  0  0  0  0  0  0
    4.2589   -0.7600    4.3972 H   0  0  0  0  0  0  0  0  0  0  0  0
    4.4140   -2.7781    5.1167 C   0  0  0  0  0  0  0  0  0  0  0  0
    5.1955   -3.0559    4.4252 H   0  0  0  0  0  0  0  0  0  0  0  0
    3.9112   -3.7156    6.0100 C   0  0  0  0  0  0  0  0  0  0  0  0
    4.2947   -4.7253    6.0079 H   0  0  0  0  0  0  0  0  0  0  0  0
    2.9215   -3.3539    6.9027 C   0  0  0  0  0  0  0  0  0  0  0  0
    2.5071   -4.0662    7.6023 H   0  0  0  0  0  0  0  0  0  0  0  0
    2.4228   -2.0503    6.9233 C   0  0  0  0  0  0  0  0  0  0  0  0
    1.3690   -1.7033    7.9048 C   0  0  0  0  0  0  0  0  0  0  0  0
    0.8298   -0.3392    7.8124 C   0  0  0  0  0  0  0  0  0  0  0  0
   -0.1225    0.1055    8.7362 C   0  0  0  0  0  0  0  0  0  0  0  0
   -0.4149   -0.5731   10.0118 C   0  0  2  0  0  3  0  0  0  0  0  0
   -1.7339   -0.7411   10.4279 C   0  0  0  0  0  0  0  0  0  0  0  0
   -2.5317   -0.4644    9.7578 H   0  0  0  0  0  0  0  0  0  0  0  0
   -1.9852   -1.2608   11.6823 C   0  0  0  0  0  0  0  0  0  0  0  0
   -2.9982   -1.4117   12.0241 H   0  0  0  0  0  0  0  0  0  0  0  0
   -0.9075   -1.5743   12.4981 C   0  0  0  0  0  0  0  0  0  0  0  0
   -1.0543   -1.9696   13.4907 H   0  0  0  0  0  0  0  0  0  0  0  0
    0.3730   -1.3694   12.0160 C   0  0  0  0  0  0  0  0  0  0  0  0
    1.2366   -1.5927   12.6353 H   0  0  0  0  0  0  0  0  0  0  0  0
   -2.2754    3.7261    8.1243 C   0  0  0  0  0  0  0  0  0  0  0  0
   -2.8285    4.9152    7.6442 C   0  0  0  0  0  0  0  0  0  0  0  0
   -2.4121    5.3766    6.7587 H   0  0  0  0  0  0  0  0  0  0  0  0
   -3.8916    5.5060    8.2967 C   0  0  0  0  0  0  0  0  0  0  0  0
   -4.3093    6.4254    7.9140 H   0  0  0  0  0  0  0  0  0  0  0  0
   -4.4182    4.9248    9.4390 C   0  0  0  0  0  0  0  0  0  0  0  0
   -5.2503    5.3865    9.9485 H   0  0  0  0  0  0  0  0  0  0  0  0
   -3.8648    3.7513    9.9230 C   0  0  0  0  0  0  0  0  0  0  0  0
   -4.2646    3.2977   10.8181 H   0  0  0  0  0  0  0  0  0  0  0  0
   -2.8028    3.1471    9.2761 C   0  0  0  0  0  0  0  0  0  0  0  0
   -2.3642    2.2402    9.6544 H   0  0  0  0  0  0  0  0  0  0  0  0
    1.2696    4.2140    6.3466 C   0  0  0  0  0  0  0  0  0  0  0  0
    1.3072    5.1522    5.3167 C   0  0  0  0  0  0  0  0  0  0  0  0
    1.2865    4.8139    4.2910 H   0  0  0  0  0  0  0  0  0  0  0  0
    1.3696    6.5003    5.6146 C   0  0  0  0  0  0  0  0  0  0  0  0
    1.3954    7.2240    4.8133 H   0  0  0  0  0  0  0  0  0  0  0  0
    1.3970    6.9228    6.9339 C   0  0  0  0  0  0  0  0  0  0  0  0
    1.4401    7.9769    7.1625 H   0  0  0  0  0  0  0  0  0  0  0  0
    1.3901    5.9884    7.9577 C   0  0  0  0  0  0  0  0  0  0  0  0
    1.4415    6.3117    8.9861 H   0  0  0  0  0  0  0  0  0  0  0  0
    1.3343    4.6373    7.6751 C   0  0  0  0  0  0  0  0  0  0  0  0
    1.3744    3.9044    8.4678 H   0  0  0  0  0  0  0  0  0  0  0  0
    3.4757   -2.5336   10.8600 C   0  0  0  0  0  3  0  0  0  0  0  0
    3.7177   -2.1400   11.8519 H   0  0  0  0  0  0  0  0  0  0  0  0
    3.0258   -3.5181   10.8437 H   0  0  0  0  0  0  0  0  0  0  0  0
    4.2044   -2.0968    9.7564 C   0  0  0  0  0  3  0  0  0  0  0  0
    4.2439   -2.7073    8.8582 H   0  0  0  0  0  0  0  0  0  0  0  0
    4.6530   -0.7562    9.7116 C   0  0  0  0  0  0  0  0  0  0  0  0
    5.1267   -0.4017    8.7986 H   0  0  0  0  0  0  0  0  0  0  0  0
    5.0362   -0.2938   10.6272 H   0  0  0  0  0  0  0  0  0  0  0  0
    1.8899    2.5053    5.3432 H   0  0  0  0  0  0  0  0  0  0  0  0
   -0.8959    3.7789    6.6471 H   0  0  0  0  0  0  0  0  0  0  0  0
  1  6  1  0  0  0  0
  3 12  2  0  0  0  0
  5 25  1  0  0  0  0
  6 33  1  0  0  0  0
  7  9  1  0  0  0  0
  7 35  1  0  0  0  0
  8 46  1  0  0  0  0
  8 10  1  0  0  0  0
  9  5  2  0  0  0  0
 10  9  1  0  0  0  0
 11 10  2  0  0  0  0
 11 24  1  0  0  0  0
 12 13  1  0  0  0  0
 12 11  1  0  0  0  0
 13 22  1  0  0  0  0
 14 16  1  0  0  0  0
 14 13  2  0  0  0  0
 15 14  1  0  0  0  0
 16 18  2  0  0  0  0
 17 16  1  0  0  0  0
 18 20  1  0  0  0  0
 19 18  1  0  0  0  0
 20 22  2  0  0  0  0
 20 21  1  0  0  0  0
 22 23  1  0  0  0  0
 23  4  2  0  0  0  0
 24 23  1  0  0  0  0
 24 25  2  0  0  0  0
 26 25  1  1  0  0  0
 26 27  1  0  0  0  0
 26  6  1  0  0  0  0
 27 29  2  0  0  0  0
 28 27  1  0  0  0  0
 29 30  1  0  0  0  0
 29 31  1  0  0  0  0
 31 32  1  0  0  0  0
 33 31  2  0  0  0  0
 33 34  1  0  0  0  0
 35 44  1  0  0  0  0
 36 35  2  0  0  0  0
 36 38  1  0  0  0  0
 37 36  1  0  0  0  0
 38 40  2  0  0  0  0
 39 38  1  0  0  0  0
 40 42  1  0  0  0  0
 40 41  1  0  0  0  0
 42 43  1  0  0  0  0
 44 45  1  0  0  0  0
 44 42  2  0  0  0  0
 46 55  1  0  0  0  0
 47 49  1  0  0  0  0
 47 46  2  0  0  0  0
 48 47  1  0  0  0  0
 49 51  2  0  0  0  0
 50 49  1  0  0  0  0
 51 52  1  0  0  0  0
 51 53  1  0  0  0  0
 53 54  1  0  0  0  0
 55 53  2  0  0  0  0
 55 56  1  0  0  0  0
 57 58  1  0  0  0  0
 59 57  1  0  0  0  0
 60 57  1  0  0  0  0
 61 60  1  0  0  0  0
 62 60  1  0  0  0  0
 62  1  1  0  0  0  0
 62 64  1  0  0  0  0
 63 62  1  0  0  0  0
 65  8  1  0  0  0  0
 66  7  1  0  0  0  0
M  END
$$$$
