CSD_code = YUXVUJ | q = 0 | S = 0 | Stoichiometry = C7H9AgClN | MND = 2
 OpenBabel04212202123D

 19 19  0  0  0  0  0  0  0  0999 V2000
   15.8760    2.9279    1.2678 Ag  0  0  0  0  0  0  0  0  0  0  0  0
   14.1268    3.9863    0.3862 Cl  0  0  0  0  0  0  0  0  0  0  0  0
   17.6753    1.8396    2.1839 N   0  0  0  0  0  4  0  0  0  0  0  0
   17.4052    1.4548    3.0874 H   0  0  0  0  0  0  0  0  0  0  0  0
   17.9198    1.0389    1.6041 H   0  0  0  0  0  0  0  0  0  0  0  0
   19.9974    1.8349    3.0067 C   0  0  0  0  0  0  0  0  0  0  0  0
   20.9130    1.1568    2.2120 C   0  0  0  0  0  0  0  0  0  0  0  0
   20.8671    1.2594    1.1367 H   0  0  0  0  0  0  0  0  0  0  0  0
   21.8879    0.3616    2.7884 C   0  0  0  0  0  0  0  0  0  0  0  0
   22.5981   -0.1567    2.1618 H   0  0  0  0  0  0  0  0  0  0  0  0
   21.9526    0.2322    4.1654 C   0  0  0  0  0  0  0  0  0  0  0  0
   22.7138   -0.3871    4.6153 H   0  0  0  0  0  0  0  0  0  0  0  0
   21.0412    0.9015    4.9646 C   0  0  0  0  0  0  0  0  0  0  0  0
   21.0896    0.8054    6.0390 H   0  0  0  0  0  0  0  0  0  0  0  0
   20.0675    1.6971    4.3877 C   0  0  0  0  0  0  0  0  0  0  0  0
   19.3604    2.2236    5.0140 H   0  0  0  0  0  0  0  0  0  0  0  0
   18.8948    2.6497    2.3804 C   0  0  0  0  0  0  0  0  0  0  0  0
   18.6376    3.4971    3.0201 H   0  0  0  0  0  0  0  0  0  0  0  0
   19.2081    3.0315    1.4063 H   0  0  0  0  0  0  0  0  0  0  0  0
  1  3  1  0  0  0  0
  2  1  1  0  0  0  0
  3 17  1  0  0  0  0
  3  4  1  0  0  0  0
  5  3  1  0  0  0  0
  6 15  1  0  0  0  0
  7  9  1  0  0  0  0
  7  6  2  0  0  0  0
  8  7  1  0  0  0  0
  9 11  2  0  0  0  0
 10  9  1  0  0  0  0
 11 12  1  0  0  0  0
 11 13  1  0  0  0  0
 13 14  1  0  0  0  0
 15 13  2  0  0  0  0
 15 16  1  0  0  0  0
 17  6  1  0  0  0  0
 17 18  1  0  0  0  0
 19 17  1  0  0  0  0
M  END
$$$$
