CSD_code = YUXWEU | q = 0 | S = 0 | Stoichiometry = C12H26AgClN2 | MND = 3
 OpenBabel04212202123D

 42 43  0  0  0  0  0  0  0  0999 V2000
    3.8147    0.5314    6.3755 Ag  0  0  0  0  0  0  0  0  0  0  0  0
    3.8148   -1.7798    6.3753 Cl  0  0  0  0  0  0  0  0  0  0  0  0
    5.1442    2.2953    7.5452 N   0  0  0  0  0  4  0  0  0  0  0  0
    6.2935    3.0493    9.6260 C   0  0  0  0  0  0  0  0  0  0  0  0
    5.8947    4.0613    9.5058 H   0  0  0  0  0  0  0  0  0  0  0  0
    7.2655    3.0088    9.1253 H   0  0  0  0  0  0  0  0  0  0  0  0
    5.3499    2.0321    8.9750 C   0  0  0  0  0  0  0  0  0  0  0  0
    4.3672    2.0962    9.4570 H   0  0  0  0  0  0  0  0  0  0  0  0
    5.9018    0.6217    9.1608 C   0  0  0  0  0  0  0  0  0  0  0  0
    6.8673    0.5457    8.6544 H   0  0  0  0  0  0  0  0  0  0  0  0
    5.2188   -0.0968    8.6937 H   0  0  0  0  0  0  0  0  0  0  0  0
    6.0778    0.3052   10.6419 C   0  0  0  0  0  0  0  0  0  0  0  0
    5.1051    0.3333   11.1375 H   0  0  0  0  0  0  0  0  0  0  0  0
    6.4815   -0.7015   10.7555 H   0  0  0  0  0  0  0  0  0  0  0  0
    7.0117    1.3204   11.2956 C   0  0  0  0  0  0  0  0  0  0  0  0
    7.1139    1.1020   12.3601 H   0  0  0  0  0  0  0  0  0  0  0  0
    8.0030    1.2459   10.8426 H   0  0  0  0  0  0  0  0  0  0  0  0
    6.4750    2.7364   11.1089 C   0  0  0  0  0  0  0  0  0  0  0  0
    7.1599    3.4594   11.5569 H   0  0  0  0  0  0  0  0  0  0  0  0
    5.5120    2.8285   11.6165 H   0  0  0  0  0  0  0  0  0  0  0  0
    6.0529    2.2966    7.0873 H   0  0  0  0  0  0  0  0  0  0  0  0
    4.7591    3.2276    7.4279 H   0  0  0  0  0  0  0  0  0  0  0  0
    2.4851    2.2952    5.2058 N   0  0  0  0  0  4  0  0  0  0  0  0
    1.3358    3.0493    3.1250 C   0  0  0  0  0  0  0  0  0  0  0  0
    1.7346    4.0613    3.2452 H   0  0  0  0  0  0  0  0  0  0  0  0
    0.3639    3.0088    3.6256 H   0  0  0  0  0  0  0  0  0  0  0  0
    2.2794    2.0321    3.7760 C   0  0  0  0  0  0  0  0  0  0  0  0
    3.2621    2.0962    3.2940 H   0  0  0  0  0  0  0  0  0  0  0  0
    1.7274    0.6217    3.5902 C   0  0  0  0  0  0  0  0  0  0  0  0
    0.7620    0.5457    4.0965 H   0  0  0  0  0  0  0  0  0  0  0  0
    2.4105   -0.0968    4.0573 H   0  0  0  0  0  0  0  0  0  0  0  0
    1.5515    0.3052    2.1091 C   0  0  0  0  0  0  0  0  0  0  0  0
    2.5242    0.3333    1.6135 H   0  0  0  0  0  0  0  0  0  0  0  0
    1.1478   -0.7015    1.9955 H   0  0  0  0  0  0  0  0  0  0  0  0
    0.6177    1.3204    1.4553 C   0  0  0  0  0  0  0  0  0  0  0  0
    0.5155    1.1020    0.3909 H   0  0  0  0  0  0  0  0  0  0  0  0
   -0.3736    1.2459    1.9084 H   0  0  0  0  0  0  0  0  0  0  0  0
    1.1544    2.7363    1.6420 C   0  0  0  0  0  0  0  0  0  0  0  0
    0.4695    3.4594    1.1941 H   0  0  0  0  0  0  0  0  0  0  0  0
    2.1173    2.8285    1.1345 H   0  0  0  0  0  0  0  0  0  0  0  0
    1.5764    2.2966    5.6636 H   0  0  0  0  0  0  0  0  0  0  0  0
    2.8702    3.2276    5.3231 H   0  0  0  0  0  0  0  0  0  0  0  0
  1  3  1  0  0  0  0
  2  1  1  0  0  0  0
  3  7  1  0  0  0  0
  4 18  1  0  0  0  0
  5  4  1  0  0  0  0
  6  4  1  0  0  0  0
  7  9  1  0  0  0  0
  7  8  1  0  0  0  0
  7  4  1  0  0  0  0
  9 12  1  0  0  0  0
 10  9  1  0  0  0  0
 11  9  1  0  0  0  0
 12 14  1  0  0  0  0
 12 13  1  0  0  0  0
 12 15  1  0  0  0  0
 15 16  1  0  0  0  0
 17 15  1  0  0  0  0
 18 15  1  0  0  0  0
 18 19  1  0  0  0  0
 18 20  1  0  0  0  0
 21  3  1  0  0  0  0
 22  3  1  0  0  0  0
 23 42  1  0  0  0  0
 23 41  1  0  0  0  0
 23  1  1  0  0  0  0
 24 25  1  0  0  0  0
 24 26  1  0  0  0  0
 24 27  1  0  0  0  0
 27 23  1  0  0  0  0
 28 27  1  0  0  0  0
 29 27  1  0  0  0  0
 29 31  1  0  0  0  0
 29 30  1  0  0  0  0
 32 29  1  0  0  0  0
 33 32  1  0  0  0  0
 34 32  1  0  0  0  0
 35 38  1  0  0  0  0
 35 37  1  0  0  0  0
 35 32  1  0  0  0  0
 36 35  1  0  0  0  0
 38 24  1  0  0  0  0
 39 38  1  0  0  0  0
 40 38  1  0  0  0  0
M  END
$$$$
