CSD_code = YUXWAQ | q = 0 | S = 0 | Stoichiometry = C7H9AgBrN | MND = 2
 OpenBabel04212202123D

 19 19  0  0  0  0  0  0  0  0999 V2000
    1.3693    2.5955    8.4563 Ag  0  0  0  0  0  0  0  0  0  0  0  0
    0.1407    2.4238    6.4516 Br  0  0  0  0  0  0  0  0  0  0  0  0
    2.5705    2.7674   10.4251 N   0  0  0  0  0  4  0  0  0  0  0  0
    3.0856    1.9042   10.5882 H   0  0  0  0  0  0  0  0  0  0  0  0
    3.2765    3.4955   10.3332 H   0  0  0  0  0  0  0  0  0  0  0  0
    2.6402    3.1514   12.8591 C   0  0  0  0  0  0  0  0  0  0  0  0
    3.2959    4.3391   13.1605 C   0  0  0  0  0  0  0  0  0  0  0  0
    3.1337    5.2119   12.5427 H   0  0  0  0  0  0  0  0  0  0  0  0
    4.1444    4.4143   14.2505 C   0  0  0  0  0  0  0  0  0  0  0  0
    4.6455    5.3433   14.4780 H   0  0  0  0  0  0  0  0  0  0  0  0
    4.3481    3.3009   15.0483 C   0  0  0  0  0  0  0  0  0  0  0  0
    5.0086    3.3598   15.9002 H   0  0  0  0  0  0  0  0  0  0  0  0
    3.7004    2.1133   14.7535 C   0  0  0  0  0  0  0  0  0  0  0  0
    3.8544    1.2435   15.3744 H   0  0  0  0  0  0  0  0  0  0  0  0
    2.8531    2.0382   13.6620 C   0  0  0  0  0  0  0  0  0  0  0  0
    2.3462    1.1102   13.4358 H   0  0  0  0  0  0  0  0  0  0  0  0
    1.7710    3.0569   11.6316 C   0  0  0  0  0  0  0  0  0  0  0  0
    1.0329    2.2599   11.7487 H   0  0  0  0  0  0  0  0  0  0  0  0
    1.2415    3.9989   11.4678 H   0  0  0  0  0  0  0  0  0  0  0  0
  1  3  1  0  0  0  0
  2  1  1  0  0  0  0
  3  4  1  0  0  0  0
  3 17  1  0  0  0  0
  5  3  1  0  0  0  0
  6  7  2  0  0  0  0
  6 15  1  0  0  0  0
  7  9  1  0  0  0  0
  8  7  1  0  0  0  0
  9 10  1  0  0  0  0
  9 11  2  0  0  0  0
 11 12  1  0  0  0  0
 13 11  1  0  0  0  0
 13 14  1  0  0  0  0
 15 13  2  0  0  0  0
 16 15  1  0  0  0  0
 17 18  1  0  0  0  0
 17  6  1  0  0  0  0
 19 17  1  0  0  0  0
M  END
$$$$
