CSD_code = YUXZUN | q = 0 | S = 0 | Stoichiometry = C8H18Cl4N2O2Pt | MND = 6
 OpenBabel04212202123D

 35 34  0  0  1  0  0  0  0  0999 V2000
    0.8845   -2.0075    9.5673 Pt  0  0  0  0  0  0  0  0  0  0  0  0
    2.7390   -1.4904    8.1772 Cl  0  0  0  0  0  0  0  0  0  0  0  0
    1.7345   -4.1824    9.9694 Cl  0  0  0  0  0  0  0  0  0  0  0  0
   -1.2861   -3.5397    6.2213 O   0  0  0  0  0  0  0  0  0  0  0  0
    0.0968   -2.8373    7.9093 N   0  0  0  0  0  0  0  0  0  0  0  0
    0.8214   -3.4224    7.4860 H   0  0  0  0  0  0  0  0  0  0  0  0
   -1.0358   -2.8363    7.3124 C   0  0  1  0  0  3  0  0  0  0  0  0
   -2.2062   -2.0163    7.7493 C   0  0  0  0  0  0  0  0  0  0  0  0
   -2.0533   -1.6704    8.7708 H   0  0  0  0  0  0  0  0  0  0  0  0
   -3.0970   -2.6445    7.7048 H   0  0  0  0  0  0  0  0  0  0  0  0
   -2.3774   -0.8155    6.8135 C   0  0  0  0  0  0  0  0  0  0  0  0
   -1.5104   -0.1641    6.8801 H   0  0  0  0  0  0  0  0  0  0  0  0
   -3.2539   -0.2496    7.1141 H   0  0  0  0  0  0  0  0  0  0  0  0
   -2.5042   -1.1430    5.7847 H   0  0  0  0  0  0  0  0  0  0  0  0
   -0.2717   -4.3444    5.6344 C   0  0  0  0  0  0  0  0  0  0  0  0
    0.5809   -3.7380    5.3172 H   0  0  0  0  0  0  0  0  0  0  0  0
   -0.7359   -4.8008    4.7626 H   0  0  0  0  0  0  0  0  0  0  0  0
    0.0592   -5.1273    6.3219 H   0  0  0  0  0  0  0  0  0  0  0  0
   -0.9661   -2.5234   10.9616 Cl  0  0  0  0  0  0  0  0  0  0  0  0
    0.0367    0.1684    9.1687 Cl  0  0  0  0  0  0  0  0  0  0  0  0
    3.0554   -0.4746   12.9137 O   0  0  0  0  0  0  0  0  0  0  0  0
    1.6724   -1.1768   11.2254 N   0  0  0  0  0  0  0  0  0  0  0  0
    0.9477   -0.5918   11.6487 H   0  0  0  0  0  0  0  0  0  0  0  0
    2.8050   -1.1778   11.8225 C   0  0  2  0  0  3  0  0  0  0  0  0
    3.9755   -1.9979   11.3857 C   0  0  0  0  0  0  0  0  0  0  0  0
    3.8227   -2.3437   10.3642 H   0  0  0  0  0  0  0  0  0  0  0  0
    4.8663   -1.3696   11.4304 H   0  0  0  0  0  0  0  0  0  0  0  0
    4.1469   -3.1985   12.3216 C   0  0  0  0  0  0  0  0  0  0  0  0
    3.2800   -3.8500   12.2552 H   0  0  0  0  0  0  0  0  0  0  0  0
    5.0234   -3.7645   12.0212 H   0  0  0  0  0  0  0  0  0  0  0  0
    4.2737   -2.8710   13.3504 H   0  0  0  0  0  0  0  0  0  0  0  0
    2.0412    0.3302   13.5009 C   0  0  0  0  0  0  0  0  0  0  0  0
    1.1886   -0.2761   13.8182 H   0  0  0  0  0  0  0  0  0  0  0  0
    2.5056    0.7865   14.3727 H   0  0  0  0  0  0  0  0  0  0  0  0
    1.7103    1.1133   12.8135 H   0  0  0  0  0  0  0  0  0  0  0  0
  1  3  1  0  0  0  0
  1 19  1  0  0  0  0
  1 22  1  0  0  0  0
  2  1  1  0  0  0  0
  5  1  1  0  0  0  0
  6  5  1  0  0  0  0
  7  4  1  6  0  0  0
  7  8  1  0  0  0  0
  7  5  1  0  0  0  0
  8  9  1  0  0  0  0
 10  8  1  0  0  0  0
 11 12  1  0  0  0  0
 11 13  1  0  0  0  0
 11  8  1  0  0  0  0
 14 11  1  0  0  0  0
 15  4  1  0  0  0  0
 15 18  1  0  0  0  0
 16 15  1  0  0  0  0
 17 15  1  0  0  0  0
 20  1  1  0  0  0  0
 21 32  1  0  0  0  0
 22 23  1  0  0  0  0
 22 24  1  0  0  0  0
 24 21  1  1  0  0  0
 25 27  1  0  0  0  0
 25 24  1  0  0  0  0
 25 28  1  0  0  0  0
 26 25  1  0  0  0  0
 28 31  1  0  0  0  0
 29 28  1  0  0  0  0
 30 28  1  0  0  0  0
 32 33  1  0  0  0  0
 32 34  1  0  0  0  0
 35 32  1  0  0  0  0
M  END
$$$$
