CSD_code = YUXZOH | q = 0 | S = 0 | Stoichiometry = C8H18Cl2N2O2Pt | MND = 4
 OpenBabel04212202123D

 33 32  0  0  1  0  0  0  0  0999 V2000
    0.0003    0.0000    0.0002 Pt  0  0  0  0  0  0  0  0  0  0  0  0
   -1.8453    1.3478    0.4440 Cl  0  0  0  0  0  0  0  0  0  0  0  0
    2.3329    2.3406    2.6178 O   0  0  0  0  0  0  0  0  0  0  0  0
    1.0614    0.7623    1.4992 N   0  0  0  0  0  0  0  0  0  0  0  0
    1.3986    0.0601    2.1601 H   0  0  0  0  0  0  0  0  0  0  0  0
    1.5057    1.9484    1.6487 C   0  0  2  0  0  3  0  0  0  0  0  0
    2.8072    1.3937    3.5617 C   0  0  0  0  0  0  0  0  0  0  0  0
    1.9858    0.9796    4.1532 H   0  0  0  0  0  0  0  0  0  0  0  0
    3.4802    1.9453    4.2145 H   0  0  0  0  0  0  0  0  0  0  0  0
    3.3578    0.5871    3.0690 H   0  0  0  0  0  0  0  0  0  0  0  0
    1.1348    3.0563    0.7111 C   0  0  0  0  0  0  0  0  0  0  0  0
    1.5332    3.9903    1.1071 H   0  0  0  0  0  0  0  0  0  0  0  0
    0.0442    3.1084    0.6666 H   0  0  0  0  0  0  0  0  0  0  0  0
    1.6731    2.7874   -0.6954 C   0  0  0  0  0  0  0  0  0  0  0  0
    2.7586    2.7261   -0.6924 H   0  0  0  0  0  0  0  0  0  0  0  0
    1.3655    3.5848   -1.3653 H   0  0  0  0  0  0  0  0  0  0  0  0
    1.2681    1.8405   -1.0701 H   0  0  0  0  0  0  0  0  0  0  0  0
    1.8436   -1.3508   -0.4459 Cl  0  0  0  0  0  0  0  0  0  0  0  0
   -2.3328   -2.3403   -2.6176 O   0  0  0  0  0  0  0  0  0  0  0  0
   -1.0612   -0.7620   -1.4989 N   0  0  0  0  0  0  0  0  0  0  0  0
   -1.3983   -0.0598   -2.1600 H   0  0  0  0  0  0  0  0  0  0  0  0
   -1.5056   -1.9481   -1.6485 C   0  0  1  0  0  3  0  0  0  0  0  0
   -2.8072   -1.3936   -3.5616 C   0  0  0  0  0  0  0  0  0  0  0  0
   -1.9858   -0.9795   -4.1532 H   0  0  0  0  0  0  0  0  0  0  0  0
   -3.4801   -1.9452   -4.2144 H   0  0  0  0  0  0  0  0  0  0  0  0
   -3.3578   -0.5869   -3.0690 H   0  0  0  0  0  0  0  0  0  0  0  0
   -1.1346   -3.0561   -0.7110 C   0  0  0  0  0  0  0  0  0  0  0  0
   -1.5332   -3.9899   -1.1070 H   0  0  0  0  0  0  0  0  0  0  0  0
   -0.0440   -3.1081   -0.6665 H   0  0  0  0  0  0  0  0  0  0  0  0
   -1.6730   -2.7872    0.6955 C   0  0  0  0  0  0  0  0  0  0  0  0
   -2.7585   -2.7260    0.6924 H   0  0  0  0  0  0  0  0  0  0  0  0
   -1.3656   -3.5847    1.3654 H   0  0  0  0  0  0  0  0  0  0  0  0
   -1.2681   -1.8405    1.0702 H   0  0  0  0  0  0  0  0  0  0  0  0
  1  2  1  0  0  0  0
  1  4  1  0  0  0  0
  3  7  1  0  0  0  0
  4  6  1  0  0  0  0
  4  5  1  0  0  0  0
  6  3  1  6  0  0  0
  7  8  1  0  0  0  0
  7  9  1  0  0  0  0
 10  7  1  0  0  0  0
 11 12  1  0  0  0  0
 11  6  1  0  0  0  0
 13 11  1  0  0  0  0
 14 15  1  0  0  0  0
 14 11  1  0  0  0  0
 16 14  1  0  0  0  0
 17 14  1  0  0  0  0
 18  1  1  0  0  0  0
 20  1  1  0  0  0  0
 21 20  1  0  0  0  0
 22 19  1  1  0  0  0
 22 20  1  0  0  0  0
 22 27  1  0  0  0  0
 23 26  1  0  0  0  0
 23 19  1  0  0  0  0
 24 23  1  0  0  0  0
 25 23  1  0  0  0  0
 27 29  1  0  0  0  0
 27 30  1  0  0  0  0
 28 27  1  0  0  0  0
 30 33  1  0  0  0  0
 30 32  1  0  0  0  0
 31 30  1  0  0  0  0
M  END
$$$$
