CSD_code = YUYSES | q = 0 | S = 0 | Stoichiometry = C26H29ClN2NiO | MND = 7
 OpenBabel04212202123D

 60 64  0  0  1  0  0  0  0  0999 V2000
    9.6171    4.5603    4.6307 Ni  0  0  1  0  0  0  0  0  0  0  0  0
    9.4790    3.5851    2.7928 Cl  0  0  0  0  0  0  0  0  0  0  0  0
    5.8006    8.0108    4.0327 O   0  0  0  0  0  0  0  0  0  0  0  0
    7.4110    6.4314    4.5183 N   0  0  0  0  0  0  0  0  0  0  0  0
    8.8664    6.7628    2.9395 N   0  0  0  0  0  0  0  0  0  0  0  0
   10.2317    5.0727    6.5399 C   0  0  2  0  0  0  0  0  0  0  0  0
   10.2072    6.0211    7.0586 H   0  0  0  0  0  0  0  0  0  0  0  0
   11.3568    4.5305    5.8705 C   0  0  0  0  0  3  0  0  0  0  0  0
   12.3072    5.0140    5.7096 H   0  0  0  0  0  0  0  0  0  0  0  0
   11.0048    3.2313    5.4864 C   0  0  1  0  0  0  0  0  0  0  0  0
   11.6524    2.5177    4.9983 H   0  0  0  0  0  0  0  0  0  0  0  0
    9.7324    2.8994    6.0843 C   0  0  0  0  0  0  0  0  0  0  0  0
    9.2847    1.9188    6.0744 H   0  0  0  0  0  0  0  0  0  0  0  0
    9.2705    4.0182    6.7492 C   0  0  0  0  0  0  0  0  0  0  0  0
    8.3966    4.0912    7.3737 H   0  0  0  0  0  0  0  0  0  0  0  0
    8.6172    6.0204    4.0080 C   0  0  2  0  0  3  0  0  0  0  0  0
    6.8429    7.4618    3.7976 C   0  0  0  0  0  0  0  0  0  0  0  0
    7.8236    7.7259    2.6737 C   0  0  0  0  0  0  0  0  0  0  0  0
    7.3541    7.5640    1.7007 H   0  0  0  0  0  0  0  0  0  0  0  0
    8.2035    8.7513    2.7025 H   0  0  0  0  0  0  0  0  0  0  0  0
   10.0380    6.7159    2.1297 C   0  0  0  0  0  0  0  0  0  0  0  0
   11.2255    7.2472    2.6360 C   0  0  0  0  0  0  0  0  0  0  0  0
   12.3593    7.2164    1.8396 C   0  0  0  0  0  0  0  0  0  0  0  0
   13.2844    7.6183    2.2274 H   0  0  0  0  0  0  0  0  0  0  0  0
   12.3300    6.6808    0.5606 C   0  0  0  0  0  0  0  0  0  0  0  0
   11.1306    6.1783    0.0778 C   0  0  0  0  0  0  0  0  0  0  0  0
   11.0965    5.7580   -0.9166 H   0  0  0  0  0  0  0  0  0  0  0  0
    9.9727    6.1862    0.8403 C   0  0  0  0  0  0  0  0  0  0  0  0
    8.7009    5.6312    0.2785 C   0  0  0  0  0  0  0  0  0  0  0  0
    8.1476    5.0965    1.0458 H   0  0  0  0  0  0  0  0  0  0  0  0
    8.9259    4.9329   -0.5220 H   0  0  0  0  0  0  0  0  0  0  0  0
    8.0797    6.4269   -0.1356 H   0  0  0  0  0  0  0  0  0  0  0  0
   11.2702    7.8491    4.0087 C   0  0  0  0  0  0  0  0  0  0  0  0
   10.5638    8.6750    4.0967 H   0  0  0  0  0  0  0  0  0  0  0  0
   12.2666    8.2219    4.2296 H   0  0  0  0  0  0  0  0  0  0  0  0
   11.0062    7.0964    4.7532 H   0  0  0  0  0  0  0  0  0  0  0  0
   13.5678    6.6254   -0.2803 C   0  0  0  0  0  0  0  0  0  0  0  0
   13.3409    6.8628   -1.3174 H   0  0  0  0  0  0  0  0  0  0  0  0
   13.9865    5.6196   -0.2521 H   0  0  0  0  0  0  0  0  0  0  0  0
   14.3212    7.3184    0.0856 H   0  0  0  0  0  0  0  0  0  0  0  0
    6.7933    5.8956    5.6895 C   0  0  0  0  0  0  0  0  0  0  0  0
    6.8329    6.6394    6.8669 C   0  0  0  0  0  0  0  0  0  0  0  0
    6.2180    6.1168    7.9945 C   0  0  0  0  0  0  0  0  0  0  0  0
    6.2458    6.6793    8.9167 H   0  0  0  0  0  0  0  0  0  0  0  0
    5.5706    4.8897    7.9629 C   0  0  0  0  0  0  0  0  0  0  0  0
    5.5417    4.1782    6.7712 C   0  0  0  0  0  0  0  0  0  0  0  0
    5.0398    3.2221    6.7367 H   0  0  0  0  0  0  0  0  0  0  0  0
    6.1446    4.6630    5.6206 C   0  0  0  0  0  0  0  0  0  0  0  0
    6.1241    3.8839    4.3448 C   0  0  0  0  0  0  0  0  0  0  0  0
    5.7241    4.4858    3.5297 H   0  0  0  0  0  0  0  0  0  0  0  0
    5.5199    2.9876    4.4492 H   0  0  0  0  0  0  0  0  0  0  0  0
    7.1430    3.5860    4.0721 H   0  0  0  0  0  0  0  0  0  0  0  0
    4.8936    4.3514    9.1861 C   0  0  0  0  0  0  0  0  0  0  0  0
    5.3568    4.7386   10.0905 H   0  0  0  0  0  0  0  0  0  0  0  0
    4.9326    3.2647    9.2048 H   0  0  0  0  0  0  0  0  0  0  0  0
    3.8451    4.6503    9.1886 H   0  0  0  0  0  0  0  0  0  0  0  0
    7.5201    7.9702    6.9083 C   0  0  0  0  0  0  0  0  0  0  0  0
    8.5005    7.9172    6.4354 H   0  0  0  0  0  0  0  0  0  0  0  0
    7.6430    8.3057    7.9347 H   0  0  0  0  0  0  0  0  0  0  0  0
    6.9256    8.7109    6.3731 H   0  0  0  0  0  0  0  0  0  0  0  0
  1  2  1  1  0  0  0
  1 10  1  0  0  0  0
  1  6  1  0  0  0  0
  4 41  1  0  0  0  0
  6 14  1  0  0  0  0
  6  7  1  1  0  0  0
  8  6  1  0  0  0  0
  9  8  1  0  0  0  0
 10 11  1  6  0  0  0
 10  8  1  0  0  0  0
 10 12  1  0  0  0  0
 12 14  2  0  0  0  0
 13 12  1  0  0  0  0
 14 15  1  0  0  0  0
 16  5  1  6  0  0  0
 16  4  1  0  0  0  0
 16  1  1  0  0  0  0
 17  3  2  0  0  0  0
 17  4  1  0  0  0  0
 18 20  1  0  0  0  0
 18  5  1  0  0  0  0
 18 17  1  0  0  0  0
 19 18  1  0  0  0  0
 21 22  1  0  0  0  0
 21  5  1  0  0  0  0
 22 33  1  0  0  0  0
 23 24  1  0  0  0  0
 23 22  2  0  0  0  0
 25 23  1  0  0  0  0
 26 25  2  0  0  0  0
 26 28  1  0  0  0  0
 27 26  1  0  0  0  0
 28 21  2  0  0  0  0
 29 28  1  0  0  0  0
 29 30  1  0  0  0  0
 31 29  1  0  0  0  0
 32 29  1  0  0  0  0
 33 34  1  0  0  0  0
 33 35  1  0  0  0  0
 33 36  1  0  0  0  0
 37 39  1  0  0  0  0
 37 40  1  0  0  0  0
 37 25  1  0  0  0  0
 38 37  1  0  0  0  0
 41 42  1  0  0  0  0
 42 57  1  0  0  0  0
 42 43  2  0  0  0  0
 43 44  1  0  0  0  0
 45 43  1  0  0  0  0
 45 53  1  0  0  0  0
 46 45  2  0  0  0  0
 47 46  1  0  0  0  0
 48 41  2  0  0  0  0
 48 46  1  0  0  0  0
 49 51  1  0  0  0  0
 49 48  1  0  0  0  0
 50 49  1  0  0  0  0
 52 49  1  0  0  0  0
 53 56  1  0  0  0  0
 53 55  1  0  0  0  0
 53 54  1  0  0  0  0
 57 59  1  0  0  0  0
 58 57  1  0  0  0  0
 60 57  1  0  0  0  0
M  END
$$$$
