CSD_code = YUYTOD | q = 0 | S = 0 | Stoichiometry = C15H22BrMnN2O5 | MND = 6
 OpenBabel04212202123D

 46 45  0  0  0  0  0  0  0  0999 V2000
    5.0936   -1.5436    4.1103 C   0  0  0  0  0  2  0  0  0  0  0  0
    5.1502    0.5244    2.6724 C   0  0  0  0  0  2  0  0  0  0  0  0
    6.6754   -1.4891    2.0392 C   0  0  0  0  0  2  0  0  0  0  0  0
    7.6359    0.8340    3.0234 C   0  0  0  0  0  2  0  0  0  0  0  0
    8.8261    3.0087    2.4892 C   0  0  0  0  0  0  0  0  0  0  0  0
    9.4310    2.9023    1.5823 H   0  0  0  0  0  0  0  0  0  0  0  0
    9.4640    3.3685    3.3003 H   0  0  0  0  0  0  0  0  0  0  0  0
    7.6509    4.0135    2.2637 C   0  0  0  0  0  0  0  0  0  0  0  0
    7.0342    4.3835    3.6141 C   0  0  0  0  0  0  0  0  0  0  0  0
    6.1843    5.0394    3.4517 H   0  0  0  0  0  0  0  0  0  0  0  0
    7.7596    4.8881    4.2456 H   0  0  0  0  0  0  0  0  0  0  0  0
    6.6770    3.4943    4.1263 H   0  0  0  0  0  0  0  0  0  0  0  0
    8.2102    5.2622    1.5742 C   0  0  0  0  0  0  0  0  0  0  0  0
    8.7306    5.0146    0.6515 H   0  0  0  0  0  0  0  0  0  0  0  0
    8.9077    5.7653    2.2382 H   0  0  0  0  0  0  0  0  0  0  0  0
    7.3939    5.9427    1.3455 H   0  0  0  0  0  0  0  0  0  0  0  0
    6.8254    3.0334    0.2046 C   0  0  0  0  0  0  0  0  0  0  0  0
    7.0153    3.9004   -0.4358 H   0  0  0  0  0  0  0  0  0  0  0  0
    5.9049    2.5513   -0.1210 H   0  0  0  0  0  0  0  0  0  0  0  0
    7.6502    2.3188    0.1016 H   0  0  0  0  0  0  0  0  0  0  0  0
    7.5812   -1.3755    4.6176 C   0  0  0  0  0  2  0  0  0  0  0  0
    8.6689   -2.4202    6.6574 C   0  0  0  0  0  0  0  0  0  0  0  0
    8.6462   -1.6672    7.4525 H   0  0  0  0  0  0  0  0  0  0  0  0
    9.6984   -2.7588    6.5164 H   0  0  0  0  0  0  0  0  0  0  0  0
    7.7607   -3.6358    7.0238 C   0  0  0  0  0  0  0  0  0  0  0  0
    8.1145   -4.0862    8.4453 C   0  0  0  0  0  0  0  0  0  0  0  0
    8.0296   -3.2672    9.1554 H   0  0  0  0  0  0  0  0  0  0  0  0
    9.1344   -4.4602    8.4702 H   0  0  0  0  0  0  0  0  0  0  0  0
    7.4414   -4.8842    8.7483 H   0  0  0  0  0  0  0  0  0  0  0  0
    8.0136   -4.7713    6.0278 C   0  0  0  0  0  0  0  0  0  0  0  0
    7.3665   -5.6095    6.2688 H   0  0  0  0  0  0  0  0  0  0  0  0
    9.0495   -5.0968    6.0639 H   0  0  0  0  0  0  0  0  0  0  0  0
    7.7733   -4.4376    5.0211 H   0  0  0  0  0  0  0  0  0  0  0  0
    5.8227   -2.3433    7.7054 C   0  0  0  0  0  0  0  0  0  0  0  0
    5.8389   -2.6489    8.7554 H   0  0  0  0  0  0  0  0  0  0  0  0
    4.7874   -2.2575    7.3813 H   0  0  0  0  0  0  0  0  0  0  0  0
    6.3007   -1.3648    7.6021 H   0  0  0  0  0  0  0  0  0  0  0  0
    6.3924   -0.4827    3.4800 Mn  0  0  0  0  0  0  0  0  0  0  0  0
    8.3183    1.7581    2.8313 N   0  0  0  0  0  2  0  0  0  0  0  0
    8.2173   -1.8219    5.4842 N   0  0  0  0  0  2  0  0  0  0  0  0
    4.2379   -2.1726    4.5295 O   0  0  0  0  0  1  0  0  0  0  0  0
    4.3326    1.1624    2.1954 O   0  0  0  0  0  1  0  0  0  0  0  0
    6.8153   -2.1329    1.0971 O   0  0  0  0  0  1  0  0  0  0  0  0
    6.5967    3.4012    1.5430 O   0  0  0  0  0  0  0  0  0  0  0  0
    6.3933   -3.3204    6.8599 O   0  0  0  0  0  0  0  0  0  0  0  0
    5.9944    0.9686    5.5778 Br  0  0  0  0  0  0  0  0  0  0  0  0
  1 41  1  0  0  0  0
  2 38  1  0  0  0  0
  3 38  1  0  0  0  0
  4 38  1  0  0  0  0
  5 39  1  0  0  0  0
  5  7  1  0  0  0  0
  6  5  1  0  0  0  0
  8  5  1  0  0  0  0
  8  9  1  0  0  0  0
  9 12  1  0  0  0  0
  9 11  1  0  0  0  0
 10  9  1  0  0  0  0
 13 15  1  0  0  0  0
 13  8  1  0  0  0  0
 14 13  1  0  0  0  0
 16 13  1  0  0  0  0
 17 44  1  0  0  0  0
 18 17  1  0  0  0  0
 19 17  1  0  0  0  0
 20 17  1  0  0  0  0
 21 40  1  0  0  0  0
 22 25  1  0  0  0  0
 22 23  1  0  0  0  0
 24 22  1  0  0  0  0
 25 26  1  0  0  0  0
 26 28  1  0  0  0  0
 26 29  1  0  0  0  0
 26 27  1  0  0  0  0
 30 32  1  0  0  0  0
 30 31  1  0  0  0  0
 30 25  1  0  0  0  0
 33 30  1  0  0  0  0
 34 35  1  0  0  0  0
 36 34  1  0  0  0  0
 37 34  1  0  0  0  0
 38  1  1  0  0  0  0
 38 21  1  0  0  0  0
 38 46  1  0  0  0  0
 39  4  1  0  0  0  0
 40 22  1  0  0  0  0
 42  2  1  0  0  0  0
 43  3  1  0  0  0  0
 44  8  1  0  0  0  0
 45 25  1  0  0  0  0
 45 34  1  0  0  0  0
M  END
$$$$
