CSD_code = ZABFEN | q = 0 | S = 0 | Stoichiometry = C20H15ClN2Pd | MND = 4
 OpenBabel04212202123D

 39 43  0  0  0  0  0  0  0  0999 V2000
    0.5463    0.7923    2.8483 Pd  0  0  2  0  0  0  0  0  0  0  0  0
    2.5368    2.0109    2.7148 Cl  0  0  0  0  0  0  0  0  0  0  0  0
    1.0008   -0.5540    1.4686 N   0  0  0  0  0  0  0  0  0  0  0  0
    0.0661    2.0969    4.2119 N   0  0  0  0  0  0  0  0  0  0  0  0
    0.0781   -1.5161    1.2361 C   0  0  0  0  0  0  0  0  0  0  0  0
    0.3180   -2.5084    0.2857 C   0  0  0  0  0  0  0  0  0  0  0  0
    1.5031   -2.5099   -0.4246 C   0  0  0  0  0  0  0  0  0  0  0  0
    2.4341   -1.5131   -0.1729 C   0  0  0  0  0  0  0  0  0  0  0  0
    2.1408   -0.5554    0.7828 C   0  0  0  0  0  0  0  0  0  0  0  0
   -1.1324   -1.4021    2.0454 C   0  0  0  0  0  0  0  0  0  0  0  0
   -2.1980   -2.2708    1.9739 C   0  0  0  0  0  0  0  0  0  0  0  0
   -3.3310   -2.0878    2.7866 C   0  0  0  0  0  0  0  0  0  0  0  0
   -3.3586   -0.9892    3.6857 C   0  0  0  0  0  0  0  0  0  0  0  0
   -2.2486   -0.1141    3.7397 C   0  0  0  0  0  0  0  0  0  0  0  0
   -1.1410   -0.2888    2.9470 C   0  0  0  0  0  0  0  0  0  0  0  0
   -4.4391   -2.9600    2.7351 C   0  0  0  0  0  0  0  0  0  0  0  0
   -5.5269   -2.7549    3.5360 C   0  0  0  0  0  0  0  0  0  0  0  0
   -5.5551   -1.6684    4.4247 C   0  0  0  0  0  0  0  0  0  0  0  0
   -4.4963   -0.8067    4.4980 C   0  0  0  0  0  0  0  0  0  0  0  0
    0.3490    1.8611    5.4929 C   0  0  0  0  0  3  0  0  0  0  0  0
    0.3121    2.8564    6.4536 C   0  0  0  0  0  0  0  0  0  0  0  0
   -0.0354    4.1440    6.0735 C   0  0  0  0  0  0  0  0  0  0  0  0
   -0.3336    4.3822    4.7400 C   0  0  0  0  0  0  0  0  0  0  0  0
   -0.2688    3.3326    3.8411 C   0  0  0  0  0  0  0  0  0  0  0  0
   -0.4223   -3.2714    0.1079 H   0  0  0  0  0  0  0  0  0  0  0  0
    1.6981   -3.2742   -1.1620 H   0  0  0  0  0  0  0  0  0  0  0  0
    3.3712   -1.4748   -0.7043 H   0  0  0  0  0  0  0  0  0  0  0  0
    2.8423    0.2413    1.0115 H   0  0  0  0  0  0  0  0  0  0  0  0
   -2.1914   -3.1120    1.2947 H   0  0  0  0  0  0  0  0  0  0  0  0
   -2.3063    0.7143    4.4395 H   0  0  0  0  0  0  0  0  0  0  0  0
   -4.4113   -3.7946    2.0484 H   0  0  0  0  0  0  0  0  0  0  0  0
   -6.3726   -3.4256    3.4917 H   0  0  0  0  0  0  0  0  0  0  0  0
   -6.4230   -1.5201    5.0511 H   0  0  0  0  0  0  0  0  0  0  0  0
    0.6192    0.8376    5.7471 H   0  0  0  0  0  0  0  0  0  0  0  0
    0.5579    2.6268    7.4783 H   0  0  0  0  0  0  0  0  0  0  0  0
   -0.0682    4.9435    6.7977 H   0  0  0  0  0  0  0  0  0  0  0  0
   -0.6027    5.3692    4.3988 H   0  0  0  0  0  0  0  0  0  0  0  0
   -0.4796    3.4782    2.7830 H   0  0  0  0  0  0  0  0  0  0  0  0
   -4.5163    0.0305    5.1821 H   0  0  0  0  0  0  0  0  0  0  0  0
  1  2  1  1  0  0  0
  1 15  2  0  0  0  0
  1  4  1  0  0  0  0
  3  1  1  0  0  0  0
  4 20  1  0  0  0  0
  5  3  1  0  0  0  0
  5 10  2  0  0  0  0
  6  5  1  0  0  0  0
  7  8  1  0  0  0  0
  7  6  2  0  0  0  0
  8  9  2  0  0  0  0
  9 28  1  0  0  0  0
  9  3  1  0  0  0  0
 10 15  1  0  0  0  0
 11 10  1  0  0  0  0
 11 12  2  0  0  0  0
 12 13  1  0  0  0  0
 13 14  2  0  0  0  0
 13 19  1  0  0  0  0
 14 30  1  0  0  0  0
 15 14  1  0  0  0  0
 16 12  1  0  0  0  0
 16 17  2  0  0  0  0
 17 18  1  0  0  0  0
 18 19  2  0  0  0  0
 18 33  1  0  0  0  0
 19 39  1  0  0  0  0
 20 34  1  0  0  0  0
 20 21  1  0  0  0  0
 21 35  1  0  0  0  0
 22 21  2  0  0  0  0
 22 36  1  0  0  0  0
 23 22  1  0  0  0  0
 24  4  1  0  0  0  0
 24 23  2  0  0  0  0
 25  6  1  0  0  0  0
 26  7  1  0  0  0  0
 27  8  1  0  0  0  0
 29 11  1  0  0  0  0
 31 16  1  0  0  0  0
 32 17  1  0  0  0  0
 37 23  1  0  0  0  0
 38 24  1  0  0  0  0
M  END
$$$$
