CSD_code = ZACHOD | q = 1 | S = 0 | Stoichiometry = C23H20ClN6Os(1+) | MND = 6
 OpenBabel04212202123D

 51 57  0  0  1  0  0  0  0  0999 V2000
   17.4464    5.7513    7.5663 Os  0  0  0  0  0  0  0  0  0  0  0  0
   18.2985    7.9306    7.1477 Cl  0  0  0  0  0  0  0  0  0  0  0  0
   16.3216    6.2600    9.1527 N   0  0  0  0  0  0  0  0  0  0  0  0
   15.7565    6.2877    6.4212 N   0  0  2  0  0  0  0  0  0  0  0  0
   18.6050    5.2283    6.0184 N   0  0  0  0  0  0  0  0  0  0  0  0
   19.1552    5.3918    8.5272 N   0  0  0  0  0  0  0  0  0  0  0  0
   16.6657    3.9774    8.0207 N   0  0  0  0  0  0  0  0  0  0  0  0
   15.6580    7.5291    5.9411 N   0  0  0  0  0  0  0  0  0  0  0  0
   16.4460    8.1645    6.1199 H   0  0  0  0  0  0  0  0  0  0  0  0
   14.6349    5.6604    6.0762 C   0  0  0  0  0  3  0  0  0  0  0  0
   14.4615    4.6344    6.3393 H   0  0  0  0  0  0  0  0  0  0  0  0
   19.3444    5.4450    9.8474 C   0  0  0  0  0  3  0  0  0  0  0  0
   18.4594    5.5714   10.4575 H   0  0  0  0  0  0  0  0  0  0  0  0
   20.2390    5.2319    7.7276 C   0  0  0  0  0  0  0  0  0  0  0  0
   15.5601    5.2645    9.6723 C   0  0  0  0  0  0  0  0  0  0  0  0
   13.8065    6.5231    5.3591 C   0  0  0  0  0  0  0  0  0  0  0  0
   12.8430    6.3054    4.9492 H   0  0  0  0  0  0  0  0  0  0  0  0
   19.9288    5.1474    6.3030 C   0  0  1  0  0  3  0  0  0  0  0  0
   16.3544    1.6216    7.7562 C   0  0  0  0  0  0  0  0  0  0  0  0
   16.6123    0.7209    7.2239 H   0  0  0  0  0  0  0  0  0  0  0  0
   16.2176    7.4829    9.6761 C   0  0  0  0  0  0  0  0  0  0  0  0
   16.8478    8.2422    9.2317 H   0  0  0  0  0  0  0  0  0  0  0  0
   14.5015    7.7136    5.2957 C   0  0  0  0  0  0  0  0  0  0  0  0
   14.2443    8.6475    4.8397 H   0  0  0  0  0  0  0  0  0  0  0  0
   18.2263    5.1253    4.7421 C   0  0  0  0  0  0  0  0  0  0  0  0
   17.1623    5.1790    4.5527 H   0  0  0  0  0  0  0  0  0  0  0  0
   15.7716    3.9648    9.0441 C   0  0  0  0  0  0  0  0  0  0  0  0
   19.1153    4.9612    3.6990 C   0  0  0  0  0  0  0  0  0  0  0  0
   18.7521    4.8926    2.6869 H   0  0  0  0  0  0  0  0  0  0  0  0
   20.8808    4.9867    5.2978 C   0  0  0  0  0  0  0  0  0  0  0  0
   21.9283    4.9425    5.5442 H   0  0  0  0  0  0  0  0  0  0  0  0
   14.6764    5.5024   10.7239 C   0  0  0  0  0  0  0  0  0  0  0  0
   14.0734    4.7023   11.1194 H   0  0  0  0  0  0  0  0  0  0  0  0
   15.4318    1.6005    8.7974 C   0  0  0  0  0  0  0  0  0  0  0  0
   14.9536    0.6814    9.0941 H   0  0  0  0  0  0  0  0  0  0  0  0
   15.1442    2.7863    9.4450 C   0  0  0  0  0  0  0  0  0  0  0  0
   14.4382    2.7996   10.2583 H   0  0  0  0  0  0  0  0  0  0  0  0
   14.5748    6.7744   11.2552 C   0  0  0  0  0  0  0  0  0  0  0  0
   13.8960    6.9754   12.0684 H   0  0  0  0  0  0  0  0  0  0  0  0
   16.9392    2.8209    7.4081 C   0  0  0  0  0  0  0  0  0  0  0  0
   17.6545    2.8663    6.5979 H   0  0  0  0  0  0  0  0  0  0  0  0
   20.5888    5.3597   10.4376 C   0  0  0  0  0  0  0  0  0  0  0  0
   20.6818    5.4165   11.5096 H   0  0  0  0  0  0  0  0  0  0  0  0
   15.3650    7.7847   10.7200 C   0  0  0  0  0  0  0  0  0  0  0  0
   15.3193    8.7903   11.1040 H   0  0  0  0  0  0  0  0  0  0  0  0
   21.5249    5.1432    8.2585 C   0  0  0  0  0  0  0  0  0  0  0  0
   22.3737    5.0295    7.6053 H   0  0  0  0  0  0  0  0  0  0  0  0
   20.4750    4.8989    3.9800 C   0  0  0  0  0  0  0  0  0  0  0  0
   21.1986    4.7852    3.1892 H   0  0  0  0  0  0  0  0  0  0  0  0
   21.7074    5.2133    9.6258 C   0  0  0  0  0  0  0  0  0  0  0  0
   22.6961    5.1572   10.0517 H   0  0  0  0  0  0  0  0  0  0  0  0
  1  7  1  0  0  0  0
  1  6  1  0  0  0  0
  1  3  1  0  0  0  0
  2  1  1  0  0  0  0
  3 15  1  0  0  0  0
  3 21  1  0  0  0  0
  4 10  1  1  0  0  0
  4  1  1  0  0  0  0
  5 18  1  0  0  0  0
  5  1  1  0  0  0  0
  6 12  1  0  0  0  0
  7 27  1  0  0  0  0
  8  9  1  0  0  0  0
  8  4  1  0  0  0  0
 10 11  1  0  0  0  0
 12 42  1  0  0  0  0
 12 13  1  0  0  0  0
 14 46  2  0  0  0  0
 14  6  1  0  0  0  0
 15 32  1  0  0  0  0
 16 10  1  0  0  0  0
 17 16  1  0  0  0  0
 18 30  1  1  0  0  0
 18 14  1  0  0  0  0
 19 34  1  0  0  0  0
 20 19  1  0  0  0  0
 21 44  2  0  0  0  0
 22 21  1  0  0  0  0
 23 16  2  0  0  0  0
 23  8  1  0  0  0  0
 24 23  1  0  0  0  0
 25  5  1  0  0  0  0
 26 25  1  0  0  0  0
 27 36  1  0  0  0  0
 27 15  2  0  0  0  0
 28 48  1  0  0  0  0
 28 25  2  0  0  0  0
 29 28  1  0  0  0  0
 30 31  1  0  0  0  0
 32 33  1  0  0  0  0
 32 38  2  0  0  0  0
 34 35  1  0  0  0  0
 34 36  2  0  0  0  0
 36 37  1  0  0  0  0
 38 39  1  0  0  0  0
 40 19  2  0  0  0  0
 40  7  1  0  0  0  0
 41 40  1  0  0  0  0
 42 43  1  0  0  0  0
 44 45  1  0  0  0  0
 44 38  1  0  0  0  0
 46 50  1  0  0  0  0
 47 46  1  0  0  0  0
 48 30  2  0  0  0  0
 49 48  1  0  0  0  0
 50 51  1  0  0  0  0
 50 42  2  0  0  0  0
M  END
$$$$
