CSD_code = ZAFDEP | q = 0 | S = 0 | Stoichiometry = C25H28ClNPdS | MND = 4
 OpenBabel04212202123D

 57 60  0  0  1  0  0  0  0  0999 V2000
   -1.9802    8.9159    5.0264 Pd  0  0  1  0  0  0  0  0  0  0  0  0
   -1.1892    8.2835    7.1790 Cl  0  0  0  0  0  0  0  0  0  0  0  0
   -0.2739    7.8578    3.9184 S   0  0  1  0  0  3  0  0  0  0  0  0
   -3.8092    9.2639    5.9118 N   0  0  0  0  0  0  0  0  0  0  0  0
   -4.4574   10.4150    6.0580 C   0  0  0  0  0  3  0  0  0  0  0  0
   -5.4696   10.5928    6.9852 C   0  0  0  0  0  0  0  0  0  0  0  0
   -5.8320    9.5261    7.7926 C   0  0  0  0  0  0  0  0  0  0  0  0
   -5.1819    8.3157    7.6134 C   0  0  0  0  0  0  0  0  0  0  0  0
   -4.1777    8.2246    6.6637 C   0  0  0  0  0  0  0  0  0  0  0  0
   -2.5675    9.8232    3.3383 C   0  0  0  0  0  0  0  0  0  0  0  0
   -3.5107    9.1957    2.3423 C   0  0  0  0  0  0  0  0  0  0  0  0
   -3.0268    9.4209    0.9028 C   0  0  0  0  0  0  0  0  0  0  0  0
   -3.5508    7.6783    2.5997 C   0  0  0  0  0  0  0  0  0  0  0  0
   -4.9281    9.7596    2.5195 C   0  0  0  0  0  0  0  0  0  0  0  0
   -2.0232   11.0341    3.3732 C   0  0  2  0  0  3  0  0  0  0  0  0
   -2.1895   12.2108    2.4407 C   0  0  0  0  0  0  0  0  0  0  0  0
   -1.0070   11.2637    4.4642 C   0  0  0  0  0  0  0  0  0  0  0  0
   -1.3105   11.9147    5.6629 C   0  0  0  0  0  0  0  0  0  0  0  0
   -0.3245   12.1757    6.6011 C   0  0  0  0  0  0  0  0  0  0  0  0
    0.9927   11.8382    6.3437 C   0  0  0  0  0  0  0  0  0  0  0  0
    1.3222   11.2297    5.1451 C   0  0  0  0  0  0  0  0  0  0  0  0
    0.3355   10.9270    4.2144 C   0  0  0  0  0  0  0  0  0  0  0  0
    0.6873   10.2905    2.9251 C   0  0  0  0  0  0  0  0  0  0  0  0
    1.2755   11.0497    1.9196 C   0  0  0  0  0  0  0  0  0  0  0  0
    1.5704   10.4936    0.6878 C   0  0  0  0  0  0  0  0  0  0  0  0
    1.2816    9.1618    0.4417 C   0  0  0  0  0  0  0  0  0  0  0  0
    0.7130    8.3885    1.4380 C   0  0  0  0  0  0  0  0  0  0  0  0
    0.4194    8.9470    2.6726 C   0  0  0  0  0  0  0  0  0  0  0  0
    1.1334    7.7813    5.0618 C   0  0  0  0  0  0  0  0  0  0  0  0
   -4.1674   11.2163    5.3903 H   0  0  0  0  0  0  0  0  0  0  0  0
   -5.9591   11.5502    7.0731 H   0  0  0  0  0  0  0  0  0  0  0  0
   -6.6088    9.6334    8.5348 H   0  0  0  0  0  0  0  0  0  0  0  0
   -5.4395    7.4523    8.2060 H   0  0  0  0  0  0  0  0  0  0  0  0
   -3.6481    7.2882    6.5061 H   0  0  0  0  0  0  0  0  0  0  0  0
   -3.6093    8.8087    0.2167 H   0  0  0  0  0  0  0  0  0  0  0  0
   -3.1327   10.4589    0.6061 H   0  0  0  0  0  0  0  0  0  0  0  0
   -1.9787    9.1437    0.8111 H   0  0  0  0  0  0  0  0  0  0  0  0
   -4.3197    7.2083    1.9888 H   0  0  0  0  0  0  0  0  0  0  0  0
   -2.5880    7.2329    2.3480 H   0  0  0  0  0  0  0  0  0  0  0  0
   -3.7677    7.4698    3.6563 H   0  0  0  0  0  0  0  0  0  0  0  0
   -5.5984    9.3270    1.7791 H   0  0  0  0  0  0  0  0  0  0  0  0
   -5.3078    9.5203    3.5113 H   0  0  0  0  0  0  0  0  0  0  0  0
   -4.9369   10.8400    2.4005 H   0  0  0  0  0  0  0  0  0  0  0  0
   -2.0498   13.1387    2.9942 H   0  0  0  0  0  0  0  0  0  0  0  0
   -1.4384   12.1740    1.6503 H   0  0  0  0  0  0  0  0  0  0  0  0
   -3.1744   12.2242    1.9831 H   0  0  0  0  0  0  0  0  0  0  0  0
   -2.3215   12.2512    5.8506 H   0  0  0  0  0  0  0  0  0  0  0  0
   -0.5864   12.6564    7.5319 H   0  0  0  0  0  0  0  0  0  0  0  0
    1.7624   12.0507    7.0703 H   0  0  0  0  0  0  0  0  0  0  0  0
    2.3520   10.9818    4.9222 H   0  0  0  0  0  0  0  0  0  0  0  0
    1.4904   12.0907    2.1141 H   0  0  0  0  0  0  0  0  0  0  0  0
    2.0220   11.1013   -0.0821 H   0  0  0  0  0  0  0  0  0  0  0  0
    1.5035    8.7243   -0.5198 H   0  0  0  0  0  0  0  0  0  0  0  0
    0.4903    7.3459    1.2677 H   0  0  0  0  0  0  0  0  0  0  0  0
    0.8446    7.0892    5.8484 H   0  0  0  0  0  0  0  0  0  0  0  0
    1.9987    7.4137    4.5156 H   0  0  0  0  0  0  0  0  0  0  0  0
    1.3199    8.7596    5.4957 H   0  0  0  0  0  0  0  0  0  0  0  0
  1  4  1  0  0  0  0
  1  2  1  1  0  0  0
  3  1  1  0  0  0  0
  3 29  1  1  0  0  0
  4  5  1  0  0  0  0
  4  9  1  0  0  0  0
  5  6  1  0  0  0  0
  6 31  1  0  0  0  0
  6  7  2  0  0  0  0
  7 32  1  0  0  0  0
  8  7  1  0  0  0  0
  8 33  1  0  0  0  0
  9  8  2  0  0  0  0
 10 15  1  0  0  0  0
 10  1  2  0  0  0  0
 11 14  1  0  0  0  0
 11 13  1  0  0  0  0
 11 10  1  0  0  0  0
 12 11  1  0  0  0  0
 13 40  1  0  0  0  0
 14 42  1  0  0  0  0
 15 16  1  6  0  0  0
 15 17  1  0  0  0  0
 16 44  1  0  0  0  0
 17 18  1  0  0  0  0
 18 47  1  0  0  0  0
 18 19  2  0  0  0  0
 19 48  1  0  0  0  0
 20 19  1  0  0  0  0
 20 49  1  0  0  0  0
 21 20  2  0  0  0  0
 22 17  2  0  0  0  0
 22 21  1  0  0  0  0
 23 22  1  0  0  0  0
 24 51  1  0  0  0  0
 24 23  2  0  0  0  0
 25 24  1  0  0  0  0
 26 25  2  0  0  0  0
 26 27  1  0  0  0  0
 27 28  2  0  0  0  0
 28 23  1  0  0  0  0
 28  3  1  0  0  0  0
 29 57  1  0  0  0  0
 29 55  1  0  0  0  0
 30  5  1  0  0  0  0
 34  9  1  0  0  0  0
 35 12  1  0  0  0  0
 36 12  1  0  0  0  0
 37 12  1  0  0  0  0
 38 13  1  0  0  0  0
 39 13  1  0  0  0  0
 41 14  1  0  0  0  0
 43 14  1  0  0  0  0
 45 16  1  0  0  0  0
 46 16  1  0  0  0  0
 50 21  1  0  0  0  0
 52 25  1  0  0  0  0
 53 26  1  0  0  0  0
 54 27  1  0  0  0  0
 56 29  1  0  0  0  0
M  END
$$$$
