CSD_code = ZAFWOS | q = 0 | S = 0 | Stoichiometry = C24H34Cl2Zr | MND = 12
 OpenBabel04212202123D

 61 64  0  0  1  0  0  0  0  0999 V2000
    9.9221    7.9116    4.5581 Zr  0  0  0  0  0  0  0  0  0  0  0  0
    8.2806    6.5408    5.4813 Cl  0  0  0  0  0  0  0  0  0  0  0  0
   11.2780    6.0758    4.1068 Cl  0  0  0  0  0  0  0  0  0  0  0  0
   10.4718   10.8706    4.0844 C   0  0  2  0  0  0  0  0  0  0  0  0
   10.7138   10.0360    5.3378 C   0  0  1  0  0  0  0  0  0  0  0  0
    9.6847    9.6741    6.2524 C   0  0  0  0  0  3  0  0  0  0  0  0
   10.1500    8.6122    7.0703 C   0  0  0  0  0  0  0  0  0  0  0  0
   11.4405    8.2679    6.6088 C   0  0  0  0  0  0  0  0  0  0  0  0
   11.7884    9.1323    5.5425 C   0  0  0  0  0  3  0  0  0  0  0  0
    9.5309    8.1247    8.3647 C   0  0  0  0  0  0  0  0  0  0  0  0
    8.0180    8.3689    8.3855 C   0  0  0  0  0  0  0  0  0  0  0  0
    9.8146    6.6312    8.5695 C   0  0  0  0  0  0  0  0  0  0  0  0
   10.1795    8.9214    9.5105 C   0  0  0  0  0  0  0  0  0  0  0  0
    9.5977    9.9269    3.2765 C   0  0  2  0  0  3  0  0  0  0  0  0
    8.3367    9.2876    3.4101 C   0  0  1  0  0  0  0  0  0  0  0  0
    8.3771    8.1184    2.5862 C   0  0  2  0  0  3  0  0  0  0  0  0
    9.6749    8.0254    2.0053 C   0  0  0  0  0  0  0  0  0  0  0  0
   10.4114    9.1434    2.4373 C   0  0  0  0  0  0  0  0  0  0  0  0
    7.2139    7.2440    2.1598 C   0  0  0  0  0  0  0  0  0  0  0  0
    7.6433    5.7691    2.1832 C   0  0  0  0  0  0  0  0  0  0  0  0
    5.9980    7.4438    3.0700 C   0  0  0  0  0  0  0  0  0  0  0  0
    6.8262    7.6369    0.7235 C   0  0  0  0  0  0  0  0  0  0  0  0
   11.7483   10.9596    3.2010 C   0  0  0  0  0  0  0  0  0  0  0  0
    9.8726   12.2416    4.3892 C   0  0  0  0  0  0  0  0  0  0  0  0
   11.7522    9.7758    2.1804 C   0  0  0  0  0  0  0  0  0  0  0  0
   12.9070    8.7825    2.3614 C   0  0  0  0  0  0  0  0  0  0  0  0
   11.7980   10.3278    0.7467 C   0  0  0  0  0  0  0  0  0  0  0  0
   12.7825    9.1932    5.1225 H   0  0  0  0  0  0  0  0  0  0  0  0
   12.1172    7.5592    7.0693 H   0  0  0  0  0  0  0  0  0  0  0  0
    8.7592   10.2181    6.3984 H   0  0  0  0  0  0  0  0  0  0  0  0
    9.9894    7.2989    1.2675 H   0  0  0  0  0  0  0  0  0  0  0  0
    7.4547    9.6849    3.9006 H   0  0  0  0  0  0  0  0  0  0  0  0
    7.7970    9.4339    8.3701 H   0  0  0  0  0  0  0  0  0  0  0  0
    7.5901    7.9525    9.2947 H   0  0  0  0  0  0  0  0  0  0  0  0
    7.5404    7.8935    7.5312 H   0  0  0  0  0  0  0  0  0  0  0  0
   10.8795    6.4494    8.6940 H   0  0  0  0  0  0  0  0  0  0  0  0
    9.4593    6.0516    7.7192 H   0  0  0  0  0  0  0  0  0  0  0  0
    9.3068    6.2757    9.4635 H   0  0  0  0  0  0  0  0  0  0  0  0
    9.9970    9.9862    9.3837 H   0  0  0  0  0  0  0  0  0  0  0  0
   11.2547    8.7597    9.5282 H   0  0  0  0  0  0  0  0  0  0  0  0
    9.7653    8.6087   10.4663 H   0  0  0  0  0  0  0  0  0  0  0  0
    9.6326   12.7622    3.4646 H   0  0  0  0  0  0  0  0  0  0  0  0
   10.5781   12.8430    4.9584 H   0  0  0  0  0  0  0  0  0  0  0  0
    8.9589   12.1404    4.9701 H   0  0  0  0  0  0  0  0  0  0  0  0
   10.9763   11.0205    0.5799 H   0  0  0  0  0  0  0  0  0  0  0  0
   11.7093    9.5176    0.0267 H   0  0  0  0  0  0  0  0  0  0  0  0
   12.7381   10.8463    0.5704 H   0  0  0  0  0  0  0  0  0  0  0  0
   12.7501    8.1340    3.2260 H   0  0  0  0  0  0  0  0  0  0  0  0
   13.8551    9.3071    2.4664 H   0  0  0  0  0  0  0  0  0  0  0  0
   12.9748    8.1407    1.4849 H   0  0  0  0  0  0  0  0  0  0  0  0
    8.0223    5.4925    3.1677 H   0  0  0  0  0  0  0  0  0  0  0  0
    8.4219    5.5762    1.4484 H   0  0  0  0  0  0  0  0  0  0  0  0
    6.7952    5.1295    1.9496 H   0  0  0  0  0  0  0  0  0  0  0  0
    5.6242    8.4627    2.9948 H   0  0  0  0  0  0  0  0  0  0  0  0
    6.2516    7.2317    4.1064 H   0  0  0  0  0  0  0  0  0  0  0  0
    5.1985    6.7710    2.7682 H   0  0  0  0  0  0  0  0  0  0  0  0
    7.6602    7.4850    0.0430 H   0  0  0  0  0  0  0  0  0  0  0  0
    6.5393    8.6853    0.6830 H   0  0  0  0  0  0  0  0  0  0  0  0
    5.9875    7.0342    0.3831 H   0  0  0  0  0  0  0  0  0  0  0  0
   12.6486   10.9739    3.8134 H   0  0  0  0  0  0  0  0  0  0  0  0
   11.7225   11.9004    2.6498 H   0  0  0  0  0  0  0  0  0  0  0  0
  1  5  1  0  0  0  0
  1  2  1  0  0  0  0
  3  1  1  0  0  0  0
  4 24  1  1  0  0  0
  4  5  1  0  0  0  0
  5  9  1  1  0  0  0
  5  6  1  0  0  0  0
  6 30  1  0  0  0  0
  6  7  1  0  0  0  0
  7 10  1  0  0  0  0
  8 29  1  0  0  0  0
  8  7  2  0  0  0  0
  9  8  1  0  0  0  0
 10 11  1  0  0  0  0
 10 12  1  0  0  0  0
 10 13  1  0  0  0  0
 11 34  1  0  0  0  0
 12 36  1  0  0  0  0
 12 38  1  0  0  0  0
 13 40  1  0  0  0  0
 13 41  1  0  0  0  0
 14 18  1  1  0  0  0
 14 15  1  0  0  0  0
 14  4  1  0  0  0  0
 15 32  1  1  0  0  0
 15  1  1  0  0  0  0
 16 19  1  6  0  0  0
 16 15  1  0  0  0  0
 17 18  2  0  0  0  0
 17 16  1  0  0  0  0
 19 20  1  0  0  0  0
 19 21  1  0  0  0  0
 20 51  1  0  0  0  0
 21 55  1  0  0  0  0
 22 19  1  0  0  0  0
 23 60  1  0  0  0  0
 23  4  1  0  0  0  0
 24 43  1  0  0  0  0
 24 44  1  0  0  0  0
 25 26  1  0  0  0  0
 25 18  1  0  0  0  0
 25 23  1  0  0  0  0
 26 49  1  0  0  0  0
 26 48  1  0  0  0  0
 27 25  1  0  0  0  0
 28  9  1  0  0  0  0
 31 17  1  0  0  0  0
 33 11  1  0  0  0  0
 35 11  1  0  0  0  0
 37 12  1  0  0  0  0
 39 13  1  0  0  0  0
 42 24  1  0  0  0  0
 45 27  1  0  0  0  0
 46 27  1  0  0  0  0
 47 27  1  0  0  0  0
 50 26  1  0  0  0  0
 52 20  1  0  0  0  0
 53 20  1  0  0  0  0
 54 21  1  0  0  0  0
 56 21  1  0  0  0  0
 57 22  1  0  0  0  0
 58 22  1  0  0  0  0
 59 22  1  0  0  0  0
 61 23  1  0  0  0  0
M  END
$$$$
