CSD_code = ZAGTEJ | q = 0 | S = 0 | Stoichiometry = C20H36ClI3N4Ru | MND = 6
 OpenBabel04212202123D

 65 63  0  0  0  0  0  0  0  0999 V2000
    7.9379    3.7362   10.6789 Ru  0  0  0  0  0  0  0  0  0  0  0  0
    5.7453    3.7362    9.0090 I   0  0  0  0  0  0  0  0  0  0  0  0
    2.5431    3.7362   13.7974 I   0  0  0  0  0  0  0  0  0  0  0  0
    4.1108    3.7356   11.2944 I   0  0  0  0  0  0  0  0  0  0  0  0
    9.9016    3.7366   12.0996 Cl  0  0  0  0  0  0  0  0  0  0  0  0
    6.8275    1.6981   12.7154 N   0  0  0  0  0  2  0  0  0  0  0  0
    9.6846    1.5905    9.3487 N   0  0  0  0  0  2  0  0  0  0  0  0
    7.2059    2.4078   11.8780 C   0  0  0  0  0  2  0  0  0  0  0  0
    8.9131    2.3740    9.7276 C   0  0  0  0  0  2  0  0  0  0  0  0
    6.3750    0.8675   13.7616 C   0  0  0  0  0  0  0  0  0  0  0  0
    5.0699    0.2029   13.3201 C   0  0  0  0  0  0  0  0  0  0  0  0
    4.3065    0.9529   13.1276 H   0  0  0  0  0  0  0  0  0  0  0  0
    4.7131   -0.4509   14.1101 H   0  0  0  0  0  0  0  0  0  0  0  0
    5.2211   -0.3869   12.4178 H   0  0  0  0  0  0  0  0  0  0  0  0
    7.4678   -0.1725   14.0265 C   0  0  0  0  0  0  0  0  0  0  0  0
    8.4041    0.3182   14.2861 H   0  0  0  0  0  0  0  0  0  0  0  0
    7.6324   -0.7902   13.1452 H   0  0  0  0  0  0  0  0  0  0  0  0
    7.1678   -0.8137   14.8504 H   0  0  0  0  0  0  0  0  0  0  0  0
    6.1431    1.7497   14.9896 C   0  0  0  0  0  0  0  0  0  0  0  0
    7.0508    2.2917   15.2462 H   0  0  0  0  0  0  0  0  0  0  0  0
    5.8538    1.1295   15.8324 H   0  0  0  0  0  0  0  0  0  0  0  0
    5.3435    2.4613   14.8017 H   0  0  0  0  0  0  0  0  0  0  0  0
   10.7429    0.7043    9.0600 C   0  0  0  0  0  0  0  0  0  0  0  0
   11.0360   -0.0905   10.3363 C   0  0  0  0  0  0  0  0  0  0  0  0
   10.1756   -0.6959   10.6151 H   0  0  0  0  0  0  0  0  0  0  0  0
   11.2602    0.5889   11.1566 H   0  0  0  0  0  0  0  0  0  0  0  0
   11.8886   -0.7450   10.1763 H   0  0  0  0  0  0  0  0  0  0  0  0
   11.9549    1.5500    8.6571 C   0  0  0  0  0  0  0  0  0  0  0  0
   12.2186    2.2315    9.4635 H   0  0  0  0  0  0  0  0  0  0  0  0
   11.7345    2.1339    7.7652 H   0  0  0  0  0  0  0  0  0  0  0  0
   12.8036    0.9035    8.4511 H   0  0  0  0  0  0  0  0  0  0  0  0
   10.3099   -0.2192    7.9193 C   0  0  0  0  0  0  0  0  0  0  0  0
    9.4255   -0.7870    8.2020 H   0  0  0  0  0  0  0  0  0  0  0  0
   11.1112   -0.9156    7.6881 H   0  0  0  0  0  0  0  0  0  0  0  0
   10.0798    0.3574    7.0253 H   0  0  0  0  0  0  0  0  0  0  0  0
    6.8270    5.7745   12.7148 N   0  0  0  0  0  2  0  0  0  0  0  0
    9.6847    5.8816    9.3483 N   0  0  0  0  0  2  0  0  0  0  0  0
    7.2051    5.0646   11.8774 C   0  0  0  0  0  2  0  0  0  0  0  0
    8.9128    5.0986    9.7275 C   0  0  0  0  0  2  0  0  0  0  0  0
    6.3745    6.6052   13.7610 C   0  0  0  0  0  0  0  0  0  0  0  0
    5.0693    7.2695   13.3195 C   0  0  0  0  0  0  0  0  0  0  0  0
    4.3059    6.5194   13.1273 H   0  0  0  0  0  0  0  0  0  0  0  0
    4.7125    7.9236   14.1095 H   0  0  0  0  0  0  0  0  0  0  0  0
    5.2203    7.8592   12.4171 H   0  0  0  0  0  0  0  0  0  0  0  0
    7.4672    7.6453   14.0257 C   0  0  0  0  0  0  0  0  0  0  0  0
    8.4036    7.1548   14.2851 H   0  0  0  0  0  0  0  0  0  0  0  0
    7.6316    8.2630   13.1443 H   0  0  0  0  0  0  0  0  0  0  0  0
    7.1672    8.2866   14.8496 H   0  0  0  0  0  0  0  0  0  0  0  0
    6.1428    5.7231   14.9891 C   0  0  0  0  0  0  0  0  0  0  0  0
    7.0506    5.1813   15.2458 H   0  0  0  0  0  0  0  0  0  0  0  0
    5.8535    6.3434   15.8320 H   0  0  0  0  0  0  0  0  0  0  0  0
    5.3433    5.0114   14.8015 H   0  0  0  0  0  0  0  0  0  0  0  0
   10.7428    6.7680    9.0596 C   0  0  0  0  0  0  0  0  0  0  0  0
   11.0377    7.5608   10.3367 C   0  0  0  0  0  0  0  0  0  0  0  0
   10.1778    8.1660   10.6174 H   0  0  0  0  0  0  0  0  0  0  0  0
   11.2627    6.8802   11.1556 H   0  0  0  0  0  0  0  0  0  0  0  0
   11.8903    8.2153   10.1766 H   0  0  0  0  0  0  0  0  0  0  0  0
   11.9541    5.9227    8.6538 C   0  0  0  0  0  0  0  0  0  0  0  0
   12.2186    5.2397    9.4588 H   0  0  0  0  0  0  0  0  0  0  0  0
   11.7326    5.3403    7.7612 H   0  0  0  0  0  0  0  0  0  0  0  0
   12.8028    6.5693    8.4480 H   0  0  0  0  0  0  0  0  0  0  0  0
   10.3085    7.6932    7.9208 C   0  0  0  0  0  0  0  0  0  0  0  0
    9.4247    8.2608    8.2055 H   0  0  0  0  0  0  0  0  0  0  0  0
   11.1097    8.3898    7.6894 H   0  0  0  0  0  0  0  0  0  0  0  0
   10.0772    7.1180    7.0262 H   0  0  0  0  0  0  0  0  0  0  0  0
  1 38  1  0  0  0  0
  1  8  1  0  0  0  0
  1  5  1  0  0  0  0
  2  1  1  0  0  0  0
  4  3  1  0  0  0  0
  6 10  1  0  0  0  0
  7  9  1  0  0  0  0
  8  6  1  0  0  0  0
  9  1  1  0  0  0  0
 10 15  1  0  0  0  0
 10 19  1  0  0  0  0
 11 10  1  0  0  0  0
 11 13  1  0  0  0  0
 12 11  1  0  0  0  0
 14 11  1  0  0  0  0
 15 16  1  0  0  0  0
 15 18  1  0  0  0  0
 17 15  1  0  0  0  0
 19 20  1  0  0  0  0
 19 21  1  0  0  0  0
 22 19  1  0  0  0  0
 23  7  1  0  0  0  0
 23 24  1  0  0  0  0
 24 25  1  0  0  0  0
 24 26  1  0  0  0  0
 27 24  1  0  0  0  0
 28 23  1  0  0  0  0
 28 29  1  0  0  0  0
 30 28  1  0  0  0  0
 31 28  1  0  0  0  0
 32 33  1  0  0  0  0
 32 23  1  0  0  0  0
 34 32  1  0  0  0  0
 35 32  1  0  0  0  0
 36 40  1  0  0  0  0
 37 39  1  0  0  0  0
 38 36  1  0  0  0  0
 39  1  1  0  0  0  0
 40 45  1  0  0  0  0
 40 49  1  0  0  0  0
 41 40  1  0  0  0  0
 41 43  1  0  0  0  0
 42 41  1  0  0  0  0
 44 41  1  0  0  0  0
 45 46  1  0  0  0  0
 45 48  1  0  0  0  0
 47 45  1  0  0  0  0
 49 50  1  0  0  0  0
 49 51  1  0  0  0  0
 52 49  1  0  0  0  0
 53 37  1  0  0  0  0
 53 54  1  0  0  0  0
 54 55  1  0  0  0  0
 54 56  1  0  0  0  0
 57 54  1  0  0  0  0
 58 53  1  0  0  0  0
 58 59  1  0  0  0  0
 60 58  1  0  0  0  0
 61 58  1  0  0  0  0
 62 63  1  0  0  0  0
 62 53  1  0  0  0  0
 64 62  1  0  0  0  0
 65 62  1  0  0  0  0
M  END
$$$$
