CSD_code = ZAJKEA | q = 0 | S = 0 | Stoichiometry = C6H18Cl2P2Zn | MND = 4
 OpenBabel04212202123D

 29 28  0  0  0  0  0  0  0  0999 V2000
    9.2842    2.1527    0.3590 Zn  0  0  0  0  0  0  0  0  0  0  0  0
   11.3109    2.9586    0.2645 Cl  0  0  0  0  0  0  0  0  0  0  0  0
    8.5155    0.4401    1.6224 Cl  0  0  0  0  0  0  0  0  0  0  0  0
    7.5027    3.6720    1.3615 P   0  0  0  0  0  4  0  0  0  0  0  0
    7.8688    3.7018    3.1493 C   0  0  0  0  0  0  0  0  0  0  0  0
    5.8738    2.8423    1.3332 C   0  0  0  0  0  0  0  0  0  0  0  0
    7.0688    5.4257    1.0307 C   0  0  0  0  0  0  0  0  0  0  0  0
    8.6659    0.8636   -1.7475 P   0  0  0  0  0  4  0  0  0  0  0  0
    8.7932    1.3300   -3.5194 C   0  0  0  0  0  0  0  0  0  0  0  0
    7.0135    0.0853   -1.6488 C   0  0  0  0  0  0  0  0  0  0  0  0
    9.7579   -0.5963   -1.6648 C   0  0  0  0  0  0  0  0  0  0  0  0
    8.0082    2.6755    3.4853 H   0  0  0  0  0  0  0  0  0  0  0  0
    7.0481    4.1648    3.6981 H   0  0  0  0  0  0  0  0  0  0  0  0
    8.7903    4.2566    3.3211 H   0  0  0  0  0  0  0  0  0  0  0  0
    6.0267    1.8003    1.6077 H   0  0  0  0  0  0  0  0  0  0  0  0
    5.4543    2.8890    0.3299 H   0  0  0  0  0  0  0  0  0  0  0  0
    5.1938    3.3179    2.0388 H   0  0  0  0  0  0  0  0  0  0  0  0
    6.7007    5.5241    0.0116 H   0  0  0  0  0  0  0  0  0  0  0  0
    7.9615    6.0383    1.1394 H   0  0  0  0  0  0  0  0  0  0  0  0
    6.3054    5.7651    1.7294 H   0  0  0  0  0  0  0  0  0  0  0  0
    9.7982    1.6989   -3.7138 H   0  0  0  0  0  0  0  0  0  0  0  0
    8.0816    2.1228   -3.7407 H   0  0  0  0  0  0  0  0  0  0  0  0
    8.5901    0.4688   -4.1545 H   0  0  0  0  0  0  0  0  0  0  0  0
    6.2415    0.8273   -1.8434 H   0  0  0  0  0  0  0  0  0  0  0  0
    6.8893   -0.3018   -0.6390 H   0  0  0  0  0  0  0  0  0  0  0  0
    6.9343   -0.7263   -2.3710 H   0  0  0  0  0  0  0  0  0  0  0  0
    9.6438   -1.0522   -0.6824 H   0  0  0  0  0  0  0  0  0  0  0  0
   10.7930   -0.2801   -1.7869 H   0  0  0  0  0  0  0  0  0  0  0  0
    9.4934   -1.3151   -2.4412 H   0  0  0  0  0  0  0  0  0  0  0  0
  1  4  1  0  0  0  0
  1  3  1  0  0  0  0
  2  1  1  0  0  0  0
  4  5  1  0  0  0  0
  5 14  1  0  0  0  0
  5 12  1  0  0  0  0
  5 13  1  0  0  0  0
  6  4  1  0  0  0  0
  6 15  1  0  0  0  0
  6 17  1  0  0  0  0
  7 19  1  0  0  0  0
  7  4  1  0  0  0  0
  7 20  1  0  0  0  0
  8 11  1  0  0  0  0
  8 10  1  0  0  0  0
  8  1  1  0  0  0  0
  9  8  1  0  0  0  0
 10 25  1  0  0  0  0
 11 27  1  0  0  0  0
 16  6  1  0  0  0  0
 18  7  1  0  0  0  0
 21  9  1  0  0  0  0
 22  9  1  0  0  0  0
 23  9  1  0  0  0  0
 24 10  1  0  0  0  0
 26 10  1  0  0  0  0
 28 11  1  0  0  0  0
 29 11  1  0  0  0  0
M  END
$$$$
