CSD_code = ZAJLAX | q = 0 | S = 0 | Stoichiometry = C20H31ClOSi2Ti | MND = 12
 OpenBabel04212202123D

 56 56  0  0  1  0  0  0  0  0999 V2000
    1.1507    3.0547    4.2354 Ti  0  0  0  0  0  0  0  0  0  0  0  0
    2.7023    3.1262    5.8973 Cl  0  0  0  0  0  0  0  0  0  0  0  0
    2.3092    3.7170    3.1842 O   0  0  0  0  0  0  0  0  0  0  0  0
   -0.1769    3.9594    7.6578 Si  0  0  0  0  0  0  0  0  0  0  0  0
    1.3748    1.6694    0.8772 Si  0  0  0  0  0  0  0  0  0  0  0  0
   -1.0498    3.6687    4.8490 C   0  0  0  0  0  0  0  0  0  0  0  0
   -0.8249    4.2789    3.5946 C   0  0  0  0  0  0  0  0  0  0  0  0
    0.1565    5.2780    3.7697 C   0  0  0  0  0  0  0  0  0  0  0  0
    0.5922    5.2201    5.0992 C   0  0  0  0  0  0  0  0  0  0  0  0
   -0.1548    4.2166    5.7893 C   0  0  1  0  0  3  0  0  0  0  0  0
   -1.8625    2.9916    5.0790 H   0  0  0  0  0  0  0  0  0  0  0  0
   -1.4220    4.1374    2.7028 H   0  0  0  0  0  0  0  0  0  0  0  0
    0.4853    5.9817    3.0141 H   0  0  0  0  0  0  0  0  0  0  0  0
    1.2979    5.8930    5.5710 H   0  0  0  0  0  0  0  0  0  0  0  0
    1.1256    5.0802    8.4841 C   0  0  0  0  0  0  0  0  0  0  0  0
    1.1269    4.9406    9.5605 H   0  0  0  0  0  0  0  0  0  0  0  0
    0.9312    6.1311    8.2910 H   0  0  0  0  0  0  0  0  0  0  0  0
    2.1200    4.8460    8.1175 H   0  0  0  0  0  0  0  0  0  0  0  0
    0.1130    2.1330    8.1403 C   0  0  0  0  0  0  0  0  0  0  0  0
   -0.6382    1.4749    7.7124 H   0  0  0  0  0  0  0  0  0  0  0  0
    0.0735    2.0110    9.2184 H   0  0  0  0  0  0  0  0  0  0  0  0
    1.0898    1.7970    7.8052 H   0  0  0  0  0  0  0  0  0  0  0  0
   -1.9247    4.4686    8.2547 C   0  0  0  0  0  0  0  0  0  0  0  0
   -1.9997    4.3795    9.3331 H   0  0  0  0  0  0  0  0  0  0  0  0
   -2.6981    3.8433    7.8200 H   0  0  0  0  0  0  0  0  0  0  0  0
   -2.1512    5.4972    7.9929 H   0  0  0  0  0  0  0  0  0  0  0  0
   -0.2243    1.2749    3.3352 C   0  0  0  0  0  3  0  0  0  0  0  0
   -0.0506    0.8549    4.6657 C   0  0  0  0  0  0  0  0  0  0  0  0
    1.3216    0.6771    4.8857 C   0  0  0  0  0  0  0  0  0  0  0  0
    2.0009    0.9783    3.6834 C   0  0  0  0  0  3  0  0  0  0  0  0
    1.0416    1.3414    2.7003 C   0  0  2  0  0  0  0  0  0  0  0  0
   -1.1753    1.3902    2.8310 H   0  0  0  0  0  0  0  0  0  0  0  0
   -0.8380    0.6203    5.3688 H   0  0  0  0  0  0  0  0  0  0  0  0
    1.7788    0.2849    5.7850 H   0  0  0  0  0  0  0  0  0  0  0  0
    3.0621    0.8395    3.5083 H   0  0  0  0  0  0  0  0  0  0  0  0
    0.6176    3.3435    0.3409 C   0  0  0  0  0  0  0  0  0  0  0  0
   -0.4676    3.3277    0.3954 H   0  0  0  0  0  0  0  0  0  0  0  0
    0.8859    3.5859   -0.6828 H   0  0  0  0  0  0  0  0  0  0  0  0
    0.9800    4.1458    0.9798 H   0  0  0  0  0  0  0  0  0  0  0  0
    3.2541    1.6507    0.5443 C   0  0  0  0  0  0  0  0  0  0  0  0
    3.4670    1.8513   -0.5011 H   0  0  0  0  0  0  0  0  0  0  0  0
    3.6922    0.6873    0.7878 H   0  0  0  0  0  0  0  0  0  0  0  0
    3.7574    2.4107    1.1342 H   0  0  0  0  0  0  0  0  0  0  0  0
    0.5390    0.2756   -0.1344 C   0  0  0  0  0  0  0  0  0  0  0  0
    0.7025    0.4219   -1.1967 H   0  0  0  0  0  0  0  0  0  0  0  0
   -0.5331    0.2454    0.0313 H   0  0  0  0  0  0  0  0  0  0  0  0
    0.9370   -0.6990    0.1284 H   0  0  0  0  0  0  0  0  0  0  0  0
    3.3517    4.6242    3.1416 C   0  0  0  0  0  0  0  0  0  0  0  0
    3.1232    5.4942    3.7913 H   0  0  0  0  0  0  0  0  0  0  0  0
    4.2650    4.1363    3.5358 H   0  0  0  0  0  0  0  0  0  0  0  0
    3.6061    5.1007    1.7861 C   0  0  0  0  0  0  0  0  0  0  0  0
    3.7358    5.4334    0.6413 C   0  0  0  0  0  0  0  0  0  0  0  0
    3.9341    5.8619   -0.7251 C   0  0  0  0  0  0  0  0  0  0  0  0
    4.3948    6.8490   -0.7436 H   0  0  0  0  0  0  0  0  0  0  0  0
    2.9750    5.9089   -1.2396 H   0  0  0  0  0  0  0  0  0  0  0  0
    4.5819    5.1579   -1.2461 H   0  0  0  0  0  0  0  0  0  0  0  0
  1  2  1  0  0  0  0
  3  1  1  0  0  0  0
  4 19  1  0  0  0  0
  4 23  1  0  0  0  0
  4 15  1  0  0  0  0
  5 31  1  0  0  0  0
  6 11  1  0  0  0  0
  6 10  1  0  0  0  0
  7  8  1  0  0  0  0
  7  6  2  0  0  0  0
  8  9  2  0  0  0  0
  9 14  1  0  0  0  0
  9 10  1  0  0  0  0
 10  4  1  1  0  0  0
 12  7  1  0  0  0  0
 13  8  1  0  0  0  0
 15 16  1  0  0  0  0
 17 15  1  0  0  0  0
 18 15  1  0  0  0  0
 19 21  1  0  0  0  0
 20 19  1  0  0  0  0
 22 19  1  0  0  0  0
 23 24  1  0  0  0  0
 25 23  1  0  0  0  0
 26 23  1  0  0  0  0
 27 28  1  0  0  0  0
 28 29  2  0  0  0  0
 28 33  1  0  0  0  0
 29 34  1  0  0  0  0
 30 29  1  0  0  0  0
 31 27  1  0  0  0  0
 31 30  1  0  0  0  0
 31  1  1  1  0  0  0
 32 27  1  0  0  0  0
 35 30  1  0  0  0  0
 36 37  1  0  0  0  0
 36  5  1  0  0  0  0
 36 39  1  0  0  0  0
 38 36  1  0  0  0  0
 40 42  1  0  0  0  0
 40  5  1  0  0  0  0
 40 43  1  0  0  0  0
 41 40  1  0  0  0  0
 44 46  1  0  0  0  0
 44 47  1  0  0  0  0
 44  5  1  0  0  0  0
 45 44  1  0  0  0  0
 48  3  1  0  0  0  0
 48 50  1  0  0  0  0
 48 49  1  0  0  0  0
 51 48  1  0  0  0  0
 52 51  3  0  0  0  0
 53 52  1  0  0  0  0
 54 53  1  0  0  0  0
 55 53  1  0  0  0  0
 56 53  1  0  0  0  0
M  END
$$$$
