CSD_code = ZAJWOW | q = 0 | S = 0 | Stoichiometry = C14H14Br2PtS2 | MND = 4
 OpenBabel04212202123D

 33 35  0  0  0  0  0  0  0  0999 V2000
   -2.6626    2.4292    2.3329 Pt  0  0  0  0  0  0  0  0  0  0  0  0
   -3.7283    4.1930    1.0999 Br  0  0  0  0  0  0  0  0  0  0  0  0
   -0.7292    2.4150    0.9086 Br  0  0  0  0  0  0  0  0  0  0  0  0
   -4.5508    2.3532    3.7656 S   0  0  2  0  0  3  0  0  0  0  0  0
   -1.6671    0.7182    3.6365 S   0  0  2  0  0  3  0  0  0  0  0  0
   -3.9428    1.2990    5.1425 C   0  0  0  0  0  0  0  0  0  0  0  0
   -3.0848    0.1521    4.6590 C   0  0  0  0  0  0  0  0  0  0  0  0
   -0.7908    1.6664    4.8768 C   0  0  0  0  0  0  0  0  0  0  0  0
   -0.1697    0.9815    5.9098 C   0  0  0  0  0  0  0  0  0  0  0  0
    0.5150    1.6928    6.8786 C   0  0  0  0  0  0  0  0  0  0  0  0
    0.5903    3.0748    6.8041 C   0  0  0  0  0  0  0  0  0  0  0  0
   -0.0161    3.7496    5.7577 C   0  0  0  0  0  0  0  0  0  0  0  0
   -0.7102    3.0463    4.7888 C   0  0  0  0  0  0  0  0  0  0  0  0
   -5.5936    1.1554    2.9394 C   0  0  0  0  0  0  0  0  0  0  0  0
   -5.2481    0.6490    1.6975 C   0  0  0  0  0  0  0  0  0  0  0  0
   -6.0852   -0.2633    1.0793 C   0  0  0  0  0  0  0  0  0  0  0  0
   -7.2557   -0.6641    1.7019 C   0  0  0  0  0  0  0  0  0  0  0  0
   -7.5989   -0.1454    2.9406 C   0  0  0  0  0  0  0  0  0  0  0  0
   -6.7725    0.7737    3.5613 C   0  0  0  0  0  0  0  0  0  0  0  0
   -4.8156    0.9307    5.6832 H   0  0  0  0  0  0  0  0  0  0  0  0
   -3.3755    1.9700    5.7909 H   0  0  0  0  0  0  0  0  0  0  0  0
   -3.6534   -0.5224    4.0153 H   0  0  0  0  0  0  0  0  0  0  0  0
   -2.6788   -0.4119    5.4999 H   0  0  0  0  0  0  0  0  0  0  0  0
   -0.2151   -0.0970    5.9507 H   0  0  0  0  0  0  0  0  0  0  0  0
    0.9978    1.1648    7.6868 H   0  0  0  0  0  0  0  0  0  0  0  0
    1.1301    3.6249    7.5595 H   0  0  0  0  0  0  0  0  0  0  0  0
    0.0491    4.8243    5.6901 H   0  0  0  0  0  0  0  0  0  0  0  0
   -1.1783    3.5730    3.9601 H   0  0  0  0  0  0  0  0  0  0  0  0
   -4.3340    0.9741    1.2055 H   0  0  0  0  0  0  0  0  0  0  0  0
   -5.8198   -0.6565    0.1102 H   0  0  0  0  0  0  0  0  0  0  0  0
   -7.9071   -1.3758    1.2184 H   0  0  0  0  0  0  0  0  0  0  0  0
   -8.5168   -0.4478    3.4213 H   0  0  0  0  0  0  0  0  0  0  0  0
   -7.0439    1.1980    4.5170 H   0  0  0  0  0  0  0  0  0  0  0  0
  1  5  1  0  0  0  0
  1  4  1  0  0  0  0
  2  1  1  0  0  0  0
  3  1  1  0  0  0  0
  4 14  1  6  0  0  0
  4  6  1  0  0  0  0
  5  7  1  0  0  0  0
  5  8  1  1  0  0  0
  6 20  1  0  0  0  0
  6 21  1  0  0  0  0
  7  6  1  0  0  0  0
  7 23  1  0  0  0  0
  8  9  1  0  0  0  0
  9 24  1  0  0  0  0
  9 10  2  0  0  0  0
 10 25  1  0  0  0  0
 11 10  1  0  0  0  0
 11 26  1  0  0  0  0
 12 11  2  0  0  0  0
 13  8  2  0  0  0  0
 13 12  1  0  0  0  0
 14 19  1  0  0  0  0
 15 14  2  0  0  0  0
 16 15  1  0  0  0  0
 16 17  2  0  0  0  0
 17 18  1  0  0  0  0
 18 32  1  0  0  0  0
 18 19  2  0  0  0  0
 19 33  1  0  0  0  0
 22  7  1  0  0  0  0
 27 12  1  0  0  0  0
 28 13  1  0  0  0  0
 29 15  1  0  0  0  0
 30 16  1  0  0  0  0
 31 17  1  0  0  0  0
M  END
$$$$
