CSD_code = ZALHEC | q = 0 | S = 0 | Stoichiometry = C26H28ClN3OOs | MND = 9
 OpenBabel04212202123D

 60 63  0  0  1  0  0  0  0  0999 V2000
    8.7328    7.6903    9.1499 Os  0  0  0  0  0  0  0  0  0  0  0  0
    7.9264    5.6131    9.5692 Cl  0  0  0  0  0 15  0  0  0  0  0  0
   12.1258   10.5355    1.3017 O   0  0  0  0  0  0  0  0  0  0  0  0
    9.4568    6.5588    5.3626 N   0  0  0  0  0  0  0  0  0  0  0  0
    9.8833    6.7823    6.6000 N   0  0  0  0  0  2  0  0  0  0  0  0
    8.8849    7.2677    7.2716 N   0  0  0  0  0  0  0  0  0  0  0  0
    7.7758    7.3839    6.4620 C   0  0  0  0  0  0  0  0  0  0  0  0
    8.1626    6.9249    5.2240 C   0  0  0  0  0  0  0  0  0  0  0  0
    7.6351    6.8258    4.2996 H   0  0  0  0  0  0  0  0  0  0  0  0
    6.6321    7.9643    7.1217 C   0  0  0  0  0  0  0  0  0  0  0  0
    6.8978    8.2605    8.4795 C   0  0  0  0  0  0  0  0  0  0  0  0
    5.8718    8.8353    9.2166 C   0  0  0  0  0  0  0  0  0  0  0  0
    6.0176    9.0635   10.2643 H   0  0  0  0  0  0  0  0  0  0  0  0
    4.6450    9.1137    8.6351 C   0  0  0  0  0  0  0  0  0  0  0  0
    3.8596    9.5586    9.2304 H   0  0  0  0  0  0  0  0  0  0  0  0
    4.4086    8.8207    7.2995 C   0  0  0  0  0  0  0  0  0  0  0  0
    3.4457    9.0392    6.8614 H   0  0  0  0  0  0  0  0  0  0  0  0
    5.4028    8.2422    6.5351 C   0  0  0  0  0  0  0  0  0  0  0  0
    5.2319    8.0006    5.4958 H   0  0  0  0  0  0  0  0  0  0  0  0
   10.3575    6.1016    4.3391 C   0  0  0  0  0  0  0  0  0  0  0  0
    9.8546    5.3499    3.7255 H   0  0  0  0  0  0  0  0  0  0  0  0
   11.2056    5.6391    4.8520 H   0  0  0  0  0  0  0  0  0  0  0  0
   10.8244    7.2573    3.4866 C   0  0  0  0  0  0  0  0  0  0  0  0
   10.6851    7.2468    2.1099 C   0  0  0  0  0  0  0  0  0  0  0  0
   10.2450    6.3906    1.6193 H   0  0  0  0  0  0  0  0  0  0  0  0
   11.1103    8.3178    1.3402 C   0  0  0  0  0  0  0  0  0  0  0  0
   10.9904    8.2715    0.2696 H   0  0  0  0  0  0  0  0  0  0  0  0
   11.6769    9.4303    1.9518 C   0  0  0  0  0  0  0  0  0  0  0  0
   11.8106    9.4462    3.3429 C   0  0  0  0  0  0  0  0  0  0  0  0
   12.2517   10.3155    3.8039 H   0  0  0  0  0  0  0  0  0  0  0  0
   11.3923    8.3730    4.0953 C   0  0  0  0  0  0  0  0  0  0  0  0
   11.4991    8.3899    5.1694 H   0  0  0  0  0  0  0  0  0  0  0  0
   12.0266   10.5814   -0.1016 C   0  0  0  0  0  0  0  0  0  0  0  0
   12.6005    9.7763   -0.5715 H   0  0  0  0  0  0  0  0  0  0  0  0
   12.4480   11.5414   -0.3951 H   0  0  0  0  0  0  0  0  0  0  0  0
   10.9846   10.5281   -0.4327 H   0  0  0  0  0  0  0  0  0  0  0  0
   10.3826    9.1824    9.2025 C   0  0  2  0  0  3  0  0  0  0  0  0
    9.2614    9.6552    9.9582 C   0  0  2  0  0  0  0  0  0  0  0  0
    8.7521   10.5662    9.6631 H   0  0  0  0  0  0  0  0  0  0  0  0
    9.0399    9.1521   11.2706 C   0  0  0  0  0  0  0  0  0  0  0  0
    8.2608    9.5963   11.8783 H   0  0  0  0  0  0  0  0  0  0  0  0
    9.8000    8.1147   11.7780 C   0  0  0  0  0  0  0  0  0  0  0  0
   10.9177    7.6584   11.0274 C   0  0  0  0  0  0  0  0  0  0  0  0
   11.5509    6.8933   11.4540 H   0  0  0  0  0  0  0  0  0  0  0  0
   11.2336    8.2224    9.8153 C   0  0  0  0  0  0  0  0  0  0  0  0
   12.1357    7.9219    9.2990 H   0  0  0  0  0  0  0  0  0  0  0  0
   10.9022    9.9234    7.9853 C   0  0  0  0  0  0  0  0  0  0  0  0
   11.4296    9.1948    7.3579 H   0  0  0  0  0  0  0  0  0  0  0  0
    9.8000   10.5726    7.1477 C   0  0  0  0  0  0  0  0  0  0  0  0
    8.9810    9.8752    6.9775 H   0  0  0  0  0  0  0  0  0  0  0  0
   10.2002   10.8828    6.1849 H   0  0  0  0  0  0  0  0  0  0  0  0
    9.4011   11.4533    7.6448 H   0  0  0  0  0  0  0  0  0  0  0  0
   11.9125   10.9837    8.4397 C   0  0  0  0  0  0  0  0  0  0  0  0
   11.4296   11.7073    9.0936 H   0  0  0  0  0  0  0  0  0  0  0  0
   12.3166   11.5121    7.5792 H   0  0  0  0  0  0  0  0  0  0  0  0
   12.7364   10.5272    8.9840 H   0  0  0  0  0  0  0  0  0  0  0  0
    9.5240    7.5131   13.1216 C   0  0  0  0  0  0  0  0  0  0  0  0
    8.7525    8.0699   13.6487 H   0  0  0  0  0  0  0  0  0  0  0  0
   10.4288    7.4987   13.7291 H   0  0  0  0  0  0  0  0  0  0  0  0
    9.1842    6.4834   13.0042 H   0  0  0  0  0  0  0  0  0  0  0  0
  1 38  1  0  0  0  0
  3 28  1  0  0  0  0
  4  5  1  0  0  0  0
  5  6  1  0  0  0  0
  6  1  1  0  0  0  0
  7 10  1  0  0  0  0
  7  6  1  0  0  0  0
  8  4  1  0  0  0  0
  8  7  2  0  0  0  0
  9  8  1  0  0  0  0
 10 11  1  0  0  0  0
 11  1  1  0  0  0  0
 11 12  2  0  0  0  0
 12 13  1  0  0  0  0
 14 12  1  0  0  0  0
 14 15  1  0  0  0  0
 16 14  2  0  0  0  0
 17 16  1  0  0  0  0
 18 10  2  0  0  0  0
 18 16  1  0  0  0  0
 19 18  1  0  0  0  0
 20 22  1  0  0  0  0
 20  4  1  0  0  0  0
 21 20  1  0  0  0  0
 23 31  1  0  0  0  0
 23 20  1  0  0  0  0
 24 23  2  0  0  0  0
 25 24  1  0  0  0  0
 26 28  2  0  0  0  0
 26 24  1  0  0  0  0
 27 26  1  0  0  0  0
 28 29  1  0  0  0  0
 29 30  1  0  0  0  0
 29 31  2  0  0  0  0
 31 32  1  0  0  0  0
 33  3  1  0  0  0  0
 34 33  1  0  0  0  0
 35 33  1  0  0  0  0
 36 33  1  0  0  0  0
 37 47  1  1  0  0  0
 37 45  1  0  0  0  0
 37 38  1  0  0  0  0
 38 39  1  6  0  0  0
 38 40  1  0  0  0  0
 40 42  2  0  0  0  0
 40 41  1  0  0  0  0
 42 57  1  0  0  0  0
 43 44  1  0  0  0  0
 43 42  1  0  0  0  0
 45 43  2  0  0  0  0
 46 45  1  0  0  0  0
 47 53  1  0  0  0  0
 48 47  1  0  0  0  0
 49 52  1  0  0  0  0
 49 47  1  0  0  0  0
 50 49  1  0  0  0  0
 51 49  1  0  0  0  0
 53 56  1  0  0  0  0
 53 54  1  0  0  0  0
 55 53  1  0  0  0  0
 57 58  1  0  0  0  0
 57 59  1  0  0  0  0
 60 57  1  0  0  0  0
M  END
$$$$
