CSD_code = ZALWIS | q = 0 | S = 0 | Stoichiometry = C21H14ClF3N2O2RuS | MND = 9
 OpenBabel04212202123D

 45 48  0  0  1  0  0  0  0  0999 V2000
    2.6097   -0.0423    6.2408 Ru  0  0  2  0  0  0  0  0  0  0  0  0
    3.8964   -1.8557    5.9008 Cl  0  0  0  0  0  0  0  0  0  0  0  0
    1.1596   -1.5508    4.5875 S   0  0  0  0  0  0  0  0  0  0  0  0
   -0.5605   -1.1061    2.5674 F   0  0  0  0  0  0  0  0  0  0  0  0
   -0.8899    0.0949    4.3277 F   0  0  0  0  0  0  0  0  0  0  0  0
   -1.4691   -1.9844    4.3162 F   0  0  0  0  0  0  0  0  0  0  0  0
    1.5928   -2.6887    3.8552 O   0  0  0  0  0  0  0  0  0  0  0  0
    0.8918   -1.6272    6.0140 O   0  0  0  0  0  0  0  0  0  0  0  0
    1.9718   -0.1937    4.3887 N   0  0  0  0  0  0  0  0  0  0  0  0
    4.1972    0.9865    5.3186 N   0  0  0  0  0  4  0  0  0  0  0  0
    3.0122   -0.0453    3.3982 C   0  0  2  0  0  0  0  0  0  0  0  0
    3.8795    1.1497    3.8803 C   0  0  2  0  0  0  0  0  0  0  0  0
    2.4426    0.2402    2.0311 C   0  0  0  0  0  0  0  0  0  0  0  0
    1.4031    1.1517    1.8938 C   0  0  0  0  0  0  0  0  0  0  0  0
    0.8801    1.4265    0.6436 C   0  0  0  0  0  0  0  0  0  0  0  0
    1.3987    0.8004   -0.4773 C   0  0  0  0  0  0  0  0  0  0  0  0
    2.4380   -0.1042   -0.3442 C   0  0  0  0  0  0  0  0  0  0  0  0
    2.9586   -0.3866    0.9066 C   0  0  0  0  0  0  0  0  0  0  0  0
    5.1229    1.2534    3.0318 C   0  0  0  0  0  0  0  0  0  0  0  0
    6.1232    0.2920    3.1328 C   0  0  0  0  0  0  0  0  0  0  0  0
    7.2445    0.3692    2.3262 C   0  0  0  0  0  0  0  0  0  0  0  0
    7.3736    1.3988    1.4087 C   0  0  0  0  0  0  0  0  0  0  0  0
    6.3752    2.3507    1.2968 C   0  0  0  0  0  0  0  0  0  0  0  0
    5.2543    2.2788    2.1055 C   0  0  0  0  0  0  0  0  0  0  0  0
   -0.5481   -1.1227    3.9009 C   0  0  0  0  0  0  0  0  0  0  0  0
    2.6273    0.1361    8.4919 C   0  0  0  0  0  2  0  0  0  0  0  0
    2.3566    1.2518    7.7185 C   0  0  0  0  0  3  0  0  0  0  0  0
    1.1353    1.4795    7.1225 C   0  0  0  0  0  2  0  0  0  0  0  0
    0.1667    0.8535    7.7866 C   0  0  0  0  0  2  0  0  0  0  0  0
    0.2433   -0.0836    8.7157 C   0  0  0  0  0  2  0  0  0  0  0  0
    1.5043   -0.3571    9.0107 C   0  0  0  0  0  2  0  0  0  0  0  0
    3.6257   -0.9590    3.3642 H   0  0  0  0  0  0  0  0  0  0  0  0
    3.2670    2.0532    3.7789 H   0  0  0  0  0  0  0  0  0  0  0  0
    0.9980    1.6289    2.7748 H   0  0  0  0  0  0  0  0  0  0  0  0
    0.0664    2.1290    0.5449 H   0  0  0  0  0  0  0  0  0  0  0  0
    0.9897    1.0144   -1.4531 H   0  0  0  0  0  0  0  0  0  0  0  0
    2.8422   -0.5964   -1.2158 H   0  0  0  0  0  0  0  0  0  0  0  0
    3.7651   -1.0966    1.0130 H   0  0  0  0  0  0  0  0  0  0  0  0
    6.0243   -0.5291    3.8296 H   0  0  0  0  0  0  0  0  0  0  0  0
    8.0167   -0.3801    2.4114 H   0  0  0  0  0  0  0  0  0  0  0  0
    8.2488    1.4557    0.7796 H   0  0  0  0  0  0  0  0  0  0  0  0
    6.4675    3.1512    0.5788 H   0  0  0  0  0  0  0  0  0  0  0  0
    4.4727    3.0182    2.0128 H   0  0  0  0  0  0  0  0  0  0  0  0
    4.5233    1.8778    5.7010 H   0  0  0  0  0  0  0  0  0  0  0  0
    4.9579    0.2945    5.4105 H   0  0  0  0  0  0  0  0  0  0  0  0
  1  2  1  1  0  0  0
  1 27  1  0  0  0  0
  3  8  2  0  0  0  0
  4 25  1  0  0  0  0
  7  3  2  0  0  0  0
  9  3  1  0  0  0  0
  9  1  1  0  0  0  0
 10 45  1  0  0  0  0
 10 44  1  0  0  0  0
 10  1  1  0  0  0  0
 11 32  1  6  0  0  0
 11 12  1  0  0  0  0
 11  9  1  0  0  0  0
 12 33  1  6  0  0  0
 12 10  1  0  0  0  0
 13 11  1  0  0  0  0
 14 13  1  0  0  0  0
 14 34  1  0  0  0  0
 15 14  2  0  0  0  0
 16 17  2  0  0  0  0
 16 15  1  0  0  0  0
 17 18  1  0  0  0  0
 18 38  1  0  0  0  0
 18 13  2  0  0  0  0
 19 20  1  0  0  0  0
 19 12  1  0  0  0  0
 20 39  1  0  0  0  0
 21 40  1  0  0  0  0
 21 20  2  0  0  0  0
 22 21  1  0  0  0  0
 23 22  2  0  0  0  0
 23 24  1  0  0  0  0
 24 19  2  0  0  0  0
 25  6  1  0  0  0  0
 25  5  1  0  0  0  0
 25  3  1  0  0  0  0
 26 31  1  0  0  0  0
 27 26  1  0  0  0  0
 28 27  1  0  0  0  0
 28 29  1  0  0  0  0
 29 30  1  0  0  0  0
 30 31  1  0  0  0  0
 35 15  1  0  0  0  0
 36 16  1  0  0  0  0
 37 17  1  0  0  0  0
 41 22  1  0  0  0  0
 42 23  1  0  0  0  0
 43 24  1  0  0  0  0
M  END
$$$$
