CSD_code = ZANKAA | q = 0 | S = 0 | Stoichiometry = C16H34Br3IrP2S | MND = 6
 OpenBabel04212202123D

 57 57  0  0  0  0  0  0  0  0999 V2000
    1.7712    1.6805    4.3993 Ir  0  0  0  0  0  0  0  0  0  0  0  0
    3.0724   -0.1187    5.6473 Br  0  0  0  0  0  0  0  0  0  0  0  0
    3.7647    2.5011    3.0846 Br  0  0  0  0  0  0  0  0  0  0  0  0
   -2.2745    3.9661    3.2002 Br  0  0  0  0  0  0  0  0  0  0  0  0
   -0.1661    0.8544    5.5408 S   0  0  0  0  0  0  0  0  0  0  0  0
    2.4079    3.1585    6.1349 P   0  0  0  0  0  4  0  0  0  0  0  0
    1.5573    0.1015    2.6516 P   0  0  0  0  0  4  0  0  0  0  0  0
    0.7870    4.1155    2.6374 C   0  0  0  0  0  0  0  0  0  0  0  0
    0.4706    3.0059    3.5750 C   0  0  0  0  0  0  0  0  0  0  0  0
   -0.8495    2.8263    3.9270 C   0  0  0  0  0  0  0  0  0  0  0  0
   -1.2786    1.8590    4.8189 C   0  0  0  0  0  3  0  0  0  0  0  0
    3.9577    2.8153    7.0693 C   0  0  0  0  0  0  0  0  0  0  0  0
    5.2298    2.7757    6.2349 C   0  0  0  0  0  0  0  0  0  0  0  0
    1.2459    3.2699    7.5713 C   0  0  0  0  0  0  0  0  0  0  0  0
   -0.0135    4.0868    7.3142 C   0  0  0  0  0  0  0  0  0  0  0  0
    2.6054    4.9037    5.5700 C   0  0  0  0  0  0  0  0  0  0  0  0
    3.1303    5.8868    6.6088 C   0  0  0  0  0  0  0  0  0  0  0  0
    1.1063    0.8222    1.0092 C   0  0  0  0  0  0  0  0  0  0  0  0
   -0.3807    1.0733    0.7971 C   0  0  0  0  0  0  0  0  0  0  0  0
    0.3166   -1.2480    2.8469 C   0  0  0  0  0  0  0  0  0  0  0  0
    0.6128   -2.1940    4.0033 C   0  0  0  0  0  0  0  0  0  0  0  0
    3.1221   -0.7768    2.2185 C   0  0  0  0  0  0  0  0  0  0  0  0
    2.9815   -1.9847    1.2999 C   0  0  0  0  0  0  0  0  0  0  0  0
    0.3531    5.0489    3.0033 H   0  0  0  0  0  0  0  0  0  0  0  0
    1.8511    4.2569    2.4839 H   0  0  0  0  0  0  0  0  0  0  0  0
    0.3224    3.9158    1.6690 H   0  0  0  0  0  0  0  0  0  0  0  0
   -2.3188    1.7414    5.0841 H   0  0  0  0  0  0  0  0  0  0  0  0
    3.8179    1.8561    7.5756 H   0  0  0  0  0  0  0  0  0  0  0  0
    4.0266    3.5960    7.8336 H   0  0  0  0  0  0  0  0  0  0  0  0
    6.0927    2.6997    6.8933 H   0  0  0  0  0  0  0  0  0  0  0  0
    5.2357    1.9093    5.5804 H   0  0  0  0  0  0  0  0  0  0  0  0
    5.3377    3.6678    5.6221 H   0  0  0  0  0  0  0  0  0  0  0  0
    1.7945    3.6875    8.4205 H   0  0  0  0  0  0  0  0  0  0  0  0
    0.9785    2.2409    7.8324 H   0  0  0  0  0  0  0  0  0  0  0  0
   -0.6888    4.0029    8.1640 H   0  0  0  0  0  0  0  0  0  0  0  0
    0.2212    5.1392    7.1732 H   0  0  0  0  0  0  0  0  0  0  0  0
   -0.5406    3.7356    6.4307 H   0  0  0  0  0  0  0  0  0  0  0  0
    1.6232    5.2226    5.2113 H   0  0  0  0  0  0  0  0  0  0  0  0
    3.2754    4.8842    4.7067 H   0  0  0  0  0  0  0  0  0  0  0  0
    3.0867    6.8956    6.2022 H   0  0  0  0  0  0  0  0  0  0  0  0
    2.5372    5.8663    7.5208 H   0  0  0  0  0  0  0  0  0  0  0  0
    4.1658    5.6761    6.8616 H   0  0  0  0  0  0  0  0  0  0  0  0
    1.4771    0.1464    0.2346 H   0  0  0  0  0  0  0  0  0  0  0  0
    1.6677    1.7570    0.9213 H   0  0  0  0  0  0  0  0  0  0  0  0
   -0.5333    1.6464   -0.1157 H   0  0  0  0  0  0  0  0  0  0  0  0
   -0.9278    0.1382    0.7007 H   0  0  0  0  0  0  0  0  0  0  0  0
   -0.8111    1.6332    1.6234 H   0  0  0  0  0  0  0  0  0  0  0  0
    0.2901   -1.7934    1.8983 H   0  0  0  0  0  0  0  0  0  0  0  0
   -0.6608   -0.7781    2.9930 H   0  0  0  0  0  0  0  0  0  0  0  0
   -0.1062   -3.0115    4.0094 H   0  0  0  0  0  0  0  0  0  0  0  0
    1.6136   -2.6125    3.9301 H   0  0  0  0  0  0  0  0  0  0  0  0
    0.5412   -1.6773    4.9574 H   0  0  0  0  0  0  0  0  0  0  0  0
    3.6054   -1.0810    3.1497 H   0  0  0  0  0  0  0  0  0  0  0  0
    3.7635   -0.0252    1.7482 H   0  0  0  0  0  0  0  0  0  0  0  0
    3.9768   -2.3354    1.0346 H   0  0  0  0  0  0  0  0  0  0  0  0
    2.4606   -2.8045    1.7877 H   0  0  0  0  0  0  0  0  0  0  0  0
    2.4598   -1.7422    0.3760 H   0  0  0  0  0  0  0  0  0  0  0  0
  1  5  1  0  0  0  0
  1  2  1  0  0  0  0
  1  6  1  0  0  0  0
  3  1  1  0  0  0  0
  4 10  1  0  0  0  0
  6 12  1  0  0  0  0
  6 14  1  0  0  0  0
  7 20  1  0  0  0  0
  7  1  1  0  0  0  0
  8 24  1  0  0  0  0
  8  9  1  0  0  0  0
  9 10  2  0  0  0  0
  9  1  1  0  0  0  0
 10 11  1  0  0  0  0
 11 27  1  0  0  0  0
 11  5  1  0  0  0  0
 12 28  1  0  0  0  0
 12 29  1  0  0  0  0
 13 30  1  0  0  0  0
 13 12  1  0  0  0  0
 14 34  1  0  0  0  0
 14 33  1  0  0  0  0
 15 14  1  0  0  0  0
 15 35  1  0  0  0  0
 16  6  1  0  0  0  0
 16 17  1  0  0  0  0
 17 42  1  0  0  0  0
 17 41  1  0  0  0  0
 18  7  1  0  0  0  0
 19 18  1  0  0  0  0
 19 47  1  0  0  0  0
 20 49  1  0  0  0  0
 20 21  1  0  0  0  0
 21 50  1  0  0  0  0
 21 52  1  0  0  0  0
 22  7  1  0  0  0  0
 22 53  1  0  0  0  0
 23 56  1  0  0  0  0
 23 22  1  0  0  0  0
 25  8  1  0  0  0  0
 26  8  1  0  0  0  0
 31 13  1  0  0  0  0
 32 13  1  0  0  0  0
 36 15  1  0  0  0  0
 37 15  1  0  0  0  0
 38 16  1  0  0  0  0
 39 16  1  0  0  0  0
 40 17  1  0  0  0  0
 43 18  1  0  0  0  0
 44 18  1  0  0  0  0
 45 19  1  0  0  0  0
 46 19  1  0  0  0  0
 48 20  1  0  0  0  0
 51 21  1  0  0  0  0
 54 22  1  0  0  0  0
 55 23  1  0  0  0  0
 57 23  1  0  0  0  0
M  END
$$$$
