CSD_code = ZANZUJ | q = 0 | S = 0 | Stoichiometry = C22H13BrF5N2PPdS | MND = 4
 OpenBabel04212202123D

 46 50  0  0  1  0  0  0  0  0999 V2000
    1.4105    1.9677   -2.8892 Pd  0  0  2  0  0  0  0  0  0  0  0  0
   -0.1888    3.5316   -3.6714 Br  0  0  0  0  0  0  0  0  0  0  0  0
    3.1995    0.3225   -2.3457 S   0  0  0  0  0  0  0  0  0  0  0  0
    1.9559   -0.6053   -3.5612 P   0  0  1  0  0  4  0  0  0  0  0  0
    1.9397    3.1406   -0.5854 F   0  0  0  0  0  0  0  0  0  0  0  0
    3.5439    5.2083    0.3452 F   0  0  0  0  0  0  0  0  0  0  0  0
    5.1407    6.5576   -1.4212 F   0  0  0  0  0  0  0  0  0  0  0  0
    5.1414    5.8602   -4.0577 F   0  0  0  0  0  0  0  0  0  0  0  0
    3.5674    3.8291   -4.9391 F   0  0  0  0  0  0  0  0  0  0  0  0
   -0.0892    0.5218   -2.4911 N   0  0  0  0  0  0  0  0  0  0  0  0
    0.2468    0.0857   -5.4524 N   0  0  0  0  0  0  0  0  0  0  0  0
    0.3203   -0.7208   -2.7572 C   0  0  2  0  0  3  0  0  0  0  0  0
   -0.3793   -1.8461   -2.3641 C   0  0  0  0  0  0  0  0  0  0  0  0
   -1.5704   -1.6560   -1.6762 C   0  0  0  0  0  0  0  0  0  0  0  0
   -1.9979   -0.3644   -1.4110 C   0  0  0  0  0  0  0  0  0  0  0  0
   -1.2261    0.7085   -1.8360 C   0  0  0  0  0  0  0  0  0  0  0  0
    1.4970    0.3266   -5.0714 C   0  0  0  0  0  0  0  0  0  0  0  0
    2.3453    1.2489   -5.6801 C   0  0  0  0  0  0  0  0  0  0  0  0
    1.8144    2.0107   -6.7101 C   0  0  0  0  0  0  0  0  0  0  0  0
    0.4906    1.8082   -7.0786 C   0  0  0  0  0  0  0  0  0  0  0  0
   -0.2441    0.8226   -6.4359 C   0  0  0  0  0  0  0  0  0  0  0  0
    2.4513   -2.2785   -4.0309 C   0  0  0  0  0  0  0  0  0  0  0  0
    3.5928   -2.8579   -3.4951 C   0  0  0  0  0  0  0  0  0  0  0  0
    3.9378   -4.1445   -3.8702 C   0  0  0  0  0  0  0  0  0  0  0  0
    3.1487   -4.8371   -4.7748 C   0  0  0  0  0  0  0  0  0  0  0  0
    2.0122   -4.2501   -5.3126 C   0  0  0  0  0  0  0  0  0  0  0  0
    1.6579   -2.9661   -4.9448 C   0  0  0  0  0  0  0  0  0  0  0  0
    2.7483    3.4340   -2.7630 C   0  0  0  0  0  0  0  0  0  0  0  0
    2.7665    3.8341   -1.4300 C   0  0  0  0  0  0  0  0  0  0  0  0
    3.5521    4.8675   -0.9485 C   0  0  0  0  0  0  0  0  0  0  0  0
    4.3636    5.5550   -1.8487 C   0  0  0  0  0  0  0  0  0  0  0  0
    4.3632    5.1975   -3.1919 C   0  0  0  0  0  0  0  0  0  0  0  0
    3.5553    4.1517   -3.6293 C   0  0  0  0  0  0  0  0  0  0  0  0
   -0.0021   -2.8314   -2.5938 H   0  0  0  0  0  0  0  0  0  0  0  0
   -2.1516   -2.5057   -1.3512 H   0  0  0  0  0  0  0  0  0  0  0  0
   -2.9170   -0.1834   -0.8773 H   0  0  0  0  0  0  0  0  0  0  0  0
   -1.5262    1.7364   -1.6592 H   0  0  0  0  0  0  0  0  0  0  0  0
    3.3723    1.3566   -5.3476 H   0  0  0  0  0  0  0  0  0  0  0  0
    2.4178    2.7632   -7.1933 H   0  0  0  0  0  0  0  0  0  0  0  0
    0.0334    2.4099   -7.8469 H   0  0  0  0  0  0  0  0  0  0  0  0
   -1.2726    0.6188   -6.7005 H   0  0  0  0  0  0  0  0  0  0  0  0
    4.1953   -2.2972   -2.7934 H   0  0  0  0  0  0  0  0  0  0  0  0
    4.8227   -4.6057   -3.4589 H   0  0  0  0  0  0  0  0  0  0  0  0
    3.4216   -5.8402   -5.0662 H   0  0  0  0  0  0  0  0  0  0  0  0
    1.4049   -4.7946   -6.0200 H   0  0  0  0  0  0  0  0  0  0  0  0
    0.7797   -2.4846   -5.3545 H   0  0  0  0  0  0  0  0  0  0  0  0
  1  2  1  6  0  0  0
  1 28  1  0  0  0  0
  1 10  1  0  0  0  0
  1  3  1  0  0  0  0
  4 17  1  6  0  0  0
  4 12  1  0  0  0  0
  4  3  1  0  0  0  0
  8 32  1  0  0  0  0
  9 33  1  0  0  0  0
 10 16  1  0  0  0  0
 11 17  1  0  0  0  0
 12 10  1  0  0  0  0
 12 13  1  1  0  0  0
 13 14  2  0  0  0  0
 14 15  1  0  0  0  0
 14 35  1  0  0  0  0
 15 36  1  0  0  0  0
 16 37  1  0  0  0  0
 16 15  2  0  0  0  0
 18 38  1  0  0  0  0
 18 17  2  0  0  0  0
 19 18  1  0  0  0  0
 20 19  2  0  0  0  0
 20 21  1  0  0  0  0
 21 11  2  0  0  0  0
 22  4  1  0  0  0  0
 22 23  1  0  0  0  0
 23 42  1  0  0  0  0
 24 23  2  0  0  0  0
 24 43  1  0  0  0  0
 25 24  1  0  0  0  0
 26 27  1  0  0  0  0
 26 25  2  0  0  0  0
 27 22  2  0  0  0  0
 28 29  1  0  0  0  0
 29 30  2  0  0  0  0
 29  5  1  0  0  0  0
 30  6  1  0  0  0  0
 31  7  1  0  0  0  0
 31 30  1  0  0  0  0
 32 31  2  0  0  0  0
 33 32  1  0  0  0  0
 33 28  2  0  0  0  0
 34 13  1  0  0  0  0
 39 19  1  0  0  0  0
 40 20  1  0  0  0  0
 41 21  1  0  0  0  0
 44 25  1  0  0  0  0
 45 26  1  0  0  0  0
 46 27  1  0  0  0  0
M  END
$$$$
