CSD_code = ZAPLIO | q = -1 | S = 0 | Stoichiometry = C14H14AuClNO4S2(1-) | MND = 2
 OpenBabel04212202123D

 37 38  0  0  0  0  0  0  0  0999 V2000
    2.0076    9.4718   19.1365 Au  0  0  0  0  0  0  0  0  0  0  0  0
   -0.7502    7.9671   18.5390 S   0  0  0  0  0  0  0  0  0  0  0  0
    0.0075    8.2230   21.0796 S   0  0  0  0  0  0  0  0  0  0  0  0
    3.6233   10.9085   18.6269 Cl  0  0  0  0  0  0  0  0  0  0  0  0
    0.4960    8.1864   19.5408 N   0  0  0  0  0  0  0  0  0  0  0  0
   -0.2545    7.5896   17.2399 O   0  0  0  0  0  0  0  0  0  0  0  0
   -1.6910    7.0555   19.1435 O   0  0  0  0  0  0  0  0  0  0  0  0
    1.1439    8.5155   21.9172 O   0  0  0  0  0  0  0  0  0  0  0  0
   -1.1384    9.0782   21.2659 O   0  0  0  0  0  0  0  0  0  0  0  0
   -1.5279    9.5676   18.3720 C   0  0  0  0  0  0  0  0  0  0  0  0
   -2.7105    9.8334   19.0289 C   0  0  0  0  0  0  0  0  0  0  0  0
   -3.1707    9.0427   19.5977 H   0  0  0  0  0  0  0  0  0  0  0  0
   -3.2579   11.1036   18.9569 C   0  0  0  0  0  0  0  0  0  0  0  0
   -4.1796   11.3203   19.4788 H   0  0  0  0  0  0  0  0  0  0  0  0
   -2.6273   12.1069   18.2325 C   0  0  0  0  0  0  0  0  0  0  0  0
   -1.4435   11.8127   17.5625 C   0  0  0  0  0  0  0  0  0  0  0  0
   -0.9456   12.5852   16.9940 H   0  0  0  0  0  0  0  0  0  0  0  0
   -0.8932   10.5458   17.6302 C   0  0  0  0  0  0  0  0  0  0  0  0
    0.0222   10.3002   17.1145 H   0  0  0  0  0  0  0  0  0  0  0  0
   -3.2021   13.4918   18.1611 C   0  0  0  0  0  0  0  0  0  0  0  0
   -2.4788   14.2183   18.5282 H   0  0  0  0  0  0  0  0  0  0  0  0
   -4.1073   13.5693   18.7582 H   0  0  0  0  0  0  0  0  0  0  0  0
   -3.4409   13.7514   17.1300 H   0  0  0  0  0  0  0  0  0  0  0  0
   -0.4601    6.5348   21.4328 C   0  0  0  0  0  0  0  0  0  0  0  0
   -1.6151    6.2568   22.1319 C   0  0  0  0  0  0  0  0  0  0  0  0
   -2.2450    7.0785   22.4335 H   0  0  0  0  0  0  0  0  0  0  0  0
   -1.9439    4.9403   22.4078 C   0  0  0  0  0  0  0  0  0  0  0  0
   -2.8527    4.7147   22.9493 H   0  0  0  0  0  0  0  0  0  0  0  0
   -1.1207    3.9031   21.9890 C   0  0  0  0  0  0  0  0  0  0  0  0
    0.0434    4.2072   21.2903 C   0  0  0  0  0  0  0  0  0  0  0  0
    0.6876    3.4052   20.9572 H   0  0  0  0  0  0  0  0  0  0  0  0
    0.3771    5.5205   21.0146 C   0  0  0  0  0  0  0  0  0  0  0  0
    1.2691    5.7794   20.4661 H   0  0  0  0  0  0  0  0  0  0  0  0
   -1.4849    2.4717   22.2593 C   0  0  0  0  0  0  0  0  0  0  0  0
   -1.8782    2.0111   21.3531 H   0  0  0  0  0  0  0  0  0  0  0  0
   -2.2445    2.4026   23.0344 H   0  0  0  0  0  0  0  0  0  0  0  0
   -0.6105    1.9034   22.5708 H   0  0  0  0  0  0  0  0  0  0  0  0
  1  5  1  0  0  0  0
  2  7  2  0  0  0  0
  2  5  1  0  0  0  0
  3  9  2  0  0  0  0
  3 24  1  0  0  0  0
  3  8  2  0  0  0  0
  4  1  1  0  0  0  0
  5  3  1  0  0  0  0
  6  2  2  0  0  0  0
 10  2  1  0  0  0  0
 10 11  1  0  0  0  0
 11 12  1  0  0  0  0
 13 11  2  0  0  0  0
 13 14  1  0  0  0  0
 15 13  1  0  0  0  0
 16 18  1  0  0  0  0
 16 15  2  0  0  0  0
 17 16  1  0  0  0  0
 18 10  2  0  0  0  0
 19 18  1  0  0  0  0
 20 15  1  0  0  0  0
 20 21  1  0  0  0  0
 20 22  1  0  0  0  0
 23 20  1  0  0  0  0
 24 25  1  0  0  0  0
 25 27  2  0  0  0  0
 25 26  1  0  0  0  0
 27 28  1  0  0  0  0
 29 34  1  0  0  0  0
 29 27  1  0  0  0  0
 30 29  2  0  0  0  0
 31 30  1  0  0  0  0
 32 30  1  0  0  0  0
 32 24  2  0  0  0  0
 33 32  1  0  0  0  0
 34 37  1  0  0  0  0
 34 36  1  0  0  0  0
 35 34  1  0  0  0  0
M  END
$$$$
