CSD_code = ZAPWUL | q = 0 | S = 0 | Stoichiometry = C12H16Br2Cl2FeN4 | MND = 4
 OpenBabel04212202123D

 37 37  0  0  0  0  0  0  0  0999 V2000
    1.7454    1.4846    7.9927 Fe  0  0  0  0  0  0  0  0  0  0  0  0
   -1.8992    3.6218    3.5087 Br  0  0  0  0  0  0  0  0  0  0  0  0
    7.0439    3.9578    6.1035 Br  0  0  0  0  0  0  0  0  0  0  0  0
    2.3035    0.6988    6.2278 Cl  0  0  0  0  0  0  0  0  0  0  0  0
    1.1721    1.9506    9.8520 Cl  0  0  0  0  0  0  0  0  0  0  0  0
    0.4300    3.2087    6.7880 N   0  0  0  0  0  0  0  0  0  0  0  0
    0.8725    4.3847    6.3156 N   0  0  0  0  0  0  0  0  0  0  0  0
    3.3657    3.3335    7.6627 N   0  0  0  0  0  0  0  0  0  0  0  0
    3.1583    4.4743    6.9860 N   0  0  0  0  0  0  0  0  0  0  0  0
   -1.2142    1.4920    6.1784 C   0  0  0  0  0  0  0  0  0  0  0  0
   -0.9240    0.7780    5.4084 H   0  0  0  0  0  0  0  0  0  0  0  0
   -2.2928    1.6312    6.1292 H   0  0  0  0  0  0  0  0  0  0  0  0
   -0.9367    1.0912    7.1555 H   0  0  0  0  0  0  0  0  0  0  0  0
   -0.5108    2.7784    5.9679 C   0  0  0  0  0  0  0  0  0  0  0  0
   -0.6792    3.7205    4.9372 C   0  0  0  0  0  0  0  0  0  0  0  0
    0.2204    4.7407    5.1805 C   0  0  0  0  0  0  0  0  0  0  0  0
    0.4624    5.9869    4.4141 C   0  0  0  0  0  0  0  0  0  0  0  0
    0.3177    6.8690    5.0374 H   0  0  0  0  0  0  0  0  0  0  0  0
   -0.2385    6.0342    3.5842 H   0  0  0  0  0  0  0  0  0  0  0  0
    1.4733    6.0073    4.0076 H   0  0  0  0  0  0  0  0  0  0  0  0
    5.2015    1.7596    8.0804 C   0  0  0  0  0  0  0  0  0  0  0  0
    4.4732    1.3253    8.7681 H   0  0  0  0  0  0  0  0  0  0  0  0
    6.1228    1.9871    8.6138 H   0  0  0  0  0  0  0  0  0  0  0  0
    5.4265    1.0343    7.2993 H   0  0  0  0  0  0  0  0  0  0  0  0
    4.6268    2.9869    7.4822 C   0  0  0  0  0  0  0  0  0  0  0  0
    5.2483    3.9473    6.6641 C   0  0  0  0  0  0  0  0  0  0  0  0
    4.2859    4.8898    6.3563 C   0  0  0  0  0  0  0  0  0  0  0  0
    4.3984    6.1168    5.5312 C   0  0  0  0  0  0  0  0  0  0  0  0
    3.7641    6.0536    4.6472 H   0  0  0  0  0  0  0  0  0  0  0  0
    5.4287    6.2295    5.2026 H   0  0  0  0  0  0  0  0  0  0  0  0
    4.1196    7.0035    6.1001 H   0  0  0  0  0  0  0  0  0  0  0  0
    1.8746    5.1386    7.0370 C   0  0  0  0  0  0  0  0  0  0  0  0
    1.9868    6.0993    6.5250 H   0  0  0  0  0  0  0  0  0  0  0  0
    1.4412    5.3399    8.4860 C   0  0  0  0  0  0  0  0  0  0  0  0
    0.4884    5.8606    8.5176 H   0  0  0  0  0  0  0  0  0  0  0  0
    2.1869    5.9247    9.0170 H   0  0  0  0  0  0  0  0  0  0  0  0
    1.3353    4.3717    8.9709 H   0  0  0  0  0  0  0  0  0  0  0  0
  1  5  1  0  0  0  0
  2 15  1  0  0  0  0
  3 26  1  0  0  0  0
  4  1  1  0  0  0  0
  7  6  1  0  0  0  0
  7 32  1  0  0  0  0
  9 32  1  0  0  0  0
  9  8  1  0  0  0  0
 10 13  1  0  0  0  0
 11 10  1  0  0  0  0
 12 10  1  0  0  0  0
 14 10  1  0  0  0  0
 14  6  2  0  0  0  0
 15 16  2  0  0  0  0
 15 14  1  0  0  0  0
 16  7  1  0  0  0  0
 17 18  1  0  0  0  0
 17 16  1  0  0  0  0
 19 17  1  0  0  0  0
 20 17  1  0  0  0  0
 21 23  1  0  0  0  0
 21 22  1  0  0  0  0
 24 21  1  0  0  0  0
 25  8  2  0  0  0  0
 25 21  1  0  0  0  0
 26 25  1  0  0  0  0
 27 26  2  0  0  0  0
 27  9  1  0  0  0  0
 28 31  1  0  0  0  0
 28 27  1  0  0  0  0
 29 28  1  0  0  0  0
 30 28  1  0  0  0  0
 32 34  1  0  0  0  0
 33 32  1  0  0  0  0
 34 35  1  0  0  0  0
 34 37  1  0  0  0  0
 34 36  1  0  0  0  0
M  END
$$$$
