CSD_code = ZAQWUJ | q = 0 | S = 0 | Stoichiometry = C24H24Cl2F6O3P2Pt | MND = 4
 OpenBabel04212202123D

 62 64  0  0  0  0  0  0  0  0999 V2000
    2.8723    0.9074    3.6200 Pt  0  0  0  0  0  0  0  0  0  0  0  0
    1.3196    0.5511    5.2768 Cl  0  0  0  0  0  0  0  0  0  0  0  0
    4.5547    1.3391    2.0192 Cl  0  0  0  0  0  0  0  0  0  0  0  0
    2.6255   -1.2950    3.1603 P   0  0  0  0  0  4  0  0  0  0  0  0
    3.0589    3.1159    4.1401 P   0  0  0  0  0  4  0  0  0  0  0  0
    4.7394    1.6707    5.7978 F   0  0  0  0  0  0  0  0  0  0  0  0
    6.7391    4.5120    2.6374 F   0  0  0  0  0  0  0  0  0  0  0  0
    4.7157    4.6325    6.7720 F   0  0  0  0  0  0  0  0  0  0  0  0
    0.4561    5.4259    4.9468 F   0  0  0  0  0  0  0  0  0  0  0  0
    3.8759    6.1832    2.0635 F   0  0  0  0  0  0  0  0  0  0  0  0
    1.4380    2.2078    1.5279 F   0  0  0  0  0  0  0  0  0  0  0  0
    4.5382    3.7964    4.0720 O   0  0  0  0  0  0  0  0  0  0  0  0
    2.4736    3.6473    5.5253 O   0  0  0  0  0  0  0  0  0  0  0  0
    2.3584    4.2030    3.1696 O   0  0  0  0  0  0  0  0  0  0  0  0
    0.8909   -1.8400    2.8900 C   0  0  0  0  0  0  0  0  0  0  0  0
    0.0670   -0.7663    2.1873 C   0  0  0  0  0  0  0  0  0  0  0  0
    3.5739   -1.9902    1.7445 C   0  0  0  0  0  0  0  0  0  0  0  0
    3.1021   -1.4536    0.3998 C   0  0  0  0  0  0  0  0  0  0  0  0
    3.1813   -2.3294    4.5715 C   0  0  0  0  0  0  0  0  0  0  0  0
    4.5652   -1.8916    5.0370 C   0  0  0  0  0  0  0  0  0  0  0  0
    5.6995    3.1086    4.2169 C   0  0  0  0  0  0  0  0  0  0  0  0
    5.8312    2.0334    5.0865 C   0  0  0  0  0  0  0  0  0  0  0  0
    7.0152    1.3399    5.2329 C   0  0  0  0  0  0  0  0  0  0  0  0
    8.1158    1.7317    4.4912 C   0  0  0  0  0  0  0  0  0  0  0  0
    8.0267    2.8039    3.6210 C   0  0  0  0  0  0  0  0  0  0  0  0
    6.8277    3.4782    3.4885 C   0  0  0  0  0  0  0  0  0  0  0  0
    2.5770    4.9763    5.8555 C   0  0  0  0  0  0  0  0  0  0  0  0
    3.7059    5.4766    6.4962 C   0  0  0  0  0  0  0  0  0  0  0  0
    3.8147    6.8072    6.8550 C   0  0  0  0  0  0  0  0  0  0  0  0
    2.7748    7.6719    6.5633 C   0  0  0  0  0  0  0  0  0  0  0  0
    1.6383    7.2096    5.9234 C   0  0  0  0  0  0  0  0  0  0  0  0
    1.5521    5.8744    5.5729 C   0  0  0  0  0  0  0  0  0  0  0  0
    2.6482    4.1949    1.8314 C   0  0  0  0  0  0  0  0  0  0  0  0
    3.4276    5.2000    1.2685 C   0  0  0  0  0  0  0  0  0  0  0  0
    3.7352    5.2074   -0.0796 C   0  0  0  0  0  0  0  0  0  0  0  0
    3.2624    4.1891   -0.8885 C   0  0  0  0  0  0  0  0  0  0  0  0
    2.4799    3.1766   -0.3610 C   0  0  0  0  0  0  0  0  0  0  0  0
    2.1880    3.1899    0.9887 C   0  0  0  0  0  0  0  0  0  0  0  0
    0.4633   -2.0308    3.8766 H   0  0  0  0  0  0  0  0  0  0  0  0
    0.8991   -2.7750    2.3218 H   0  0  0  0  0  0  0  0  0  0  0  0
   -0.9648   -1.0928    2.0736 H   0  0  0  0  0  0  0  0  0  0  0  0
    0.0778    0.1442    2.7844 H   0  0  0  0  0  0  0  0  0  0  0  0
    0.4690   -0.5325    1.2054 H   0  0  0  0  0  0  0  0  0  0  0  0
    3.4972   -3.0817    1.7801 H   0  0  0  0  0  0  0  0  0  0  0  0
    4.6183   -1.7069    1.8959 H   0  0  0  0  0  0  0  0  0  0  0  0
    3.7710   -1.7842   -0.3924 H   0  0  0  0  0  0  0  0  0  0  0  0
    2.0983   -1.8010    0.1676 H   0  0  0  0  0  0  0  0  0  0  0  0
    3.1086   -0.3659    0.4202 H   0  0  0  0  0  0  0  0  0  0  0  0
    3.1688   -3.3841    4.2817 H   0  0  0  0  0  0  0  0  0  0  0  0
    2.4589   -2.1739    5.3763 H   0  0  0  0  0  0  0  0  0  0  0  0
    4.8676   -2.4457    5.9232 H   0  0  0  0  0  0  0  0  0  0  0  0
    5.3111   -2.0451    4.2595 H   0  0  0  0  0  0  0  0  0  0  0  0
    4.5352   -0.8303    5.2848 H   0  0  0  0  0  0  0  0  0  0  0  0
    7.0568    0.5069    5.9153 H   0  0  0  0  0  0  0  0  0  0  0  0
    9.0464    1.1967    4.5895 H   0  0  0  0  0  0  0  0  0  0  0  0
    8.8702    3.1216    3.0297 H   0  0  0  0  0  0  0  0  0  0  0  0
    4.7111    7.1461    7.3485 H   0  0  0  0  0  0  0  0  0  0  0  0
    2.8519    8.7127    6.8333 H   0  0  0  0  0  0  0  0  0  0  0  0
    0.8190    7.8674    5.6827 H   0  0  0  0  0  0  0  0  0  0  0  0
    4.3523    5.9998   -0.4704 H   0  0  0  0  0  0  0  0  0  0  0  0
    3.5094    4.1815   -1.9378 H   0  0  0  0  0  0  0  0  0  0  0  0
    2.1096    2.3700   -0.9721 H   0  0  0  0  0  0  0  0  0  0  0  0
  1  5  1  0  0  0  0
  1  2  1  0  0  0  0
  3  1  1  0  0  0  0
  4  1  1  0  0  0  0
  4 19  1  0  0  0  0
  5 13  1  0  0  0  0
  7 26  1  0  0  0  0
  9 32  1  0  0  0  0
 12  5  1  0  0  0  0
 12 21  1  0  0  0  0
 13 27  1  0  0  0  0
 14  5  1  0  0  0  0
 15  4  1  0  0  0  0
 15 39  1  0  0  0  0
 16 42  1  0  0  0  0
 16 15  1  0  0  0  0
 17 44  1  0  0  0  0
 17 45  1  0  0  0  0
 17  4  1  0  0  0  0
 18 48  1  0  0  0  0
 18 17  1  0  0  0  0
 19 20  1  0  0  0  0
 19 50  1  0  0  0  0
 20 53  1  0  0  0  0
 20 51  1  0  0  0  0
 21 22  1  0  0  0  0
 22 23  2  0  0  0  0
 22  6  1  0  0  0  0
 23 54  1  0  0  0  0
 24 55  1  0  0  0  0
 24 23  1  0  0  0  0
 25 24  2  0  0  0  0
 26 25  1  0  0  0  0
 26 21  2  0  0  0  0
 27 28  1  0  0  0  0
 28  8  1  0  0  0  0
 28 29  2  0  0  0  0
 29 57  1  0  0  0  0
 30 58  1  0  0  0  0
 30 29  1  0  0  0  0
 31 30  2  0  0  0  0
 32 27  2  0  0  0  0
 32 31  1  0  0  0  0
 33 14  1  0  0  0  0
 34 33  1  0  0  0  0
 34 10  1  0  0  0  0
 35 34  2  0  0  0  0
 36 37  2  0  0  0  0
 36 35  1  0  0  0  0
 37 38  1  0  0  0  0
 38 11  1  0  0  0  0
 38 33  2  0  0  0  0
 40 15  1  0  0  0  0
 41 16  1  0  0  0  0
 43 16  1  0  0  0  0
 46 18  1  0  0  0  0
 47 18  1  0  0  0  0
 49 19  1  0  0  0  0
 52 20  1  0  0  0  0
 56 25  1  0  0  0  0
 59 31  1  0  0  0  0
 60 35  1  0  0  0  0
 61 36  1  0  0  0  0
 62 37  1  0  0  0  0
M  END
$$$$
