CSD_code = ZAQYOI | q = 0 | S = 0 | Stoichiometry = C19H20ClCoN2O2 | MND = 5
 OpenBabel04212202123D

 45 49  0  0  1  0  0  0  0  0999 V2000
   -1.7546   10.8738    7.3918 Co  0  0  0  0  0  0  0  0  0  0  0  0
   -2.5815    8.9432    7.6107 Cl  0  0  0  0  0  0  0  0  0  0  0  0
   -0.5773   10.2197    6.0901 N   0  0  2  0  0  0  0  0  0  0  0  0
   -0.4555   10.5380    8.6900 N   0  0  1  0  0  0  0  0  0  0  0  0
   -2.8963   11.5136    6.1351 O   0  0  0  0  0  0  0  0  0  0  0  0
   -2.8364   11.6680    8.6410 O   0  0  0  0  0  0  0  0  0  0  0  0
   -2.8483   11.4243    4.8546 C   0  0  0  0  0  0  0  0  0  0  0  0
   -3.8500   12.1054    4.1154 C   0  0  0  0  0  0  0  0  0  0  0  0
   -4.5833   12.6544    4.6856 H   0  0  0  0  0  0  0  0  0  0  0  0
   -3.8826   12.0705    2.7503 C   0  0  0  0  0  0  0  0  0  0  0  0
   -4.6584   12.5963    2.2132 H   0  0  0  0  0  0  0  0  0  0  0  0
   -2.9097   11.3570    2.0443 C   0  0  0  0  0  0  0  0  0  0  0  0
   -2.9253   11.3449    0.9651 H   0  0  0  0  0  0  0  0  0  0  0  0
   -1.9346   10.6768    2.7255 C   0  0  0  0  0  0  0  0  0  0  0  0
   -1.1806   10.1601    2.1522 H   0  0  0  0  0  0  0  0  0  0  0  0
   -1.8652   10.6775    4.1323 C   0  0  0  0  0  0  0  0  0  0  0  0
   -0.8157    9.9857    4.8314 C   0  0  1  0  0  3  0  0  0  0  0  0
    0.0321    8.9942    4.0824 C   0  0  0  0  0  0  0  0  0  0  0  0
    0.2559    8.1436    4.7220 H   0  0  0  0  0  0  0  0  0  0  0  0
    0.9718    9.4480    3.7658 H   0  0  0  0  0  0  0  0  0  0  0  0
   -0.4887    8.6226    3.2076 H   0  0  0  0  0  0  0  0  0  0  0  0
    0.5497    9.5805    6.7399 C   0  0  0  0  0  0  0  0  0  0  0  0
    0.2920    8.5386    6.9676 H   0  0  0  0  0  0  0  0  0  0  0  0
    1.4432    9.6049    6.1084 H   0  0  0  0  0  0  0  0  0  0  0  0
    0.8320   10.3243    8.0487 C   0  0  1  0  0  0  0  0  0  0  0  0
    1.4889    9.6994    8.6634 H   0  0  0  0  0  0  0  0  0  0  0  0
    1.5020   11.6731    7.7643 C   0  0  0  0  0  0  0  0  0  0  0  0
    1.6442   12.2377    8.6831 H   0  0  0  0  0  0  0  0  0  0  0  0
    0.8714   12.2611    7.0975 H   0  0  0  0  0  0  0  0  0  0  0  0
    2.4710   11.5213    7.2939 H   0  0  0  0  0  0  0  0  0  0  0  0
   -0.5866   10.4997    9.9816 C   0  0  1  0  0  3  0  0  0  0  0  0
    0.5987   10.2871   10.8883 C   0  0  0  0  0  0  0  0  0  0  0  0
    1.4953   10.7563   10.4934 H   0  0  0  0  0  0  0  0  0  0  0  0
    0.7865    9.2193   11.0030 H   0  0  0  0  0  0  0  0  0  0  0  0
    0.4052   10.7129   11.8672 H   0  0  0  0  0  0  0  0  0  0  0  0
   -1.8700   10.6966   10.6038 C   0  0  0  0  0  0  0  0  0  0  0  0
   -2.1096   10.3064   11.9331 C   0  0  0  0  0  0  0  0  0  0  0  0
   -1.3550    9.7531   12.4709 H   0  0  0  0  0  0  0  0  0  0  0  0
   -3.3027   10.5662   12.5577 C   0  0  0  0  0  0  0  0  0  0  0  0
   -3.4655   10.2388   13.5731 H   0  0  0  0  0  0  0  0  0  0  0  0
   -4.3086   11.2544   11.8748 C   0  0  0  0  0  0  0  0  0  0  0  0
   -5.2411   11.4747   12.3738 H   0  0  0  0  0  0  0  0  0  0  0  0
   -4.1264   11.6244   10.5710 C   0  0  0  0  0  0  0  0  0  0  0  0
   -4.8998   12.1284   10.0126 H   0  0  0  0  0  0  0  0  0  0  0  0
   -2.9286   11.3240    9.8766 C   0  0  0  0  0  0  0  0  0  0  0  0
  1  2  1  0  0  0  0
  1  6  1  0  0  0  0
  3 22  1  1  0  0  0
  3  1  1  0  0  0  0
  4  1  1  1  0  0  0
  4 31  1  0  0  0  0
  5  1  1  0  0  0  0
  6 45  1  0  0  0  0
  7  5  1  0  0  0  0
  8  9  1  0  0  0  0
  8  7  2  0  0  0  0
 10  8  1  0  0  0  0
 11 10  1  0  0  0  0
 12 14  1  0  0  0  0
 12 10  2  0  0  0  0
 13 12  1  0  0  0  0
 14 16  2  0  0  0  0
 15 14  1  0  0  0  0
 16 17  1  0  0  0  0
 16  7  1  0  0  0  0
 17 18  1  6  0  0  0
 17  3  1  0  0  0  0
 18 19  1  0  0  0  0
 20 18  1  0  0  0  0
 21 18  1  0  0  0  0
 22 23  1  0  0  0  0
 22 25  1  0  0  0  0
 24 22  1  0  0  0  0
 25 26  1  1  0  0  0
 25  4  1  0  0  0  0
 27 25  1  0  0  0  0
 27 28  1  0  0  0  0
 29 27  1  0  0  0  0
 30 27  1  0  0  0  0
 31 36  1  0  0  0  0
 31 32  1  1  0  0  0
 32 34  1  0  0  0  0
 32 35  1  0  0  0  0
 33 32  1  0  0  0  0
 36 37  1  0  0  0  0
 37 38  1  0  0  0  0
 37 39  2  0  0  0  0
 39 40  1  0  0  0  0
 41 42  1  0  0  0  0
 41 39  1  0  0  0  0
 43 41  2  0  0  0  0
 44 43  1  0  0  0  0
 45 43  1  0  0  0  0
 45 36  2  0  0  0  0
M  END
$$$$
