CSD_code = ZARKOV | q = 0 | S = 0 | Stoichiometry = C21H30ClIrNP | MND = 5
 OpenBabel04212202123D

 55 58  0  0  1  0  0  0  0  0999 V2000
    3.6990   -0.0069    0.5412 Ir  0  0  0  0  0  0  0  0  0  0  0  0
    3.2458    1.2355   -1.4341 Cl  0  0  0  0  0  0  0  0  0  0  0  0
    2.7696    1.5177    2.0091 P   0  0  0  0  0  4  0  0  0  0  0  0
    5.0615   -1.2106   -0.4546 N   0  0  0  0  0  0  0  0  0  0  0  0
    3.4919   -1.9579   -2.1448 C   0  0  0  0  0  0  0  0  0  0  0  0
    2.7736   -2.0175   -1.3256 H   0  0  0  0  0  0  0  0  0  0  0  0
    3.3872   -2.8237   -2.7940 H   0  0  0  0  0  0  0  0  0  0  0  0
    3.2611   -1.0608   -2.7194 H   0  0  0  0  0  0  0  0  0  0  0  0
    4.8787   -1.8623   -1.6029 C   0  0  2  0  0  3  0  0  0  0  0  0
    5.9435   -2.4455   -2.2805 C   0  0  0  0  0  0  0  0  0  0  0  0
    5.7669   -2.9463   -3.2194 H   0  0  0  0  0  0  0  0  0  0  0  0
    7.2164   -2.3738   -1.7405 C   0  0  0  0  0  0  0  0  0  0  0  0
    8.0575   -2.8106   -2.2579 H   0  0  0  0  0  0  0  0  0  0  0  0
    7.3870   -1.7542   -0.5179 C   0  0  0  0  0  0  0  0  0  0  0  0
    8.3598   -1.7117   -0.0568 H   0  0  0  0  0  0  0  0  0  0  0  0
    6.2898   -1.1801    0.1195 C   0  0  0  0  0  0  0  0  0  0  0  0
    6.3453   -0.5467    1.4320 C   0  0  0  0  0  0  0  0  0  0  0  0
    7.4887   -0.3940    2.2207 C   0  0  0  0  0  0  0  0  0  0  0  0
    8.4491   -0.7441    1.8732 H   0  0  0  0  0  0  0  0  0  0  0  0
    7.3966    0.2224    3.4515 C   0  0  0  0  0  0  0  0  0  0  0  0
    8.2821    0.3411    4.0580 H   0  0  0  0  0  0  0  0  0  0  0  0
    6.1778    0.7051    3.9202 C   0  0  0  0  0  0  0  0  0  0  0  0
    6.1314    1.1949    4.8834 H   0  0  0  0  0  0  0  0  0  0  0  0
    5.0340    0.5682    3.1540 C   0  0  0  0  0  0  0  0  0  0  0  0
    5.1190   -0.0692    1.9143 C   0  0  0  0  0  0  0  0  0  0  0  0
    3.6751    1.0607    3.5719 C   0  0  0  0  0  0  0  0  0  0  0  0
    3.7250    1.8668    4.3036 H   0  0  0  0  0  0  0  0  0  0  0  0
    3.1357    0.2204    4.0132 H   0  0  0  0  0  0  0  0  0  0  0  0
    3.3127    3.3127    1.7345 C   0  0  0  0  0  0  0  0  0  0  0  0
    3.3280    4.1787    2.9956 C   0  0  0  0  0  0  0  0  0  0  0  0
    3.5233    5.2106    2.7043 H   0  0  0  0  0  0  0  0  0  0  0  0
    4.1245    3.8762    3.6712 H   0  0  0  0  0  0  0  0  0  0  0  0
    2.3845    4.1573    3.5304 H   0  0  0  0  0  0  0  0  0  0  0  0
    4.7438    3.2262    1.1947 C   0  0  0  0  0  0  0  0  0  0  0  0
    4.7679    2.6600    0.2660 H   0  0  0  0  0  0  0  0  0  0  0  0
    5.4138    2.7533    1.9114 H   0  0  0  0  0  0  0  0  0  0  0  0
    5.1202    4.2270    0.9848 H   0  0  0  0  0  0  0  0  0  0  0  0
    2.4318    3.9496    0.6612 C   0  0  0  0  0  0  0  0  0  0  0  0
    2.8759    4.8877    0.3285 H   0  0  0  0  0  0  0  0  0  0  0  0
    1.4330    4.1674    1.0321 H   0  0  0  0  0  0  0  0  0  0  0  0
    2.3595    3.2898   -0.2013 H   0  0  0  0  0  0  0  0  0  0  0  0
    0.9260    1.3921    2.4302 C   0  0  0  0  0  0  0  0  0  0  0  0
    0.3700    2.4971    3.3230 C   0  0  0  0  0  0  0  0  0  0  0  0
   -0.6682    2.2695    3.5645 H   0  0  0  0  0  0  0  0  0  0  0  0
    0.3878    3.4650    2.8299 H   0  0  0  0  0  0  0  0  0  0  0  0
    0.9241    2.5583    4.2578 H   0  0  0  0  0  0  0  0  0  0  0  0
    0.1986    1.3565    1.0850 C   0  0  0  0  0  0  0  0  0  0  0  0
    0.6390    0.5834    0.4538 H   0  0  0  0  0  0  0  0  0  0  0  0
    0.2722    2.3040    0.5599 H   0  0  0  0  0  0  0  0  0  0  0  0
   -0.8566    1.1281    1.2287 H   0  0  0  0  0  0  0  0  0  0  0  0
    0.7084    0.0438    3.1227 C   0  0  0  0  0  0  0  0  0  0  0  0
   -0.3482   -0.2166    3.0877 H   0  0  0  0  0  0  0  0  0  0  0  0
    1.0058    0.0785    4.1681 H   0  0  0  0  0  0  0  0  0  0  0  0
    1.2705   -0.7386    2.6148 H   0  0  0  0  0  0  0  0  0  0  0  0
    3.1097   -1.1988    1.2861 H   0  0  0  0  0  0  0  0  0  0  0  0
  1 55  1  0  0  0  0
  1 25  1  0  0  0  0
  1  3  1  0  0  0  0
  2  1  1  0  0  0  0
  3 42  1  0  0  0  0
  3 26  1  0  0  0  0
  4 16  1  0  0  0  0
  4  1  1  0  0  0  0
  5  6  1  0  0  0  0
  7  5  1  0  0  0  0
  8  5  1  0  0  0  0
  9  5  1  1  0  0  0
  9  4  1  0  0  0  0
 10 12  2  0  0  0  0
 10  9  1  0  0  0  0
 11 10  1  0  0  0  0
 12 14  1  0  0  0  0
 13 12  1  0  0  0  0
 14 15  1  0  0  0  0
 14 16  2  0  0  0  0
 16 17  1  0  0  0  0
 17 25  2  0  0  0  0
 17 18  1  0  0  0  0
 18 20  2  0  0  0  0
 19 18  1  0  0  0  0
 20 22  1  0  0  0  0
 20 21  1  0  0  0  0
 22 23  1  0  0  0  0
 24 26  1  0  0  0  0
 24 22  2  0  0  0  0
 25 24  1  0  0  0  0
 26 28  1  0  0  0  0
 26 27  1  0  0  0  0
 29  3  1  0  0  0  0
 29 30  1  0  0  0  0
 30 33  1  0  0  0  0
 30 32  1  0  0  0  0
 31 30  1  0  0  0  0
 34 29  1  0  0  0  0
 34 36  1  0  0  0  0
 35 34  1  0  0  0  0
 37 34  1  0  0  0  0
 38 40  1  0  0  0  0
 38 29  1  0  0  0  0
 39 38  1  0  0  0  0
 41 38  1  0  0  0  0
 42 51  1  0  0  0  0
 42 43  1  0  0  0  0
 43 44  1  0  0  0  0
 43 46  1  0  0  0  0
 45 43  1  0  0  0  0
 47 50  1  0  0  0  0
 47 42  1  0  0  0  0
 48 47  1  0  0  0  0
 49 47  1  0  0  0  0
 51 53  1  0  0  0  0
 52 51  1  0  0  0  0
 54 51  1  0  0  0  0
M  END
$$$$
