CSD_code = ZARKUB | q = 0 | S = 0 | Stoichiometry = C24H36ClIrNP | MND = 5
 OpenBabel04212202123D

 64 67  0  0  1  0  0  0  0  0999 V2000
    4.5915    1.2425    3.7172 Ir  0  0  0  0  0  0  0  0  0  0  0  0
    3.7662   -0.9273    3.0529 Cl  0  0  0  0  0  0  0  0  0  0  0  0
    2.5392    2.2381    4.1901 P   0  0  0  0  0  4  0  0  0  0  0  0
    6.3045    0.5593    2.7869 N   0  0  0  0  0  0  0  0  0  0  0  0
    4.4495    2.3293    2.0826 C   0  0  0  0  0  0  0  0  0  0  0  0
    3.4779    3.3020    1.8583 C   0  0  0  0  0  0  0  0  0  0  0  0
    3.4120    3.9002    0.6117 C   0  0  0  0  0  0  0  0  0  0  0  0
    2.6615    4.6521    0.4088 H   0  0  0  0  0  0  0  0  0  0  0  0
    4.3140    3.5421   -0.3850 C   0  0  0  0  0  0  0  0  0  0  0  0
    4.2477    4.0142   -1.3541 H   0  0  0  0  0  0  0  0  0  0  0  0
    5.2973    2.6027   -0.1499 C   0  0  0  0  0  0  0  0  0  0  0  0
    5.9926    2.3585   -0.9387 H   0  0  0  0  0  0  0  0  0  0  0  0
    5.3811    1.9808    1.0987 C   0  0  0  0  0  0  0  0  0  0  0  0
    6.3659    0.9798    1.4955 C   0  0  2  0  0  3  0  0  0  0  0  0
    7.3104    0.4673    0.6121 C   0  0  0  0  0  0  0  0  0  0  0  0
    7.3342    0.8093   -0.4089 H   0  0  0  0  0  0  0  0  0  0  0  0
    8.1946   -0.4951    1.0524 C   0  0  0  0  0  0  0  0  0  0  0  0
    8.9288   -0.9210    0.3849 H   0  0  0  0  0  0  0  0  0  0  0  0
    8.1145   -0.9128    2.3670 C   0  0  0  0  0  0  0  0  0  0  0  0
    8.7872   -1.6754    2.7216 H   0  0  0  0  0  0  0  0  0  0  0  0
    7.1602   -0.3673    3.2244 C   0  0  0  0  0  0  0  0  0  0  0  0
    7.1144   -0.9139    4.6488 C   0  0  0  0  0  0  0  0  0  0  0  0
    8.5237   -0.8743    5.2635 C   0  0  0  0  0  0  0  0  0  0  0  0
    8.9410    0.1284    5.1936 H   0  0  0  0  0  0  0  0  0  0  0  0
    9.2051   -1.5659    4.7769 H   0  0  0  0  0  0  0  0  0  0  0  0
    8.4690   -1.1509    6.3143 H   0  0  0  0  0  0  0  0  0  0  0  0
    6.6123   -2.3639    4.5659 C   0  0  0  0  0  0  0  0  0  0  0  0
    6.5872   -2.8089    5.5588 H   0  0  0  0  0  0  0  0  0  0  0  0
    7.2529   -2.9725    3.9323 H   0  0  0  0  0  0  0  0  0  0  0  0
    5.6068   -2.3837    4.1511 H   0  0  0  0  0  0  0  0  0  0  0  0
    6.1940   -0.1385    5.5925 C   0  0  0  0  0  0  0  0  0  0  0  0
    2.5945    3.6849    3.0167 C   0  0  0  0  0  0  0  0  0  0  0  0
    1.6056    4.0058    2.6854 H   0  0  0  0  0  0  0  0  0  0  0  0
    3.0707    4.5178    3.5370 H   0  0  0  0  0  0  0  0  0  0  0  0
    2.3749    2.9781    5.9378 C   0  0  0  0  0  0  0  0  0  0  0  0
    3.3066    4.1856    6.0536 C   0  0  0  0  0  0  0  0  0  0  0  0
    3.4875    4.4037    7.1051 H   0  0  0  0  0  0  0  0  0  0  0  0
    2.8644    5.0715    5.6036 H   0  0  0  0  0  0  0  0  0  0  0  0
    4.2629    3.9801    5.5779 H   0  0  0  0  0  0  0  0  0  0  0  0
    0.9756    3.4068    6.3664 C   0  0  0  0  0  0  0  0  0  0  0  0
    0.3198    2.5513    6.4969 H   0  0  0  0  0  0  0  0  0  0  0  0
    0.5346    4.0952    5.6508 H   0  0  0  0  0  0  0  0  0  0  0  0
    1.0425    3.9190    7.3265 H   0  0  0  0  0  0  0  0  0  0  0  0
    2.8876    1.8791    6.8727 C   0  0  0  0  0  0  0  0  0  0  0  0
    3.9329    1.6680    6.6511 H   0  0  0  0  0  0  0  0  0  0  0  0
    2.3174    0.9604    6.7528 H   0  0  0  0  0  0  0  0  0  0  0  0
    2.8115    2.1967    7.9119 H   0  0  0  0  0  0  0  0  0  0  0  0
    0.9256    1.3993    3.6473 C   0  0  0  0  0  0  0  0  0  0  0  0
    1.1474    1.0375    2.1755 C   0  0  0  0  0  0  0  0  0  0  0  0
    2.0767    0.4899    2.0492 H   0  0  0  0  0  0  0  0  0  0  0  0
    1.1778    1.9209    1.5418 H   0  0  0  0  0  0  0  0  0  0  0  0
    0.3358    0.3979    1.8306 H   0  0  0  0  0  0  0  0  0  0  0  0
   -0.3448    2.2494    3.7408 C   0  0  0  0  0  0  0  0  0  0  0  0
   -0.1779    3.2824    3.4456 H   0  0  0  0  0  0  0  0  0  0  0  0
   -0.7729    2.2377    4.7373 H   0  0  0  0  0  0  0  0  0  0  0  0
   -1.0887    1.8315    3.0633 H   0  0  0  0  0  0  0  0  0  0  0  0
    0.7553    0.1162    4.4574 C   0  0  0  0  0  0  0  0  0  0  0  0
   -0.0921   -0.4538    4.0784 H   0  0  0  0  0  0  0  0  0  0  0  0
    0.5750    0.3270    5.5102 H   0  0  0  0  0  0  0  0  0  0  0  0
    1.6458   -0.5015    4.3638 H   0  0  0  0  0  0  0  0  0  0  0  0
    5.2999    2.4594    4.3131 H   0  0  0  0  0  0  0  0  0  0  0  0
    6.1454   -0.6535    6.5516 H   0  0  0  0  0  0  0  0  0  0  0  0
    5.1613   -0.1075    5.2074 H   0  0  0  0  0  0  0  0  0  0  0  0
    6.5779    0.8656    5.7690 H   0  0  0  0  0  0  0  0  0  0  0  0
  1  3  1  0  0  0  0
  1 61  1  0  0  0  0
  2  1  1  0  0  0  0
  3 35  1  0  0  0  0
  4 21  1  0  0  0  0
  4  1  1  0  0  0  0
  5  1  1  0  0  0  0
  6  5  1  0  0  0  0
  6 32  1  0  0  0  0
  7  6  2  0  0  0  0
  8  7  1  0  0  0  0
  9 11  2  0  0  0  0
  9  7  1  0  0  0  0
 10  9  1  0  0  0  0
 11 13  1  0  0  0  0
 12 11  1  0  0  0  0
 13 14  1  0  0  0  0
 13  5  2  0  0  0  0
 14 15  1  6  0  0  0
 14  4  1  0  0  0  0
 15 17  2  0  0  0  0
 16 15  1  0  0  0  0
 17 19  1  0  0  0  0
 18 17  1  0  0  0  0
 19 20  1  0  0  0  0
 19 21  2  0  0  0  0
 21 22  1  0  0  0  0
 22 23  1  0  0  0  0
 22 31  1  0  0  0  0
 23 26  1  0  0  0  0
 24 23  1  0  0  0  0
 25 23  1  0  0  0  0
 27 22  1  0  0  0  0
 27 28  1  0  0  0  0
 29 27  1  0  0  0  0
 30 27  1  0  0  0  0
 31 64  1  0  0  0  0
 31 62  1  0  0  0  0
 32 34  1  0  0  0  0
 32  3  1  0  0  0  0
 33 32  1  0  0  0  0
 35 36  1  0  0  0  0
 35 40  1  0  0  0  0
 35 44  1  0  0  0  0
 36 37  1  0  0  0  0
 38 36  1  0  0  0  0
 39 36  1  0  0  0  0
 40 41  1  0  0  0  0
 40 43  1  0  0  0  0
 42 40  1  0  0  0  0
 44 47  1  0  0  0  0
 45 44  1  0  0  0  0
 46 44  1  0  0  0  0
 48 53  1  0  0  0  0
 48  3  1  0  0  0  0
 48 57  1  0  0  0  0
 49 48  1  0  0  0  0
 50 49  1  0  0  0  0
 51 49  1  0  0  0  0
 52 49  1  0  0  0  0
 53 55  1  0  0  0  0
 54 53  1  0  0  0  0
 56 53  1  0  0  0  0
 57 59  1  0  0  0  0
 58 57  1  0  0  0  0
 60 57  1  0  0  0  0
 63 31  1  0  0  0  0
M  END
$$$$
