CSD_code = ZARKIP | q = 0 | S = 0 | Stoichiometry = C20H30ClIrNOP | MND = 6
 OpenBabel04212202123D

 55 57  0  0  0  0  0  0  0  0999 V2000
    8.8778    7.9824    1.7653 Ir  0  0  0  0  0  0  0  0  0  0  0  0
    6.5608    8.0516    0.8739 Cl  0  0  0  0  0  0  0  0  0  0  0  0
    9.8614    6.3493    0.4135 P   0  0  0  0  0  4  0  0  0  0  0  0
    8.8849    9.7673    0.2254 O   0  0  0  0  0  0  0  0  0  0  0  0
    8.8353   10.6276    0.6481 H   0  0  0  0  0  0  0  0  0  0  0  0
    7.9594    9.4819    0.0688 H   0  0  0  0  0  0  0  0  0  0  0  0
    8.5839    9.4458    3.1671 N   0  0  0  0  0  0  0  0  0  0  0  0
    7.4061    9.9459    3.5238 C   0  0  0  0  0  3  0  0  0  0  0  0
    6.5468    9.5643    2.9877 H   0  0  0  0  0  0  0  0  0  0  0  0
    7.2634   10.9006    4.5129 C   0  0  0  0  0  0  0  0  0  0  0  0
    6.2850   11.2769    4.7640 H   0  0  0  0  0  0  0  0  0  0  0  0
    8.4017   11.3499    5.1690 C   0  0  0  0  0  0  0  0  0  0  0  0
    8.3298   12.0885    5.9533 H   0  0  0  0  0  0  0  0  0  0  0  0
    9.6295   10.8353    4.8006 C   0  0  0  0  0  0  0  0  0  0  0  0
   10.5299   11.1659    5.2925 H   0  0  0  0  0  0  0  0  0  0  0  0
    9.7092    9.8778    3.7899 C   0  0  0  0  0  0  0  0  0  0  0  0
   10.9433    9.3000    3.2802 C   0  0  0  0  0  0  0  0  0  0  0  0
   12.2353    9.6734    3.6548 C   0  0  0  0  0  0  0  0  0  0  0  0
   12.3970   10.4027    4.4349 H   0  0  0  0  0  0  0  0  0  0  0  0
   13.3188    9.1126    3.0102 C   0  0  0  0  0  0  0  0  0  0  0  0
   14.3208    9.3881    3.3048 H   0  0  0  0  0  0  0  0  0  0  0  0
   13.1338    8.2255    1.9558 C   0  0  0  0  0  0  0  0  0  0  0  0
   13.9948    7.8390    1.4268 H   0  0  0  0  0  0  0  0  0  0  0  0
   11.8569    7.8488    1.5722 C   0  0  0  0  0  0  0  0  0  0  0  0
   10.7581    8.3418    2.2727 C   0  0  0  0  0  0  0  0  0  0  0  0
   11.5951    7.0122    0.3487 C   0  0  0  0  0  0  0  0  0  0  0  0
   12.3385    6.2251    0.2079 H   0  0  0  0  0  0  0  0  0  0  0  0
   11.6448    7.6789   -0.5184 H   0  0  0  0  0  0  0  0  0  0  0  0
   10.1134    4.6484    1.2227 C   0  0  0  0  0  0  0  0  0  0  0  0
   10.8524    3.6285    0.3578 C   0  0  0  0  0  0  0  0  0  0  0  0
   10.2578    3.3130   -0.4946 H   0  0  0  0  0  0  0  0  0  0  0  0
   11.0579    2.7428    0.9584 H   0  0  0  0  0  0  0  0  0  0  0  0
   11.8061    4.0158    0.0061 H   0  0  0  0  0  0  0  0  0  0  0  0
   10.9357    4.8813    2.4940 C   0  0  0  0  0  0  0  0  0  0  0  0
   11.9575    5.1699    2.2646 H   0  0  0  0  0  0  0  0  0  0  0  0
   10.9690    3.9626    3.0774 H   0  0  0  0  0  0  0  0  0  0  0  0
   10.4870    5.6608    3.1045 H   0  0  0  0  0  0  0  0  0  0  0  0
    8.7457    4.0932    1.6220 C   0  0  0  0  0  0  0  0  0  0  0  0
    8.1722    4.8570    2.1425 H   0  0  0  0  0  0  0  0  0  0  0  0
    8.8699    3.2406    2.2877 H   0  0  0  0  0  0  0  0  0  0  0  0
    8.1762    3.7653    0.7583 H   0  0  0  0  0  0  0  0  0  0  0  0
    9.4133    6.1510   -1.4187 C   0  0  0  0  0  0  0  0  0  0  0  0
   10.5572    5.6752   -2.3142 C   0  0  0  0  0  0  0  0  0  0  0  0
   11.3808    6.3849   -2.3182 H   0  0  0  0  0  0  0  0  0  0  0  0
   10.1878    5.5927   -3.3363 H   0  0  0  0  0  0  0  0  0  0  0  0
   10.9384    4.7035   -2.0214 H   0  0  0  0  0  0  0  0  0  0  0  0
    8.9786    7.5470   -1.8719 C   0  0  0  0  0  0  0  0  0  0  0  0
    8.0401    7.8108   -1.3911 H   0  0  0  0  0  0  0  0  0  0  0  0
    8.8215    7.5610   -2.9498 H   0  0  0  0  0  0  0  0  0  0  0  0
    9.7221    8.3031   -1.6254 H   0  0  0  0  0  0  0  0  0  0  0  0
    8.2034    5.2267   -1.5461 C   0  0  0  0  0  0  0  0  0  0  0  0
    8.4700    4.1821   -1.4085 H   0  0  0  0  0  0  0  0  0  0  0  0
    7.7636    5.3307   -2.5376 H   0  0  0  0  0  0  0  0  0  0  0  0
    7.4490    5.5032   -0.8112 H   0  0  0  0  0  0  0  0  0  0  0  0
    8.6553    6.9759    2.8750 H   0  0  0  0  0  0  0  0  0  0  0  0
  1 25  1  0  0  0  0
  1 55  1  0  0  0  0
  1  7  1  0  0  0  0
  2  1  1  0  0  0  0
  3 29  1  0  0  0  0
  3  1  1  0  0  0  0
  4  5  1  0  0  0  0
  6  4  1  0  0  0  0
  7  8  1  0  0  0  0
  7 16  1  0  0  0  0
  8 10  1  0  0  0  0
  9  8  1  0  0  0  0
 10 11  1  0  0  0  0
 10 12  2  0  0  0  0
 12 13  1  0  0  0  0
 14 12  1  0  0  0  0
 14 15  1  0  0  0  0
 16 14  2  0  0  0  0
 17 18  1  0  0  0  0
 17 16  1  0  0  0  0
 18 19  1  0  0  0  0
 20 21  1  0  0  0  0
 20 18  2  0  0  0  0
 22 20  1  0  0  0  0
 23 22  1  0  0  0  0
 24 22  2  0  0  0  0
 24 25  1  0  0  0  0
 25 17  2  0  0  0  0
 26  3  1  0  0  0  0
 26 24  1  0  0  0  0
 27 26  1  0  0  0  0
 28 26  1  0  0  0  0
 29 38  1  0  0  0  0
 29 34  1  0  0  0  0
 30 32  1  0  0  0  0
 30 29  1  0  0  0  0
 31 30  1  0  0  0  0
 33 30  1  0  0  0  0
 34 36  1  0  0  0  0
 34 37  1  0  0  0  0
 35 34  1  0  0  0  0
 38 39  1  0  0  0  0
 38 40  1  0  0  0  0
 41 38  1  0  0  0  0
 42  3  1  0  0  0  0
 43 46  1  0  0  0  0
 43 42  1  0  0  0  0
 44 43  1  0  0  0  0
 45 43  1  0  0  0  0
 47 50  1  0  0  0  0
 47 42  1  0  0  0  0
 47 48  1  0  0  0  0
 49 47  1  0  0  0  0
 51 42  1  0  0  0  0
 51 52  1  0  0  0  0
 51 54  1  0  0  0  0
 53 51  1  0  0  0  0
M  END
$$$$
