CSD_code = ZARMIQ | q = 0 | S = 0 | Stoichiometry = C12H25ClN4O2Pd | MND = 4
 OpenBabel04212202123D

 45 46  0  0  1  0  0  0  0  0999 V2000
    2.1572   13.8747   11.7179 Pd  0  0  1  0  0  0  0  0  0  0  0  0
    0.6771   16.0964   13.2567 C   0  0  0  0  0  0  0  0  0  0  0  0
    0.0671   16.2200   14.1549 H   0  0  0  0  0  0  0  0  0  0  0  0
    0.1507   16.5198   12.3976 H   0  0  0  0  0  0  0  0  0  0  0  0
    1.6265   16.6292   13.3848 H   0  0  0  0  0  0  0  0  0  0  0  0
    0.9200   14.6859   13.0429 N   0  0  0  0  0  0  0  0  0  0  0  0
    0.4754   13.8063   13.9312 C   0  0  0  0  0  0  0  0  0  0  0  0
   -0.1672   14.0402   14.9479 O   0  0  0  0  0  0  0  0  0  0  0  0
    0.8557   12.3399   13.5400 C   0  0  2  0  0  0  0  0  0  0  0  0
    0.2299   12.0760   12.6706 H   0  0  0  0  0  0  0  0  0  0  0  0
    0.5628   11.3696   14.6789 C   0  0  0  0  0  0  0  0  0  0  0  0
    0.8743   10.3565   14.4294 H   0  0  0  0  0  0  0  0  0  0  0  0
   -0.5073   11.3738   14.8650 H   0  0  0  0  0  0  0  0  0  0  0  0
    1.0492   11.6891   15.5963 H   0  0  0  0  0  0  0  0  0  0  0  0
    2.2583   12.3574   13.0779 N   0  0  2  0  0  4  0  0  0  0  0  0
    3.1854   12.6352   14.1718 C   0  0  0  0  0  0  0  0  0  0  0  0
    3.3122   11.7591   14.8187 H   0  0  0  0  0  0  0  0  0  0  0  0
    2.7996   13.4615   14.7700 H   0  0  0  0  0  0  0  0  0  0  0  0
    4.1636   12.9181   13.7775 H   0  0  0  0  0  0  0  0  0  0  0  0
    2.6651   11.1793   12.3053 C   0  0  0  0  0  0  0  0  0  0  0  0
    1.7934   10.8100   11.7548 H   0  0  0  0  0  0  0  0  0  0  0  0
    3.0147   10.3705   12.9631 H   0  0  0  0  0  0  0  0  0  0  0  0
    3.7857   11.5356   11.3153 C   0  0  0  0  0  0  0  0  0  0  0  0
    4.0119   10.6662   10.6870 H   0  0  0  0  0  0  0  0  0  0  0  0
    4.6939   11.7795   11.8674 H   0  0  0  0  0  0  0  0  0  0  0  0
    3.4078   12.6931   10.4791 N   0  0  0  0  0  4  0  0  0  0  0  0
    2.5829   12.2616    9.3459 C   0  0  0  0  0  0  0  0  0  0  0  0
    2.2648   13.1381    8.7771 H   0  0  0  0  0  0  0  0  0  0  0  0
    1.6883   11.7471    9.7082 H   0  0  0  0  0  0  0  0  0  0  0  0
    3.1403   11.5823    8.6896 H   0  0  0  0  0  0  0  0  0  0  0  0
    4.5406   13.5057    9.9997 C   0  0  1  0  0  0  0  0  0  0  0  0
    4.0862   14.2745    9.3607 H   0  0  0  0  0  0  0  0  0  0  0  0
    5.2412   14.2402   11.1517 C   0  0  0  0  0  0  0  0  0  0  0  0
    4.4746   14.7290   11.7827 H   0  0  0  0  0  0  0  0  0  0  0  0
    5.8887   15.0158   10.7507 H   0  0  0  0  0  0  0  0  0  0  0  0
    5.8530   13.5710   11.7544 H   0  0  0  0  0  0  0  0  0  0  0  0
    5.5747   12.7148    9.1867 C   0  0  0  0  0  0  0  0  0  0  0  0
    5.8007   11.5310    9.3426 O   0  0  0  0  0  0  0  0  0  0  0  0
    6.2275   13.4791    8.2903 N   0  0  0  0  0  0  0  0  0  0  0  0
    5.9794   14.4504    8.1872 H   0  0  0  0  0  0  0  0  0  0  0  0
    7.2754   12.9657    7.4408 C   0  0  0  0  0  0  0  0  0  0  0  0
    8.2085   13.5044    7.6134 H   0  0  0  0  0  0  0  0  0  0  0  0
    6.9980   13.0570    6.3895 H   0  0  0  0  0  0  0  0  0  0  0  0
    7.4131   11.9145    7.6885 H   0  0  0  0  0  0  0  0  0  0  0  0
    1.9930   15.5089   10.1875 Cl  0  0  0  0  0  0  0  0  0  0  0  0
  1 45  1  1  0  0  0
  1  6  1  0  0  0  0
  1 15  1  0  0  0  0
  2  5  1  0  0  0  0
  2  3  1  0  0  0  0
  4  2  1  0  0  0  0
  6  2  1  0  0  0  0
  6  7  1  0  0  0  0
  7  8  2  0  0  0  0
  9 10  1  6  0  0  0
  9  7  1  0  0  0  0
  9 11  1  0  0  0  0
 11 13  1  0  0  0  0
 11 14  1  0  0  0  0
 12 11  1  0  0  0  0
 15  9  1  0  0  0  0
 15 16  1  1  0  0  0
 16 18  1  0  0  0  0
 16 17  1  0  0  0  0
 19 16  1  0  0  0  0
 20 22  1  0  0  0  0
 20 15  1  0  0  0  0
 21 20  1  0  0  0  0
 23 25  1  0  0  0  0
 23 20  1  0  0  0  0
 24 23  1  0  0  0  0
 26 23  1  0  0  0  0
 26  1  1  0  0  0  0
 27 29  1  0  0  0  0
 27 26  1  0  0  0  0
 28 27  1  0  0  0  0
 30 27  1  0  0  0  0
 31 32  1  6  0  0  0
 31 26  1  0  0  0  0
 31 33  1  0  0  0  0
 33 36  1  0  0  0  0
 33 34  1  0  0  0  0
 35 33  1  0  0  0  0
 37 38  2  0  0  0  0
 37 31  1  0  0  0  0
 39 37  1  0  0  0  0
 40 39  1  0  0  0  0
 41 42  1  0  0  0  0
 41 44  1  0  0  0  0
 41 39  1  0  0  0  0
 43 41  1  0  0  0  0
M  END
$$$$
