CSD_code = ZARQUG | q = 0 | S = 0 | Stoichiometry = C18H15ClIrN3O2 | MND = 4
 OpenBabel04212202123D

 40 42  0  0  0  0  0  0  0  0999 V2000
    0.9088    5.3707    5.1312 Ir  0  0  0  0  0  0  0  0  0  0  0  0
   -0.8571    6.4127    6.1611 Cl  0  0  0  0  0  0  0  0  0  0  0  0
    0.2325    3.1274    7.0278 O   0  0  0  0  0  1  0  0  0  0  0  0
    3.1866    4.1409    3.5994 O   0  0  0  0  0  1  0  0  0  0  0  0
    0.0483    7.4050    3.0835 N   0  0  0  0  0  0  0  0  0  0  0  0
    0.2466    8.6911    2.6679 N   0  0  0  0  0  0  0  0  0  0  0  0
    1.2558    9.2127    3.3063 N   0  0  0  0  0  2  0  0  0  0  0  0
    0.9573    7.0830    4.0028 C   0  0  0  0  0  0  0  0  0  0  0  0
    1.7315    8.2829    4.1217 C   0  0  0  0  0  0  0  0  0  0  0  0
    2.8770    8.5406    4.9756 C   0  0  0  0  0  0  0  0  0  0  0  0
    3.1837    7.7087    6.0497 C   0  0  0  0  0  0  0  0  0  0  0  0
    2.5470    6.8528    6.2677 H   0  0  0  0  0  0  0  0  0  0  0  0
    4.2765    7.9748    6.8493 C   0  0  0  0  0  0  0  0  0  0  0  0
    4.5000    7.3209    7.6797 H   0  0  0  0  0  0  0  0  0  0  0  0
    5.0904    9.0756    6.6059 C   0  0  0  0  0  0  0  0  0  0  0  0
    4.7763    9.9094    5.5372 C   0  0  0  0  0  0  0  0  0  0  0  0
    5.3966   10.7715    5.3368 H   0  0  0  0  0  0  0  0  0  0  0  0
    3.6867    9.6510    4.7324 C   0  0  0  0  0  0  0  0  0  0  0  0
    3.4471   10.3001    3.9041 H   0  0  0  0  0  0  0  0  0  0  0  0
    6.2896    9.3477    7.4600 C   0  0  0  0  0  0  0  0  0  0  0  0
    6.1620    8.9281    8.4548 H   0  0  0  0  0  0  0  0  0  0  0  0
    6.4708   10.4168    7.5458 H   0  0  0  0  0  0  0  0  0  0  0  0
    7.1737    8.8921    7.0124 H   0  0  0  0  0  0  0  0  0  0  0  0
   -0.4992    9.4134    1.7300 C   0  0  0  0  0  0  0  0  0  0  0  0
   -0.7667   10.7520    2.0032 C   0  0  0  0  0  0  0  0  0  0  0  0
   -0.4063   11.1797    2.9252 H   0  0  0  0  0  0  0  0  0  0  0  0
   -1.4810   11.5046    1.0913 C   0  0  0  0  0  0  0  0  0  0  0  0
   -1.6920   12.5412    1.3038 H   0  0  0  0  0  0  0  0  0  0  0  0
   -1.9300   10.9303   -0.0877 C   0  0  0  0  0  0  0  0  0  0  0  0
   -2.4941   11.5185   -0.7948 H   0  0  0  0  0  0  0  0  0  0  0  0
   -1.6437    9.6040   -0.3645 C   0  0  0  0  0  0  0  0  0  0  0  0
   -1.9743    9.1602   -1.2910 H   0  0  0  0  0  0  0  0  0  0  0  0
   -0.9216    8.8400    0.5350 C   0  0  0  0  0  0  0  0  0  0  0  0
   -0.6698    7.8195    0.2931 H   0  0  0  0  0  0  0  0  0  0  0  0
   -1.0758    6.6166    2.6705 C   0  0  0  0  0  0  0  0  0  0  0  0
   -1.3818    6.0011    3.5197 H   0  0  0  0  0  0  0  0  0  0  0  0
   -0.8123    5.9625    1.8369 H   0  0  0  0  0  0  0  0  0  0  0  0
   -1.9017    7.2676    2.3857 H   0  0  0  0  0  0  0  0  0  0  0  0
    0.5694    3.9309    6.2853 C   0  0  0  0  0  2  0  0  0  0  0  0
    2.3152    4.5978    4.2049 C   0  0  0  0  0  2  0  0  0  0  0  0
  1  2  1  0  0  0  0
  1 39  1  0  0  0  0
  4 40  1  0  0  0  0
  5  8  1  0  0  0  0
  6  5  1  0  0  0  0
  6  7  1  0  0  0  0
  7  9  1  0  0  0  0
  8  9  2  0  0  0  0
  8  1  1  0  0  0  0
  9 10  1  0  0  0  0
 10 11  1  0  0  0  0
 11 12  1  0  0  0  0
 11 13  2  0  0  0  0
 13 14  1  0  0  0  0
 15 13  1  0  0  0  0
 15 20  1  0  0  0  0
 16 15  2  0  0  0  0
 17 16  1  0  0  0  0
 18 10  2  0  0  0  0
 18 16  1  0  0  0  0
 19 18  1  0  0  0  0
 20 22  1  0  0  0  0
 20 21  1  0  0  0  0
 23 20  1  0  0  0  0
 24 25  1  0  0  0  0
 24  6  1  0  0  0  0
 25 26  1  0  0  0  0
 27 28  1  0  0  0  0
 27 25  2  0  0  0  0
 29 27  1  0  0  0  0
 30 29  1  0  0  0  0
 31 29  2  0  0  0  0
 31 33  1  0  0  0  0
 32 31  1  0  0  0  0
 33 24  2  0  0  0  0
 34 33  1  0  0  0  0
 35  5  1  0  0  0  0
 35 36  1  0  0  0  0
 37 35  1  0  0  0  0
 38 35  1  0  0  0  0
 39  3  1  0  0  0  0
 40  1  1  0  0  0  0
M  END
$$$$
