CSD_code = ZASSIV | q = 0 | S = 0 | Stoichiometry = C6H9Cl3O4W | MND = 6
 OpenBabel04212202123D

 23 23  0  0  1  0  0  0  0  0999 V2000
    0.7026    1.8827   -0.0587 W   0  0  0  0  0  0  0  0  0  0  0  0
   -0.5556    1.7848   -2.0416 Cl  0  0  0  0  0  0  0  0  0  0  0  0
    2.1567    1.2142    1.6299 Cl  0  0  0  0  0  0  0  0  0  0  0  0
    2.2848    3.1087   -1.0733 Cl  0  0  0  0  0  0  0  0  0  0  0  0
   -0.4376    0.3881    0.5006 O   0  0  0  0  0  0  0  0  0  0  0  0
    1.6594    0.2829   -1.0528 O   0  0  0  0  0  0  0  0  0  0  0  0
   -0.0930    3.1160    0.7135 O   0  0  0  0  0  1  0  0  0  0  0  0
    1.9313   -1.5952   -2.2222 O   0  0  0  0  0  0  0  0  0  0  0  0
   -1.9502   -1.4382    0.6540 C   0  0  0  0  0  0  0  0  0  0  0  0
   -0.7169   -0.8110    0.0831 C   0  0  1  0  0  3  0  0  0  0  0  0
    0.0723   -1.4666   -0.8341 C   0  0  0  0  0  0  0  0  0  0  0  0
    1.2512   -0.8687   -1.3663 C   0  0  0  0  0  0  0  0  0  0  0  0
    3.1079   -1.0034   -2.7983 C   0  0  0  0  0  0  0  0  0  0  0  0
    3.6469   -1.9561   -3.8471 C   0  0  0  0  0  0  0  0  0  0  0  0
   -2.0583   -2.4703    0.3404 H   0  0  0  0  0  0  0  0  0  0  0  0
   -1.9130   -1.3759    1.7407 H   0  0  0  0  0  0  0  0  0  0  0  0
   -2.8157   -0.8618    0.3273 H   0  0  0  0  0  0  0  0  0  0  0  0
   -0.1777   -2.4551   -1.1765 H   0  0  0  0  0  0  0  0  0  0  0  0
    3.8385   -0.8292   -2.0005 H   0  0  0  0  0  0  0  0  0  0  0  0
    2.8370   -0.0348   -3.2345 H   0  0  0  0  0  0  0  0  0  0  0  0
    4.5428   -1.5337   -4.2918 H   0  0  0  0  0  0  0  0  0  0  0  0
    3.8919   -2.9133   -3.3951 H   0  0  0  0  0  0  0  0  0  0  0  0
    2.9060   -2.1167   -4.6253 H   0  0  0  0  0  0  0  0  0  0  0  0
  1  5  1  0  0  0  0
  1  7  1  0  0  0  0
  1  3  1  0  0  0  0
  2  1  1  0  0  0  0
  4  1  1  0  0  0  0
  6  1  1  0  0  0  0
  8 12  1  0  0  0  0
  9 16  1  0  0  0  0
 10  5  1  0  0  0  0
 10  9  1  6  0  0  0
 11 10  1  0  0  0  0
 12  6  1  0  0  0  0
 12 11  2  0  0  0  0
 13  8  1  0  0  0  0
 13 19  1  0  0  0  0
 14 22  1  0  0  0  0
 14 13  1  0  0  0  0
 15  9  1  0  0  0  0
 17  9  1  0  0  0  0
 18 11  1  0  0  0  0
 20 13  1  0  0  0  0
 21 14  1  0  0  0  0
 23 14  1  0  0  0  0
M  END
$$$$
