CSD_code = ZASVUN | q = 0 | S = 0 | Stoichiometry = C18H14Cl2N4OZn | MND = 5
 OpenBabel04212202123D

 40 44  0  0  1  0  0  0  0  0999 V2000
    4.7103    4.7997   11.5818 C   0  0  0  0  0  3  0  0  0  0  0  0
    5.4281    4.7675   12.3901 H   0  0  0  0  0  0  0  0  0  0  0  0
    3.4770    5.4240   11.7150 C   0  0  0  0  0  0  0  0  0  0  0  0
    3.2088    5.9058   12.6413 H   0  0  0  0  0  0  0  0  0  0  0  0
    2.6089    5.4100   10.6348 C   0  0  0  0  0  0  0  0  0  0  0  0
    1.6394    5.8812   10.7000 H   0  0  0  0  0  0  0  0  0  0  0  0
    2.9994    4.7773    9.4661 C   0  0  0  0  0  0  0  0  0  0  0  0
    2.3439    4.7331    8.6102 H   0  0  0  0  0  0  0  0  0  0  0  0
    4.2587    4.1824    9.4159 C   0  0  0  0  0  0  0  0  0  0  0  0
    4.7651    3.4992    8.2216 C   0  0  1  0  0  3  0  0  0  0  0  0
    4.1558    3.7314    6.9019 C   0  0  0  0  0  0  0  0  0  0  0  0
    3.8167    2.6606    6.0756 C   0  0  0  0  0  0  0  0  0  0  0  0
    3.9424    1.6470    6.4299 H   0  0  0  0  0  0  0  0  0  0  0  0
    3.2784    2.8935    4.8228 C   0  0  0  0  0  0  0  0  0  0  0  0
    3.0101    2.0591    4.1925 H   0  0  0  0  0  0  0  0  0  0  0  0
    3.0885    4.1912    4.3778 C   0  0  0  0  0  0  0  0  0  0  0  0
    2.6741    4.3704    3.3973 H   0  0  0  0  0  0  0  0  0  0  0  0
    3.4327    5.2592    5.1912 C   0  0  0  0  0  0  0  0  0  0  0  0
    3.2909    6.2712    4.8433 H   0  0  0  0  0  0  0  0  0  0  0  0
    3.9601    5.0351    6.4491 C   0  0  0  0  0  0  0  0  0  0  0  0
    4.2529    5.8630    7.0767 H   0  0  0  0  0  0  0  0  0  0  0  0
    7.7351    1.6993    7.8333 C   0  0  1  0  0  3  0  0  0  0  0  0
    8.5177    1.1684    6.6918 C   0  0  0  0  0  0  0  0  0  0  0  0
    9.8269    0.7382    6.8818 C   0  0  0  0  0  0  0  0  0  0  0  0
   10.2600    0.7853    7.8679 H   0  0  0  0  0  0  0  0  0  0  0  0
   10.5273    0.2707    5.7811 C   0  0  0  0  0  0  0  0  0  0  0  0
   11.5472   -0.0687    5.8834 H   0  0  0  0  0  0  0  0  0  0  0  0
    9.8945    0.2501    4.5484 C   0  0  0  0  0  0  0  0  0  0  0  0
   10.4037   -0.1042    3.6660 H   0  0  0  0  0  0  0  0  0  0  0  0
    8.5824    0.7021    4.4681 C   0  0  0  0  0  0  0  0  0  0  0  0
    8.0475    0.7073    3.5276 H   0  0  0  0  0  0  0  0  0  0  0  0
    5.0837    4.2038   10.4659 N   0  0  0  0  0  0  0  0  0  0  0  0
    5.7949    2.7661    8.4297 N   0  0  1  0  0  0  0  0  0  0  0  0
    6.4987    2.1512    7.4836 N   0  0  0  0  0  0  0  0  0  0  0  0
    7.9069    1.1518    5.5069 N   0  0  0  0  0  0  0  0  0  0  0  0
    8.1439    1.7317    8.9817 O   0  0  0  0  0  0  0  0  0  0  0  0
    7.8437    4.9538    8.5618 Cl  0  0  0  0  0  0  0  0  0  0  0  0
    7.7414    3.1934   12.1701 Cl  0  0  0  0  0  0  0  0  0  0  0  0
    7.1368    3.4399   10.0841 Zn  0  0  0  0  0  0  0  0  0  0  0  0
    6.2841    2.2302    6.4873 H   0  0  0  0  0  0  0  0  0  0  0  0
  1  3  1  0  0  0  0
  1  2  1  0  0  0  0
  3  4  1  0  0  0  0
  5  6  1  0  0  0  0
  5  3  2  0  0  0  0
  7  5  1  0  0  0  0
  8  7  1  0  0  0  0
  9  7  2  0  0  0  0
  9 32  1  0  0  0  0
 10 11  1  6  0  0  0
 10 33  1  0  0  0  0
 10  9  1  0  0  0  0
 12 13  1  0  0  0  0
 12 11  2  0  0  0  0
 14 12  1  0  0  0  0
 15 14  1  0  0  0  0
 16 14  2  0  0  0  0
 16 18  1  0  0  0  0
 17 16  1  0  0  0  0
 18 20  2  0  0  0  0
 19 18  1  0  0  0  0
 20 11  1  0  0  0  0
 20 21  1  0  0  0  0
 22 23  1  1  0  0  0
 22 36  1  0  0  0  0
 23 24  1  0  0  0  0
 24 25  1  0  0  0  0
 26 27  1  0  0  0  0
 26 24  2  0  0  0  0
 28 26  1  0  0  0  0
 29 28  1  0  0  0  0
 30 28  2  0  0  0  0
 30 35  1  0  0  0  0
 31 30  1  0  0  0  0
 32  1  1  0  0  0  0
 33 34  1  6  0  0  0
 33 39  1  0  0  0  0
 34 22  1  0  0  0  0
 35 23  2  0  0  0  0
 36 39  1  0  0  0  0
 37 39  1  0  0  0  0
 39 32  1  0  0  0  0
 39 38  1  0  0  0  0
 40 34  1  0  0  0  0
M  END
$$$$
