CSD_code = ZASVIB | q = 0 | S = 0 | Stoichiometry = C18H14Br2CdN4O | MND = 5
 OpenBabel04212202123D

 40 44  0  0  1  0  0  0  0  0999 V2000
   12.9025    2.4298    8.0303 C   0  0  2  0  0  3  0  0  0  0  0  0
    9.8738    4.1294    8.5301 C   0  0  1  0  0  3  0  0  0  0  0  0
    9.3443    4.9012    9.6623 C   0  0  1  0  0  3  0  0  0  0  0  0
    9.7587    5.8139   11.7257 C   0  0  0  0  0  0  0  0  0  0  0  0
   10.4794    5.9653   12.5208 H   0  0  0  0  0  0  0  0  0  0  0  0
    8.4673    6.3163   11.8223 C   0  0  0  0  0  0  0  0  0  0  0  0
    8.1641    6.8706   12.6956 H   0  0  0  0  0  0  0  0  0  0  0  0
    7.5902    6.0886   10.7743 C   0  0  0  0  0  0  0  0  0  0  0  0
    6.5777    6.4621   10.8100 H   0  0  0  0  0  0  0  0  0  0  0  0
    8.0307    5.3691    9.6762 C   0  0  0  0  0  0  0  0  0  0  0  0
    7.3735    5.1627    8.8458 H   0  0  0  0  0  0  0  0  0  0  0  0
    9.1914    4.1821    7.2232 C   0  0  0  0  0  0  0  0  0  0  0  0
    8.8098    3.0131    6.5672 C   0  0  0  0  0  0  0  0  0  0  0  0
    8.9592    2.0542    7.0443 H   0  0  0  0  0  0  0  0  0  0  0  0
    8.2010    3.0822    5.3268 C   0  0  0  0  0  0  0  0  0  0  0  0
    7.8984    2.1734    4.8286 H   0  0  0  0  0  0  0  0  0  0  0  0
    7.9845    4.3112    4.7263 C   0  0  0  0  0  0  0  0  0  0  0  0
    7.5142    4.3616    3.7560 H   0  0  0  0  0  0  0  0  0  0  0  0
    8.3730    5.4753    5.3701 C   0  0  0  0  0  0  0  0  0  0  0  0
    8.2114    6.4334    4.9004 H   0  0  0  0  0  0  0  0  0  0  0  0
    8.9705    5.4164    6.6151 C   0  0  0  0  0  0  0  0  0  0  0  0
    9.2967    6.3182    7.1106 H   0  0  0  0  0  0  0  0  0  0  0  0
   13.5412    1.7955    6.8497 C   0  0  0  0  0  0  0  0  0  0  0  0
   14.8687    1.3846    6.9061 C   0  0  0  0  0  0  0  0  0  0  0  0
   15.4295    1.5239    7.8167 H   0  0  0  0  0  0  0  0  0  0  0  0
   15.4243    0.8112    5.7732 C   0  0  0  0  0  0  0  0  0  0  0  0
   16.4524    0.4816    5.7737 H   0  0  0  0  0  0  0  0  0  0  0  0
   14.6362    0.6725    4.6420 C   0  0  0  0  0  0  0  0  0  0  0  0
   15.0297    0.2336    3.7389 H   0  0  0  0  0  0  0  0  0  0  0  0
   13.3194    1.1156    4.6916 C   0  0  0  0  0  0  0  0  0  0  0  0
   12.6653    1.0296    3.8342 H   0  0  0  0  0  0  0  0  0  0  0  0
   12.9199    6.1600    8.2916 Br  0  0  0  0  0  0  0  0  0  0  0  0
   13.3296    4.8575   12.6250 Br  0  0  0  0  0  0  0  0  0  0  0  0
   12.6187    4.6279   10.2676 Cd  0  0  0  0  0  0  0  0  0  0  0  0
   11.6207    2.8206    7.7991 N   0  0  0  0  0  0  0  0  0  0  0  0
   11.2798    2.7578    6.8360 H   0  0  0  0  0  0  0  0  0  0  0  0
   10.9623    3.4878    8.7542 N   0  0  2  0  0  0  0  0  0  0  0  0
   10.1851    5.1292   10.6786 N   0  0  0  0  0  0  0  0  0  0  0  0
   12.7810    1.6630    5.7626 N   0  0  0  0  0  0  0  0  0  0  0  0
   13.4675    2.5887    9.1027 O   0  0  0  0  0  0  0  0  0  0  0  0
  1 23  1  6  0  0  0
  1 40  1  0  0  0  0
  2 12  1  6  0  0  0
  2 37  1  0  0  0  0
  2  3  1  0  0  0  0
  3 10  1  1  0  0  0
  3 38  1  0  0  0  0
  4  6  2  0  0  0  0
  4  5  1  0  0  0  0
  6  7  1  0  0  0  0
  8  9  1  0  0  0  0
  8  6  1  0  0  0  0
 10  8  2  0  0  0  0
 11 10  1  0  0  0  0
 13 14  1  0  0  0  0
 13 12  2  0  0  0  0
 15 13  1  0  0  0  0
 16 15  1  0  0  0  0
 17 15  2  0  0  0  0
 17 19  1  0  0  0  0
 18 17  1  0  0  0  0
 19 21  2  0  0  0  0
 20 19  1  0  0  0  0
 21 22  1  0  0  0  0
 21 12  1  0  0  0  0
 23 24  1  0  0  0  0
 24 25  1  0  0  0  0
 26 27  1  0  0  0  0
 26 24  2  0  0  0  0
 28 30  2  0  0  0  0
 28 26  1  0  0  0  0
 29 28  1  0  0  0  0
 30 39  1  0  0  0  0
 31 30  1  0  0  0  0
 32 34  1  0  0  0  0
 34 38  1  0  0  0  0
 34 33  1  0  0  0  0
 35  1  1  0  0  0  0
 36 35  1  0  0  0  0
 37 35  1  6  0  0  0
 37 34  1  0  0  0  0
 38  4  1  0  0  0  0
 39 23  2  0  0  0  0
 40 34  1  0  0  0  0
M  END
$$$$
