CSD_code = ZASZIF | q = 0 | S = 0 | Stoichiometry = C16H23Cl2N2Rh | MND = 5
 OpenBabel04212202123D

 44 46  0  0  0  0  0  0  0  0999 V2000
    1.6959    4.6330    5.7578 Rh  0  0  0  0  0  0  0  0  0  0  0  0
    2.1160    3.1698    7.4544 Cl  0  0  0  0  0  0  0  0  0  0  0  0
    1.0006    6.0733    4.1319 Cl  0  0  0  0  0  0  0  0  0  0  0  0
    2.1924    6.1801    6.9417 N   0  0  0  0  0  0  0  0  0  0  0  0
    3.5227    4.7928    5.2838 C   0  0  0  0  0  0  0  0  0  0  0  0
    1.8029    3.1409    4.4140 N   0  0  0  0  0  0  0  0  0  0  0  0
    3.4294    6.5360    6.8404 C   0  0  0  0  0  3  0  0  0  0  0  0
    3.8425    7.3553    7.4232 H   0  0  0  0  0  0  0  0  0  0  0  0
    2.9742    2.9958    3.8905 C   0  0  0  0  0  3  0  0  0  0  0  0
    3.1805    2.2336    3.1437 H   0  0  0  0  0  0  0  0  0  0  0  0
    5.5986    5.8981    5.5561 C   0  0  0  0  0  0  0  0  0  0  0  0
    6.2324    6.6506    6.0019 H   0  0  0  0  0  0  0  0  0  0  0  0
    4.0100    3.8977    4.3374 C   0  0  0  0  0  0  0  0  0  0  0  0
    1.2674    6.8465    7.8533 C   0  0  0  0  0  0  0  0  0  0  0  0
    4.2532    5.7942    5.9147 C   0  0  0  0  0  0  0  0  0  0  0  0
    5.3588    4.0272    4.0004 C   0  0  0  0  0  0  0  0  0  0  0  0
    5.8113    3.3688    3.2734 H   0  0  0  0  0  0  0  0  0  0  0  0
    0.6723    2.3024    4.0281 C   0  0  0  0  0  0  0  0  0  0  0  0
    6.1186    5.0178    4.6132 C   0  0  0  0  0  0  0  0  0  0  0  0
    7.1608    5.1076    4.3442 H   0  0  0  0  0  0  0  0  0  0  0  0
    0.3226    2.5835    2.5615 C   0  0  0  0  0  0  0  0  0  0  0  0
    0.1512    3.6492    2.4243 H   0  0  0  0  0  0  0  0  0  0  0  0
   -0.5785    2.0427    2.2847 H   0  0  0  0  0  0  0  0  0  0  0  0
    1.1288    2.2754    1.9000 H   0  0  0  0  0  0  0  0  0  0  0  0
    1.7380    6.6280    9.2964 C   0  0  0  0  0  0  0  0  0  0  0  0
    1.8589    5.5632    9.4850 H   0  0  0  0  0  0  0  0  0  0  0  0
    1.0032    7.0275    9.9903 H   0  0  0  0  0  0  0  0  0  0  0  0
    2.6897    7.1217    9.4785 H   0  0  0  0  0  0  0  0  0  0  0  0
   -0.5027    2.7032    4.9276 C   0  0  0  0  0  0  0  0  0  0  0  0
   -0.2730    2.4691    5.9691 H   0  0  0  0  0  0  0  0  0  0  0  0
   -1.4023    2.1620    4.6447 H   0  0  0  0  0  0  0  0  0  0  0  0
   -0.7040    3.7753    4.8247 H   0  0  0  0  0  0  0  0  0  0  0  0
   -0.1032    6.1908    7.6495 C   0  0  0  0  0  0  0  0  0  0  0  0
   -0.4516    6.3638    6.6286 H   0  0  0  0  0  0  0  0  0  0  0  0
   -0.8342    6.6114    8.3357 H   0  0  0  0  0  0  0  0  0  0  0  0
   -0.0355    5.1148    7.8412 H   0  0  0  0  0  0  0  0  0  0  0  0
    1.1805    8.3386    7.5126 C   0  0  0  0  0  0  0  0  0  0  0  0
    2.1176    8.8496    7.7203 H   0  0  0  0  0  0  0  0  0  0  0  0
    0.3972    8.8058    8.1038 H   0  0  0  0  0  0  0  0  0  0  0  0
    0.9441    8.4608    6.4576 H   0  0  0  0  0  0  0  0  0  0  0  0
    1.0084    0.8234    4.2504 C   0  0  0  0  0  0  0  0  0  0  0  0
    1.7777    0.4804    3.5630 H   0  0  0  0  0  0  0  0  0  0  0  0
    0.1189    0.2182    4.0971 H   0  0  0  0  0  0  0  0  0  0  0  0
    1.3610    0.6765    5.2693 H   0  0  0  0  0  0  0  0  0  0  0  0
  1  4  1  0  0  0  0
  1  2  1  0  0  0  0
  3  1  1  0  0  0  0
  4 14  1  0  0  0  0
  5  1  1  0  0  0  0
  5 15  1  0  0  0  0
  6  1  1  0  0  0  0
  7  4  1  0  0  0  0
  7  8  1  0  0  0  0
  9 13  1  0  0  0  0
  9  6  1  0  0  0  0
 10  9  1  0  0  0  0
 11 15  2  0  0  0  0
 11 12  1  0  0  0  0
 13  5  2  0  0  0  0
 14 25  1  0  0  0  0
 15  7  1  0  0  0  0
 16 13  1  0  0  0  0
 16 19  2  0  0  0  0
 17 16  1  0  0  0  0
 18 41  1  0  0  0  0
 18  6  1  0  0  0  0
 18 29  1  0  0  0  0
 19 11  1  0  0  0  0
 20 19  1  0  0  0  0
 21 18  1  0  0  0  0
 22 21  1  0  0  0  0
 23 21  1  0  0  0  0
 24 21  1  0  0  0  0
 25 28  1  0  0  0  0
 25 26  1  0  0  0  0
 25 27  1  0  0  0  0
 29 30  1  0  0  0  0
 31 29  1  0  0  0  0
 32 29  1  0  0  0  0
 33 36  1  0  0  0  0
 33 14  1  0  0  0  0
 33 35  1  0  0  0  0
 34 33  1  0  0  0  0
 37 38  1  0  0  0  0
 37 14  1  0  0  0  0
 37 39  1  0  0  0  0
 40 37  1  0  0  0  0
 41 44  1  0  0  0  0
 42 41  1  0  0  0  0
 43 41  1  0  0  0  0
M  END
$$$$
