CSD_code = ZASZUR | q = 0 | S = 0 | Stoichiometry = C20H34Cl2IrN3 | MND = 6
 OpenBabel04212202123D

 60 62  0  0  0  0  0  0  0  0999 V2000
    8.8477   -0.1400    7.7626 Ir  0  0  0  0  0  0  0  0  0  0  0  0
   10.7664   -1.4219    7.6868 Cl  0  0  0  0  0  0  0  0  0  0  0  0
    7.2956   -1.7477    6.6343 Cl  0  0  0  0  0  0  0  0  0  0  0  0
    9.9929    1.1451    8.6428 C   0  0  0  0  0  0  0  0  0  0  0  0
    9.4296    0.6506    4.6646 C   0  0  0  0  0  0  0  0  0  0  0  0
    8.5503   -3.1405    9.6530 C   0  0  0  0  0  0  0  0  0  0  0  0
    8.4423   -3.0581    8.5761 H   0  0  0  0  0  0  0  0  0  0  0  0
    8.0373   -4.0386    9.9862 H   0  0  0  0  0  0  0  0  0  0  0  0
    9.6099   -3.2246    9.8816 H   0  0  0  0  0  0  0  0  0  0  0  0
    7.9288    0.7365    4.3599 C   0  0  0  0  0  0  0  0  0  0  0  0
    7.3905   -0.0139    4.9324 H   0  0  0  0  0  0  0  0  0  0  0  0
    7.7586    0.5360    3.3055 H   0  0  0  0  0  0  0  0  0  0  0  0
    7.5465    1.7308    4.5874 H   0  0  0  0  0  0  0  0  0  0  0  0
    6.9392    0.9702    7.7714 N   0  0  0  0  0  4  0  0  0  0  0  0
    9.9171   -0.7851    4.4358 C   0  0  0  0  0  0  0  0  0  0  0  0
   10.9695   -0.8750    4.6929 H   0  0  0  0  0  0  0  0  0  0  0  0
    9.7754   -1.0631    3.3949 H   0  0  0  0  0  0  0  0  0  0  0  0
    9.3568   -1.4747    5.0590 H   0  0  0  0  0  0  0  0  0  0  0  0
   10.1772    1.5891    3.7086 C   0  0  0  0  0  0  0  0  0  0  0  0
    9.8795    2.6267    3.8539 H   0  0  0  0  0  0  0  0  0  0  0  0
    9.9278    1.3084    2.6886 H   0  0  0  0  0  0  0  0  0  0  0  0
   11.2552    1.4977    3.8216 H   0  0  0  0  0  0  0  0  0  0  0  0
    9.6314    0.9559    6.0789 N   0  0  0  0  0  0  0  0  0  0  0  0
    8.0509   -2.0897   11.8615 C   0  0  0  0  0  0  0  0  0  0  0  0
    9.0769   -2.2715   12.1736 H   0  0  0  0  0  0  0  0  0  0  0  0
    7.4618   -2.9584   12.1438 H   0  0  0  0  0  0  0  0  0  0  0  0
    7.6532   -1.2264   12.3933 H   0  0  0  0  0  0  0  0  0  0  0  0
   11.0193    1.9637   10.6493 C   0  0  0  0  0  0  0  0  0  0  0  0
   11.1666    1.9327   11.7194 H   0  0  0  0  0  0  0  0  0  0  0  0
   11.7066    2.8917    9.8780 C   0  0  0  0  0  0  0  0  0  0  0  0
   12.3766    3.5846   10.3655 H   0  0  0  0  0  0  0  0  0  0  0  0
    7.9487   -1.9096   10.3412 C   0  0  0  0  0  0  0  0  0  0  0  0
    9.4063   -0.0237   10.5960 C   0  0  0  0  0  3  0  0  0  0  0  0
    9.5161   -0.2314   11.6551 H   0  0  0  0  0  0  0  0  0  0  0  0
   10.4825    1.8482    6.4544 C   0  0  0  0  0  3  0  0  0  0  0  0
   11.0525    2.4384    5.7450 H   0  0  0  0  0  0  0  0  0  0  0  0
   10.1532    1.0659   10.0246 C   0  0  0  0  0  0  0  0  0  0  0  0
    8.6558   -0.7382    9.8298 N   0  0  0  0  0  0  0  0  0  0  0  0
   10.7159    2.0437    7.8612 C   0  0  0  0  0  0  0  0  0  0  0  0
    6.4677   -1.7828    9.9620 C   0  0  0  0  0  0  0  0  0  0  0  0
    6.0419   -0.8697   10.3768 H   0  0  0  0  0  0  0  0  0  0  0  0
    5.9148   -2.6302   10.3584 H   0  0  0  0  0  0  0  0  0  0  0  0
    6.3602   -1.7916    8.8807 H   0  0  0  0  0  0  0  0  0  0  0  0
    6.5472    2.3079    8.2507 C   0  0  0  0  0  0  0  0  0  0  0  0
    5.0506    2.5073    7.9779 C   0  0  0  0  0  0  0  0  0  0  0  0
    4.7282    3.4875    8.3189 H   0  0  0  0  0  0  0  0  0  0  0  0
    4.4608    1.7552    8.4988 H   0  0  0  0  0  0  0  0  0  0  0  0
    4.8400    2.4316    6.9127 H   0  0  0  0  0  0  0  0  0  0  0  0
   11.5802    2.9363    8.4959 C   0  0  0  0  0  0  0  0  0  0  0  0
   12.1553    3.6486    7.9215 H   0  0  0  0  0  0  0  0  0  0  0  0
    7.3567    3.3641    7.5022 C   0  0  0  0  0  0  0  0  0  0  0  0
    8.4169    3.2269    7.6932 H   0  0  0  0  0  0  0  0  0  0  0  0
    7.0705    4.3601    7.8291 H   0  0  0  0  0  0  0  0  0  0  0  0
    7.1822    3.2919    6.4311 H   0  0  0  0  0  0  0  0  0  0  0  0
    6.8188    2.4013    9.7501 C   0  0  0  0  0  0  0  0  0  0  0  0
    7.8791    2.2722    9.9469 H   0  0  0  0  0  0  0  0  0  0  0  0
    6.2681    1.6328   10.2880 H   0  0  0  0  0  0  0  0  0  0  0  0
    6.5105    3.3721   10.1291 H   0  0  0  0  0  0  0  0  0  0  0  0
    6.7010    0.8993    6.7807 H   0  0  0  0  0  0  0  0  0  0  0  0
    6.3441    0.2775    8.2285 H   0  0  0  0  0  0  0  0  0  0  0  0
  1 14  1  0  0  0  0
  1  4  1  0  0  0  0
  1 38  1  0  0  0  0
  2  1  1  0  0  0  0
  3  1  1  0  0  0  0
  4 37  1  0  0  0  0
  5 23  1  0  0  0  0
  6  9  1  0  0  0  0
  6  8  1  0  0  0  0
  6 32  1  0  0  0  0
  7  6  1  0  0  0  0
 10 13  1  0  0  0  0
 10  5  1  0  0  0  0
 10 11  1  0  0  0  0
 12 10  1  0  0  0  0
 14 60  1  0  0  0  0
 14 44  1  0  0  0  0
 15  5  1  0  0  0  0
 15 16  1  0  0  0  0
 15 18  1  0  0  0  0
 17 15  1  0  0  0  0
 19 22  1  0  0  0  0
 19 20  1  0  0  0  0
 19  5  1  0  0  0  0
 21 19  1  0  0  0  0
 23 35  1  0  0  0  0
 23  1  1  0  0  0  0
 24 26  1  0  0  0  0
 24 25  1  0  0  0  0
 24 27  1  0  0  0  0
 28 29  1  0  0  0  0
 30 31  1  0  0  0  0
 30 28  1  0  0  0  0
 32 24  1  0  0  0  0
 33 34  1  0  0  0  0
 35 39  1  0  0  0  0
 36 35  1  0  0  0  0
 37 33  1  0  0  0  0
 37 28  2  0  0  0  0
 38 32  1  0  0  0  0
 38 33  1  0  0  0  0
 39 49  1  0  0  0  0
 39  4  2  0  0  0  0
 40 32  1  0  0  0  0
 40 42  1  0  0  0  0
 40 41  1  0  0  0  0
 43 40  1  0  0  0  0
 44 55  1  0  0  0  0
 45 44  1  0  0  0  0
 45 46  1  0  0  0  0
 45 47  1  0  0  0  0
 48 45  1  0  0  0  0
 49 30  2  0  0  0  0
 50 49  1  0  0  0  0
 51 52  1  0  0  0  0
 51 53  1  0  0  0  0
 51 44  1  0  0  0  0
 54 51  1  0  0  0  0
 55 56  1  0  0  0  0
 55 58  1  0  0  0  0
 55 57  1  0  0  0  0
 59 14  1  0  0  0  0
M  END
$$$$
