CSD_code = ZAVFUA | q = 0 | S = 0 | Stoichiometry = C3H11F2MoO4P | MND = 6
 OpenBabel04212202123D

 22 20  0  0  0  0  0  0  0  0999 V2000
    1.7171    1.9805    7.3254 Mo  0  0  0  0  0  0  0  0  0  0  0  0
    2.1535    1.6833   10.6489 P   0  0  0  0  0  4  0  0  0  0  0  0
    3.4045    1.5666    6.8755 F   0  0  0  0  0  0  0  0  0  0  0  0
    0.3180    1.4032    8.3723 F   0  0  0  0  0  0  0  0  0  0  0  0
    1.8660   -0.5481    7.3494 O   0  0  0  0  0  0  0  0  0  0  0  0
    2.6813    1.1976    9.3305 O   0  0  0  0  0  0  0  0  0  0  0  0
    1.3172    3.2965   10.6207 C   0  0  0  0  0  0  0  0  0  0  0  0
    1.9701    4.0126   10.1234 H   0  0  0  0  0  0  0  0  0  0  0  0
    1.0953    3.6225   11.6332 H   0  0  0  0  0  0  0  0  0  0  0  0
    0.3997    3.2250   10.0358 H   0  0  0  0  0  0  0  0  0  0  0  0
    3.5451    1.8332   11.8202 C   0  0  0  0  0  0  0  0  0  0  0  0
    4.0555    0.8761   11.8925 H   0  0  0  0  0  0  0  0  0  0  0  0
    3.2021    2.1404   12.8025 H   0  0  0  0  0  0  0  0  0  0  0  0
    4.2404    2.5706   11.4260 H   0  0  0  0  0  0  0  0  0  0  0  0
    0.9707    0.4748   11.3518 C   0  0  0  0  0  0  0  0  0  0  0  0
    0.1095    0.4026   10.6890 H   0  0  0  0  0  0  0  0  0  0  0  0
    0.6410    0.7900   12.3363 H   0  0  0  0  0  0  0  0  0  0  0  0
    1.4539   -0.4975   11.4273 H   0  0  0  0  0  0  0  0  0  0  0  0
    0.9537    1.9131    5.8759 O   0  0  0  0  0  1  0  0  0  0  0  0
    1.8553    3.5429    7.8219 O   0  0  0  0  0  1  0  0  0  0  0  0
    2.7544   -0.6888    7.7009 H   0  0  0  0  0  0  0  0  0  0  0  0
    1.2224   -0.8498    8.0005 H   0  0  0  0  0  0  0  0  0  0  0  0
  1 20  1  0  0  0  0
  1  4  1  0  0  0  0
  1  6  1  0  0  0  0
  2 15  1  0  0  0  0
  2 11  1  0  0  0  0
  3  1  1  0  0  0  0
  5 21  1  0  0  0  0
  5 22  1  0  0  0  0
  6  2  1  0  0  0  0
  7  2  1  0  0  0  0
  7  9  1  0  0  0  0
  8  7  1  0  0  0  0
 10  7  1  0  0  0  0
 11 12  1  0  0  0  0
 11 13  1  0  0  0  0
 14 11  1  0  0  0  0
 15 18  1  0  0  0  0
 15 17  1  0  0  0  0
 16 15  1  0  0  0  0
 19  1  1  0  0  0  0
M  END
$$$$
