CSD_code = ZAVLUD | q = 1 | S = 0 | Stoichiometry = C28H28ClOP2PtS(1+) | MND = 4
 OpenBabel04212202123D

 62 67  0  0  0  0  0  0  0  0999 V2000
   -1.5606    9.2121   10.0397 Pt  0  0  1  0  0  0  0  0  0  0  0  0
   -2.6492   11.1120    9.3180 P   0  0  0  0  0  4  0  0  0  0  0  0
   -2.5341   11.0897    7.4490 C   0  0  0  0  0  0  0  0  0  0  0  0
   -2.3229    9.6719    6.9402 C   0  0  0  0  0  0  0  0  0  0  0  0
   -0.9035    9.0182    7.9122 S   0  0  2  0  0  0  0  0  0  0  0  0
   -0.8709    7.2058    7.5945 C   0  0  0  0  0  0  0  0  0  0  0  0
    0.0591    6.6355    8.6541 C   0  0  0  0  0  0  0  0  0  0  0  0
   -0.4664    7.2040   10.3568 P   0  0  0  0  0  4  0  0  0  0  0  0
    0.3087    9.5957    7.3953 O   0  0  0  0  0  1  0  0  0  0  0  0
   -2.3777    9.3470   12.1670 Cl  0  0  0  0  0  0  0  0  0  0  0  0
   -4.4293   11.1394    9.6467 C   0  0  0  0  0  0  0  0  0  0  0  0
   -5.0658    9.9071    9.7705 C   0  0  0  0  0  0  0  0  0  0  0  0
   -6.4264    9.8495    9.9998 C   0  0  0  0  0  0  0  0  0  0  0  0
   -7.1541   11.0243   10.1129 C   0  0  0  0  0  0  0  0  0  0  0  0
   -6.5202   12.2517   10.0056 C   0  0  0  0  0  0  0  0  0  0  0  0
   -5.1572   12.3164    9.7746 C   0  0  0  0  0  0  0  0  0  0  0  0
   -1.9528   12.7007    9.8044 C   0  0  0  0  0  0  0  0  0  0  0  0
   -1.1791   12.7252   10.9621 C   0  0  0  0  0  0  0  0  0  0  0  0
   -0.6193   13.9148   11.3901 C   0  0  0  0  0  0  0  0  0  0  0  0
   -0.8292   15.0769   10.6650 C   0  0  0  0  0  0  0  0  0  0  0  0
   -1.5935   15.0518    9.5083 C   0  0  0  0  0  0  0  0  0  0  0  0
   -2.1559   13.8670    9.0701 C   0  0  0  0  0  0  0  0  0  0  0  0
    1.0419    7.1818   11.3436 C   0  0  0  0  0  0  0  0  0  0  0  0
    2.0415    6.2262   11.1760 C   0  0  0  0  0  0  0  0  0  0  0  0
    3.1644    6.2700   11.9820 C   0  0  0  0  0  0  0  0  0  0  0  0
    3.2984    7.2613   12.9420 C   0  0  0  0  0  0  0  0  0  0  0  0
    2.3099    8.2195   13.1000 C   0  0  0  0  0  0  0  0  0  0  0  0
    1.1811    8.1822   12.3027 C   0  0  0  0  0  0  0  0  0  0  0  0
   -1.5464    5.8659   10.9267 C   0  0  0  0  0  0  0  0  0  0  0  0
   -1.0577    4.7039   11.5128 C   0  0  0  0  0  0  0  0  0  0  0  0
   -1.9407    3.7059   11.8854 C   0  0  0  0  0  0  0  0  0  0  0  0
   -3.3020    3.8639   11.6784 C   0  0  0  0  0  0  0  0  0  0  0  0
   -3.7917    5.0282   11.1072 C   0  0  0  0  0  0  0  0  0  0  0  0
   -2.9154    6.0290   10.7345 C   0  0  0  0  0  0  0  0  0  0  0  0
   -1.6728   11.7021    7.1646 H   0  0  0  0  0  0  0  0  0  0  0  0
   -3.4386   11.5294    7.0193 H   0  0  0  0  0  0  0  0  0  0  0  0
   -2.0681    9.6442    5.8826 H   0  0  0  0  0  0  0  0  0  0  0  0
   -3.1799    9.0306    7.1475 H   0  0  0  0  0  0  0  0  0  0  0  0
   -0.5063    7.0333    6.5839 H   0  0  0  0  0  0  0  0  0  0  0  0
   -1.8909    6.8372    7.7061 H   0  0  0  0  0  0  0  0  0  0  0  0
    1.0740    7.0052    8.4768 H   0  0  0  0  0  0  0  0  0  0  0  0
    0.0687    5.5423    8.6185 H   0  0  0  0  0  0  0  0  0  0  0  0
   -4.4732    8.9989    9.7095 H   0  0  0  0  0  0  0  0  0  0  0  0
   -6.9200    8.8952   10.1005 H   0  0  0  0  0  0  0  0  0  0  0  0
   -8.2163   10.9825   10.2974 H   0  0  0  0  0  0  0  0  0  0  0  0
   -7.0884   13.1632   10.1089 H   0  0  0  0  0  0  0  0  0  0  0  0
   -4.6602   13.2732    9.7091 H   0  0  0  0  0  0  0  0  0  0  0  0
   -1.0262   11.8057   11.5164 H   0  0  0  0  0  0  0  0  0  0  0  0
   -0.0190   13.9366   12.2862 H   0  0  0  0  0  0  0  0  0  0  0  0
   -0.3935   16.0059   10.9982 H   0  0  0  0  0  0  0  0  0  0  0  0
   -1.7501   15.9590    8.9451 H   0  0  0  0  0  0  0  0  0  0  0  0
   -2.7443   13.8484    8.1634 H   0  0  0  0  0  0  0  0  0  0  0  0
    1.9481    5.4589   10.4205 H   0  0  0  0  0  0  0  0  0  0  0  0
    3.9395    5.5292   11.8592 H   0  0  0  0  0  0  0  0  0  0  0  0
    4.1789    7.2881   13.5649 H   0  0  0  0  0  0  0  0  0  0  0  0
    2.4204    8.9945   13.8422 H   0  0  0  0  0  0  0  0  0  0  0  0
    0.3969    8.9223   12.4130 H   0  0  0  0  0  0  0  0  0  0  0  0
    0.0015    4.5879   11.6896 H   0  0  0  0  0  0  0  0  0  0  0  0
   -1.5659    2.8037   12.3436 H   0  0  0  0  0  0  0  0  0  0  0  0
   -3.9841    3.0821   11.9740 H   0  0  0  0  0  0  0  0  0  0  0  0
   -4.8536    5.1551   10.9631 H   0  0  0  0  0  0  0  0  0  0  0  0
   -3.2807    6.9625   10.3146 H   0  0  0  0  0  0  0  0  0  0  0  0
  1  8  1  0  0  0  0
  1 10  1  6  0  0  0
  2 11  1  0  0  0  0
  2 17  1  0  0  0  0
  2  1  1  0  0  0  0
  3  2  1  0  0  0  0
  4 38  1  0  0  0  0
  4  3  1  0  0  0  0
  4  5  1  0  0  0  0
  5  9  1  6  0  0  0
  5  1  1  0  0  0  0
  6 40  1  0  0  0  0
  6  5  1  0  0  0  0
  6  7  1  0  0  0  0
  7  8  1  0  0  0  0
  8 29  1  0  0  0  0
  8 23  1  0  0  0  0
 11 12  2  0  0  0  0
 11 16  1  0  0  0  0
 12 13  1  0  0  0  0
 13 44  1  0  0  0  0
 13 14  2  0  0  0  0
 14 45  1  0  0  0  0
 15 46  1  0  0  0  0
 15 14  1  0  0  0  0
 16 15  2  0  0  0  0
 17 18  1  0  0  0  0
 18 19  2  0  0  0  0
 18 48  1  0  0  0  0
 19 49  1  0  0  0  0
 20 50  1  0  0  0  0
 20 19  1  0  0  0  0
 21 20  2  0  0  0  0
 22 21  1  0  0  0  0
 22 17  2  0  0  0  0
 23 28  1  0  0  0  0
 24 23  2  0  0  0  0
 24 25  1  0  0  0  0
 25 26  2  0  0  0  0
 26 27  1  0  0  0  0
 26 55  1  0  0  0  0
 27 56  1  0  0  0  0
 28 57  1  0  0  0  0
 28 27  2  0  0  0  0
 29 30  1  0  0  0  0
 30 58  1  0  0  0  0
 30 31  2  0  0  0  0
 31 59  1  0  0  0  0
 32 31  1  0  0  0  0
 32 60  1  0  0  0  0
 33 32  2  0  0  0  0
 34 29  2  0  0  0  0
 34 33  1  0  0  0  0
 35  3  1  0  0  0  0
 36  3  1  0  0  0  0
 37  4  1  0  0  0  0
 39  6  1  0  0  0  0
 41  7  1  0  0  0  0
 42  7  1  0  0  0  0
 43 12  1  0  0  0  0
 47 16  1  0  0  0  0
 51 21  1  0  0  0  0
 52 22  1  0  0  0  0
 53 24  1  0  0  0  0
 54 25  1  0  0  0  0
 61 33  1  0  0  0  0
 62 34  1  0  0  0  0
M  END
$$$$
