CSD_code = ZAVPUK | q = 0 | S = 0 | Stoichiometry = C21H35BrMnN2O2P | MND = 6
 OpenBabel04212202123D

 63 65  0  0  1  0  0  0  0  0999 V2000
    8.4571   12.0809    3.3812 Br  0  0  0  0  0  0  0  0  0  0  0  0
    6.6961   10.7068    4.4222 Mn  0  0  0  0  0  0  0  0  0  0  0  0
    5.1240   11.1645    2.7953 P   0  0  0  0  0  4  0  0  0  0  0  0
    5.0887    9.0105    6.1596 O   0  0  0  0  0  1  0  0  0  0  0  0
    5.8295   12.7156    6.3625 O   0  0  0  0  0  1  0  0  0  0  0  0
    7.2610    9.3085    3.0957 N   0  0  0  0  0  0  0  0  0  0  0  0
    8.5167    9.7060    5.4505 N   0  0  0  0  0  4  0  0  0  0  0  0
    9.2270   10.1714    4.8714 H   0  0  0  0  0  0  0  0  0  0  0  0
    6.1283   10.5611    1.3611 C   0  0  0  0  0  0  0  0  0  0  0  0
    5.5306   10.3364    0.4749 H   0  0  0  0  0  0  0  0  0  0  0  0
    6.8193   11.3796    1.1203 H   0  0  0  0  0  0  0  0  0  0  0  0
    6.9425    9.3842    1.7978 C   0  0  1  0  0  3  0  0  0  0  0  0
    7.3798    8.4361    0.8822 C   0  0  0  0  0  0  0  0  0  0  0  0
    7.1039    8.5299   -0.1569 H   0  0  0  0  0  0  0  0  0  0  0  0
    8.1730    7.3882    1.3154 C   0  0  0  0  0  0  0  0  0  0  0  0
    8.5235    6.6384    0.6235 H   0  0  0  0  0  0  0  0  0  0  0  0
    8.5243    7.3360    2.6542 C   0  0  0  0  0  0  0  0  0  0  0  0
    9.1586    6.5496    3.0324 H   0  0  0  0  0  0  0  0  0  0  0  0
    8.0530    8.3161    3.5138 C   0  0  0  0  0  0  0  0  0  0  0  0
    8.4321    8.3225    4.9718 C   0  0  0  0  0  0  0  0  0  0  0  0
    7.6634    7.7893    5.5453 H   0  0  0  0  0  0  0  0  0  0  0  0
    9.3814    7.7827    5.0879 H   0  0  0  0  0  0  0  0  0  0  0  0
    3.5953   10.0223    2.7152 C   0  0  0  0  0  0  0  0  0  0  0  0
    4.1142    8.5796    2.7344 C   0  0  0  0  0  0  0  0  0  0  0  0
    3.2750    7.8925    2.8378 H   0  0  0  0  0  0  0  0  0  0  0  0
    4.7817    8.4132    3.5781 H   0  0  0  0  0  0  0  0  0  0  0  0
    4.6364    8.3259    1.8133 H   0  0  0  0  0  0  0  0  0  0  0  0
    2.7607   10.2544    3.9804 C   0  0  0  0  0  0  0  0  0  0  0  0
    2.0611   11.0749    3.8576 H   0  0  0  0  0  0  0  0  0  0  0  0
    3.4055   10.4801    4.8306 H   0  0  0  0  0  0  0  0  0  0  0  0
    2.1856    9.3616    4.2199 H   0  0  0  0  0  0  0  0  0  0  0  0
    2.7122   10.1711    1.4771 C   0  0  0  0  0  0  0  0  0  0  0  0
    1.9503    9.3918    1.4986 H   0  0  0  0  0  0  0  0  0  0  0  0
    3.2803   10.0483    0.5568 H   0  0  0  0  0  0  0  0  0  0  0  0
    2.1975   11.1267    1.4536 H   0  0  0  0  0  0  0  0  0  0  0  0
    4.5996   12.9029    2.2334 C   0  0  0  0  0  0  0  0  0  0  0  0
    3.3809   13.3269    3.0549 C   0  0  0  0  0  0  0  0  0  0  0  0
    3.5390   13.0880    4.1069 H   0  0  0  0  0  0  0  0  0  0  0  0
    2.4687   12.8482    2.7112 H   0  0  0  0  0  0  0  0  0  0  0  0
    3.2400   14.4037    2.9709 H   0  0  0  0  0  0  0  0  0  0  0  0
    4.3277   13.0345    0.7342 C   0  0  0  0  0  0  0  0  0  0  0  0
    4.0011   14.0545    0.5335 H   0  0  0  0  0  0  0  0  0  0  0  0
    3.5517   12.3637    0.3829 H   0  0  0  0  0  0  0  0  0  0  0  0
    5.2303   12.8607    0.1528 H   0  0  0  0  0  0  0  0  0  0  0  0
    5.7393   13.8595    2.5909 C   0  0  0  0  0  0  0  0  0  0  0  0
    6.6373   13.6591    2.0122 H   0  0  0  0  0  0  0  0  0  0  0  0
    5.9830   13.7898    3.6509 H   0  0  0  0  0  0  0  0  0  0  0  0
    5.4349   14.8842    2.3816 H   0  0  0  0  0  0  0  0  0  0  0  0
    8.9891    9.8849    6.8436 C   0  0  0  0  0  0  0  0  0  0  0  0
   10.2696    9.0798    7.1128 C   0  0  0  0  0  0  0  0  0  0  0  0
   10.7083    9.4108    8.0502 H   0  0  0  0  0  0  0  0  0  0  0  0
   11.0043    9.2405    6.3248 H   0  0  0  0  0  0  0  0  0  0  0  0
   10.0667    8.0147    7.2011 H   0  0  0  0  0  0  0  0  0  0  0  0
    7.9016    9.4811    7.8369 C   0  0  0  0  0  0  0  0  0  0  0  0
    8.2591    9.6295    8.8524 H   0  0  0  0  0  0  0  0  0  0  0  0
    7.6233    8.4359    7.7255 H   0  0  0  0  0  0  0  0  0  0  0  0
    7.0162   10.0967    7.6892 H   0  0  0  0  0  0  0  0  0  0  0  0
    9.3060   11.3733    7.0099 C   0  0  0  0  0  0  0  0  0  0  0  0
    8.4385   11.9734    6.7381 H   0  0  0  0  0  0  0  0  0  0  0  0
   10.1388   11.6679    6.3738 H   0  0  0  0  0  0  0  0  0  0  0  0
    9.5647   11.5936    8.0416 H   0  0  0  0  0  0  0  0  0  0  0  0
    5.6989    9.6662    5.4193 C   0  0  0  0  0  2  0  0  0  0  0  0
    6.2235   11.9497    5.5834 C   0  0  0  0  0  2  0  0  0  0  0  0
  1  2  1  0  0  0  0
  2 62  1  0  0  0  0
  2  7  1  0  0  0  0
  2 63  1  0  0  0  0
  3  2  1  0  0  0  0
  6 19  1  0  0  0  0
  6  2  1  0  0  0  0
  7 49  1  0  0  0  0
  8  7  1  0  0  0  0
  9 12  1  0  0  0  0
  9  3  1  0  0  0  0
 10  9  1  0  0  0  0
 11  9  1  0  0  0  0
 12 13  1  6  0  0  0
 12  6  1  0  0  0  0
 13 15  2  0  0  0  0
 14 13  1  0  0  0  0
 15 17  1  0  0  0  0
 16 15  1  0  0  0  0
 17 18  1  0  0  0  0
 17 19  2  0  0  0  0
 19 20  1  0  0  0  0
 20 22  1  0  0  0  0
 20  7  1  0  0  0  0
 20 21  1  0  0  0  0
 23 24  1  0  0  0  0
 23  3  1  0  0  0  0
 23 28  1  0  0  0  0
 24 25  1  0  0  0  0
 24 26  1  0  0  0  0
 27 24  1  0  0  0  0
 28 31  1  0  0  0  0
 28 30  1  0  0  0  0
 29 28  1  0  0  0  0
 32 33  1  0  0  0  0
 32 23  1  0  0  0  0
 34 32  1  0  0  0  0
 35 32  1  0  0  0  0
 36 45  1  0  0  0  0
 36  3  1  0  0  0  0
 36 37  1  0  0  0  0
 37 38  1  0  0  0  0
 39 37  1  0  0  0  0
 40 37  1  0  0  0  0
 41 36  1  0  0  0  0
 42 41  1  0  0  0  0
 43 41  1  0  0  0  0
 44 41  1  0  0  0  0
 45 47  1  0  0  0  0
 46 45  1  0  0  0  0
 48 45  1  0  0  0  0
 49 58  1  0  0  0  0
 49 50  1  0  0  0  0
 49 54  1  0  0  0  0
 50 53  1  0  0  0  0
 50 51  1  0  0  0  0
 52 50  1  0  0  0  0
 54 55  1  0  0  0  0
 56 54  1  0  0  0  0
 57 54  1  0  0  0  0
 58 61  1  0  0  0  0
 59 58  1  0  0  0  0
 60 58  1  0  0  0  0
 62  4  1  0  0  0  0
 63  5  1  0  0  0  0
M  END
$$$$
