CSD_code = ZAVROG | q = 0 | S = 0 | Stoichiometry = C23H26ClNOPtS | MND = 4
 OpenBabel04212202123D

 54 57  0  0  0  0  0  0  0  0999 V2000
    2.9354    0.1377    3.7538 Pt  0  0  1  0  0  0  0  0  0  0  0  0
    1.2032    1.1723    2.4621 Cl  0  0  0  0  0  0  0  0  0  0  0  0
    2.0987    1.3779    5.4144 S   0  0  0  0  0  0  0  0  0  0  0  0
    2.6852    1.3772    6.7448 O   0  0  0  0  0  1  0  0  0  0  0  0
    3.6600   -0.9641    2.1326 N   0  0  0  0  0  4  0  0  0  0  0  0
    4.5119   -0.7009    4.6751 C   0  0  0  0  0  0  0  0  0  0  0  0
    5.1699   -1.6714    3.9072 C   0  0  0  0  0  0  0  0  0  0  0  0
    6.3506   -2.2469    4.3481 C   0  0  0  0  0  0  0  0  0  0  0  0
    6.8486   -2.9904    3.7408 H   0  0  0  0  0  0  0  0  0  0  0  0
    6.8920   -1.8695    5.5627 C   0  0  0  0  0  0  0  0  0  0  0  0
    7.8246   -2.3036    5.8918 H   0  0  0  0  0  0  0  0  0  0  0  0
    6.2533   -0.9167    6.3512 C   0  0  0  0  0  0  0  0  0  0  0  0
    5.0679   -0.3399    5.8893 C   0  0  0  0  0  0  0  0  0  0  0  0
    4.5587    0.3738    6.5194 H   0  0  0  0  0  0  0  0  0  0  0  0
    6.8158   -0.5168    7.6478 C   0  0  0  0  0  0  0  0  0  0  0  0
    7.4057   -1.4552    8.4925 C   0  0  0  0  0  0  0  0  0  0  0  0
    7.4238   -2.4959    8.2025 H   0  0  0  0  0  0  0  0  0  0  0  0
    7.9402   -1.0777    9.7077 C   0  0  0  0  0  0  0  0  0  0  0  0
    8.3733   -1.8248   10.3576 H   0  0  0  0  0  0  0  0  0  0  0  0
    7.9003    0.2516   10.1222 C   0  0  0  0  0  0  0  0  0  0  0  0
    7.3051    1.1891    9.2807 C   0  0  0  0  0  0  0  0  0  0  0  0
    7.2814    2.2282    9.5763 H   0  0  0  0  0  0  0  0  0  0  0  0
    6.7730    0.8122    8.0648 C   0  0  0  0  0  0  0  0  0  0  0  0
    6.3309    1.5570    7.4200 H   0  0  0  0  0  0  0  0  0  0  0  0
    8.4708    0.6556   11.4150 C   0  0  0  0  0  0  0  0  0  0  0  0
    9.6900    0.1384   11.8471 C   0  0  0  0  0  0  0  0  0  0  0  0
   10.2271   -0.5550   11.2160 H   0  0  0  0  0  0  0  0  0  0  0  0
   10.2285    0.5240   13.0606 C   0  0  0  0  0  0  0  0  0  0  0  0
   11.1785    0.1198   13.3797 H   0  0  0  0  0  0  0  0  0  0  0  0
    9.5556    1.4277   13.8657 C   0  0  0  0  0  0  0  0  0  0  0  0
    9.9761    1.7273   14.8145 H   0  0  0  0  0  0  0  0  0  0  0  0
    8.3407    1.9452   13.4482 C   0  0  0  0  0  0  0  0  0  0  0  0
    7.8091    2.6471   14.0746 H   0  0  0  0  0  0  0  0  0  0  0  0
    7.8038    1.5653   12.2324 C   0  0  0  0  0  0  0  0  0  0  0  0
    6.8481    1.9595   11.9185 H   0  0  0  0  0  0  0  0  0  0  0  0
    4.4996   -2.0796    2.6235 C   0  0  0  0  0  0  0  0  0  0  0  0
    3.8472   -2.9360    2.8266 H   0  0  0  0  0  0  0  0  0  0  0  0
    5.2215   -2.3780    1.8520 H   0  0  0  0  0  0  0  0  0  0  0  0
    4.4962   -0.0031    1.4008 C   0  0  0  0  0  0  0  0  0  0  0  0
    5.3130    0.3352    2.0418 H   0  0  0  0  0  0  0  0  0  0  0  0
    3.8899    0.8545    1.1039 H   0  0  0  0  0  0  0  0  0  0  0  0
    4.9166   -0.4674    0.5009 H   0  0  0  0  0  0  0  0  0  0  0  0
    2.6202   -1.4796    1.2383 C   0  0  0  0  0  0  0  0  0  0  0  0
    2.0209   -0.6536    0.8582 H   0  0  0  0  0  0  0  0  0  0  0  0
    1.9637   -2.1548    1.7882 H   0  0  0  0  0  0  0  0  0  0  0  0
    3.0693   -2.0168    0.3958 H   0  0  0  0  0  0  0  0  0  0  0  0
    1.9645    3.1284    4.9372 C   0  0  0  0  0  0  0  0  0  0  0  0
    1.4833    3.6588    5.7506 H   0  0  0  0  0  0  0  0  0  0  0  0
    1.3948    3.1958    4.0181 H   0  0  0  0  0  0  0  0  0  0  0  0
    2.9714    3.5058    4.7886 H   0  0  0  0  0  0  0  0  0  0  0  0
    0.3358    0.9958    5.6353 C   0  0  0  0  0  0  0  0  0  0  0  0
    0.2639   -0.0373    5.9611 H   0  0  0  0  0  0  0  0  0  0  0  0
   -0.1665    1.1307    4.6844 H   0  0  0  0  0  0  0  0  0  0  0  0
   -0.0617    1.6560    6.3973 H   0  0  0  0  0  0  0  0  0  0  0  0
  1  2  1  6  0  0  0
  1  6  1  0  0  0  0
  1  3  1  0  0  0  0
  3 51  1  0  0  0  0
  3  4  1  0  0  0  0
  5 36  1  0  0  0  0
  5  1  1  0  0  0  0
  6 13  1  0  0  0  0
  7  8  1  0  0  0  0
  7  6  2  0  0  0  0
  8 10  2  0  0  0  0
  9  8  1  0  0  0  0
 10 11  1  0  0  0  0
 10 12  1  0  0  0  0
 12 15  1  0  0  0  0
 13 12  2  0  0  0  0
 13 14  1  0  0  0  0
 15 23  2  0  0  0  0
 15 16  1  0  0  0  0
 16 18  2  0  0  0  0
 17 16  1  0  0  0  0
 18 20  1  0  0  0  0
 18 19  1  0  0  0  0
 20 25  1  0  0  0  0
 21 22  1  0  0  0  0
 21 20  2  0  0  0  0
 23 21  1  0  0  0  0
 24 23  1  0  0  0  0
 25 26  2  0  0  0  0
 25 34  1  0  0  0  0
 26 28  1  0  0  0  0
 27 26  1  0  0  0  0
 28 29  1  0  0  0  0
 28 30  2  0  0  0  0
 30 31  1  0  0  0  0
 32 30  1  0  0  0  0
 32 33  1  0  0  0  0
 34 32  2  0  0  0  0
 35 34  1  0  0  0  0
 36 37  1  0  0  0  0
 36  7  1  0  0  0  0
 38 36  1  0  0  0  0
 39 40  1  0  0  0  0
 39  5  1  0  0  0  0
 41 39  1  0  0  0  0
 42 39  1  0  0  0  0
 43 45  1  0  0  0  0
 43  5  1  0  0  0  0
 44 43  1  0  0  0  0
 46 43  1  0  0  0  0
 47  3  1  0  0  0  0
 47 48  1  0  0  0  0
 49 47  1  0  0  0  0
 50 47  1  0  0  0  0
 51 52  1  0  0  0  0
 51 54  1  0  0  0  0
 53 51  1  0  0  0  0
M  END
$$$$
