CSD_code = ZAVXUS | q = 0 | S = 0 | Stoichiometry = C20H24Cl2HgN4O2S2 | MND = 4
 OpenBabel04212202123D

 55 58  0  0  1  0  0  0  0  0999 V2000
    8.4433    5.5588   11.0584 Hg  0  0  0  0  0  0  0  0  0  0  0  0
   10.5393    6.5734   11.1526 Cl  0  0  0  0  0  0  0  0  0  0  0  0
    8.0008    3.6537    9.1443 S   0  0  0  0  0  0  0  0  0  0  0  0
    4.7269    0.5068    9.9290 O   0  0  0  0  0  0  0  0  0  0  0  0
    4.8228   -0.3448    9.4913 H   0  0  0  0  0  0  0  0  0  0  0  0
    5.6722    4.7872    8.3718 N   0  0  0  0  0  0  0  0  0  0  0  0
    5.4602    3.3119    9.9939 N   0  0  0  0  0  0  0  0  0  0  0  0
    4.1962    3.7820    9.7176 C   0  0  0  0  0  0  0  0  0  0  0  0
    4.3355    4.7381    8.6963 C   0  0  0  0  0  0  0  0  0  0  0  0
    6.3348    3.9411    9.1833 C   0  0  1  0  0  3  0  0  0  0  0  0
    5.9919    0.9519   10.3674 C   0  0  0  0  0  0  0  0  0  0  0  0
    6.7002    1.0188    9.5310 H   0  0  0  0  0  0  0  0  0  0  0  0
    6.4044    0.2754   11.1282 H   0  0  0  0  0  0  0  0  0  0  0  0
    3.2406    5.4245    8.1968 C   0  0  0  0  0  0  0  0  0  0  0  0
    3.3472    6.1701    7.4257 H   0  0  0  0  0  0  0  0  0  0  0  0
    2.9543    3.4763   10.2493 C   0  0  0  0  0  0  0  0  0  0  0  0
    2.8391    2.7296   11.0172 H   0  0  0  0  0  0  0  0  0  0  0  0
    2.0065    5.1199    8.7398 C   0  0  0  0  0  0  0  0  0  0  0  0
    1.1300    5.6368    8.3807 H   0  0  0  0  0  0  0  0  0  0  0  0
    5.8199    2.3380   10.9889 C   0  0  0  0  0  0  0  0  0  0  0  0
    5.0281    2.3083   11.7373 H   0  0  0  0  0  0  0  0  0  0  0  0
    6.7583    2.6416   11.4633 H   0  0  0  0  0  0  0  0  0  0  0  0
    1.8665    4.1615    9.7417 C   0  0  0  0  0  0  0  0  0  0  0  0
    0.8829    3.9525   10.1333 H   0  0  0  0  0  0  0  0  0  0  0  0
    6.2806    5.7043    7.4507 C   0  0  0  0  0  0  0  0  0  0  0  0
    6.2906    6.7087    7.8808 H   0  0  0  0  0  0  0  0  0  0  0  0
    5.7227    5.7103    6.5148 H   0  0  0  0  0  0  0  0  0  0  0  0
    7.3056    5.3839    7.2656 H   0  0  0  0  0  0  0  0  0  0  0  0
    6.3476    6.5739   10.9647 Cl  0  0  0  0  0  0  0  0  0  0  0  0
    8.8851    3.6540   12.9730 S   0  0  0  0  0  0  0  0  0  0  0  0
   12.1592    0.5069   12.1898 O   0  0  0  0  0  0  0  0  0  0  0  0
   12.0631   -0.3447   12.6275 H   0  0  0  0  0  0  0  0  0  0  0  0
   11.2135    4.7874   13.7464 N   0  0  0  0  0  0  0  0  0  0  0  0
   11.4260    3.3119   12.1245 N   0  0  0  0  0  0  0  0  0  0  0  0
   12.6899    3.7819   12.4013 C   0  0  0  0  0  0  0  0  0  0  0  0
   12.5503    4.7381   13.4224 C   0  0  0  0  0  0  0  0  0  0  0  0
   10.5511    3.9413   12.9347 C   0  0  1  0  0  3  0  0  0  0  0  0
   10.8944    0.9519   11.7509 C   0  0  0  0  0  0  0  0  0  0  0  0
   10.1857    1.0188   12.5870 H   0  0  0  0  0  0  0  0  0  0  0  0
   10.4823    0.2754   10.9899 H   0  0  0  0  0  0  0  0  0  0  0  0
   13.6451    5.4244   13.9224 C   0  0  0  0  0  0  0  0  0  0  0  0
   13.5382    6.1701   14.6934 H   0  0  0  0  0  0  0  0  0  0  0  0
   13.9321    3.4760   11.8703 C   0  0  0  0  0  0  0  0  0  0  0  0
   14.0475    2.7292   11.1025 H   0  0  0  0  0  0  0  0  0  0  0  0
   14.8794    5.1196   13.3800 C   0  0  0  0  0  0  0  0  0  0  0  0
   15.7558    5.6364   13.7396 H   0  0  0  0  0  0  0  0  0  0  0  0
   11.0666    2.3380   11.1294 C   0  0  0  0  0  0  0  0  0  0  0  0
   11.8587    2.3083   10.3812 H   0  0  0  0  0  0  0  0  0  0  0  0
   10.1284    2.6417   10.6547 H   0  0  0  0  0  0  0  0  0  0  0  0
   15.0197    4.1611   12.3783 C   0  0  0  0  0  0  0  0  0  0  0  0
   16.0035    3.9519   11.9873 H   0  0  0  0  0  0  0  0  0  0  0  0
   10.6048    5.7046   14.6671 C   0  0  0  0  0  0  0  0  0  0  0  0
   10.5950    6.7090   14.2369 H   0  0  0  0  0  0  0  0  0  0  0  0
   11.1623    5.7107   15.6032 H   0  0  0  0  0  0  0  0  0  0  0  0
    9.5796    5.3843   14.8518 H   0  0  0  0  0  0  0  0  0  0  0  0
  1  2  1  0  0  0  0
  1 30  1  0  0  0  0
  3  1  1  0  0  0  0
  4 11  1  0  0  0  0
  5  4  1  0  0  0  0
  6  9  1  0  0  0  0
  6 10  1  0  0  0  0
  7 20  1  0  0  0  0
  8  7  1  0  0  0  0
  8 16  1  0  0  0  0
  9  8  2  0  0  0  0
 10  3  1  6  0  0  0
 10  7  1  0  0  0  0
 11 20  1  0  0  0  0
 11 13  1  0  0  0  0
 12 11  1  0  0  0  0
 14  9  1  0  0  0  0
 14 18  2  0  0  0  0
 15 14  1  0  0  0  0
 16 17  1  0  0  0  0
 18 23  1  0  0  0  0
 19 18  1  0  0  0  0
 20 22  1  0  0  0  0
 20 21  1  0  0  0  0
 23 24  1  0  0  0  0
 23 16  2  0  0  0  0
 25 26  1  0  0  0  0
 25  6  1  0  0  0  0
 27 25  1  0  0  0  0
 28 25  1  0  0  0  0
 29  1  1  0  0  0  0
 31 32  1  0  0  0  0
 33 52  1  0  0  0  0
 34 35  1  0  0  0  0
 34 37  1  0  0  0  0
 35 36  1  0  0  0  0
 36 33  1  0  0  0  0
 36 41  2  0  0  0  0
 37 30  1  1  0  0  0
 37 33  1  0  0  0  0
 38 31  1  0  0  0  0
 38 39  1  0  0  0  0
 40 38  1  0  0  0  0
 41 42  1  0  0  0  0
 43 50  1  0  0  0  0
 43 35  2  0  0  0  0
 44 43  1  0  0  0  0
 45 46  1  0  0  0  0
 45 41  1  0  0  0  0
 47 38  1  0  0  0  0
 47 34  1  0  0  0  0
 48 47  1  0  0  0  0
 49 47  1  0  0  0  0
 50 45  2  0  0  0  0
 51 50  1  0  0  0  0
 52 55  1  0  0  0  0
 52 54  1  0  0  0  0
 53 52  1  0  0  0  0
M  END
$$$$
