CSD_code = ZAVYEA | q = 0 | S = 0 | Stoichiometry = C25H24ClN6OP2Rh | MND = 4
 OpenBabel04212202123D

 60 65  0  0  0  0  0  0  0  0999 V2000
   10.1607    5.4306    4.4161 Rh  0  0  0  0  0  0  0  0  0  0  0  0
   11.0921    7.3761    3.8415 Cl  0  0  0  0  0  0  0  0  0  0  0  0
    8.6666    5.7907    2.7757 P   0  0  0  0  0  4  0  0  0  0  0  0
   11.6707    5.6526    6.0656 P   0  0  0  0  0  4  0  0  0  0  0  0
    8.8361    2.8793    5.2089 O   0  0  0  0  0  1  0  0  0  0  0  0
    7.2812    4.8113    2.5876 N   0  0  0  0  0  0  0  0  0  0  0  0
    7.9360    7.3023    2.9879 N   0  0  0  0  0  0  0  0  0  0  0  0
    9.1952    5.7940    1.1725 N   0  0  0  0  0  0  0  0  0  0  0  0
   11.7829    4.5133    7.3370 N   0  0  0  0  0  0  0  0  0  0  0  0
   11.4417    7.0477    6.9920 N   0  0  0  0  0  0  0  0  0  0  0  0
   13.2902    5.7785    5.6051 N   0  0  0  0  0  0  0  0  0  0  0  0
    9.3801    3.8475    4.9204 C   0  0  0  0  0  2  0  0  0  0  0  0
    7.3430    3.5182    2.1218 C   0  0  0  0  0  0  0  0  0  0  0  0
    6.1511    2.9087    2.3614 C   0  0  0  0  0  0  0  0  0  0  0  0
    5.3275    3.8478    3.0287 C   0  0  0  0  0  0  0  0  0  0  0  0
    6.0494    4.9921    3.1718 C   0  0  0  0  0  0  0  0  0  0  0  0
    7.3434    8.1582    2.0901 C   0  0  0  0  0  0  0  0  0  0  0  0
    6.8524    9.2270    2.7740 C   0  0  0  0  0  0  0  0  0  0  0  0
    7.1466    9.0295    4.1462 C   0  0  0  0  0  0  0  0  0  0  0  0
    7.8101    7.8481    4.2468 C   0  0  0  0  0  0  0  0  0  0  0  0
    8.4374    5.7501    0.0211 C   0  0  0  0  0  0  0  0  0  0  0  0
    9.2769    5.7092   -1.0471 C   0  0  0  0  0  0  0  0  0  0  0  0
   10.6036    5.7202   -0.5476 C   0  0  0  0  0  0  0  0  0  0  0  0
   10.5231    5.7649    0.8073 C   0  0  0  0  0  0  0  0  0  0  0  0
   11.7892    3.1633    7.0787 C   0  0  0  0  0  0  0  0  0  0  0  0
   12.0492    2.4946    8.2340 C   0  0  0  0  0  0  0  0  0  0  0  0
   12.2145    3.4673    9.2491 C   0  0  0  0  0  0  0  0  0  0  0  0
   12.0557    4.6897    8.6725 C   0  0  0  0  0  0  0  0  0  0  0  0
   10.2541    7.2163    7.6765 C   0  0  0  0  0  0  0  0  0  0  0  0
   10.1473    8.5195    8.0476 C   0  0  0  0  0  0  0  0  0  0  0  0
   11.2897    9.1922    7.5459 C   0  0  0  0  0  0  0  0  0  0  0  0
   12.0477    8.2759    6.8859 C   0  0  0  0  0  0  0  0  0  0  0  0
   13.7485    5.4046    4.3636 C   0  0  0  0  0  0  0  0  0  0  0  0
   15.1060    5.4596    4.3649 C   0  0  0  0  0  0  0  0  0  0  0  0
   15.5070    5.8660    5.6623 C   0  0  0  0  0  0  0  0  0  0  0  0
   14.3800    6.0428    6.4028 C   0  0  0  0  0  0  0  0  0  0  0  0
    8.2319    3.1548    1.6407 H   0  0  0  0  0  0  0  0  0  0  0  0
    5.8818    1.9064    2.0933 H   0  0  0  0  0  0  0  0  0  0  0  0
    4.3197    3.6864    3.3564 H   0  0  0  0  0  0  0  0  0  0  0  0
    5.7826    5.9303    3.6189 H   0  0  0  0  0  0  0  0  0  0  0  0
    7.3412    7.9482    1.0388 H   0  0  0  0  0  0  0  0  0  0  0  0
    6.3427   10.0707    2.3521 H   0  0  0  0  0  0  0  0  0  0  0  0
    6.8974    9.6928    4.9504 H   0  0  0  0  0  0  0  0  0  0  0  0
    8.2223    7.3355    5.1061 H   0  0  0  0  0  0  0  0  0  0  0  0
    7.3653    5.7297    0.0612 H   0  0  0  0  0  0  0  0  0  0  0  0
    8.9891    5.6746   -2.0794 H   0  0  0  0  0  0  0  0  0  0  0  0
   11.5003    5.6929   -1.1341 H   0  0  0  0  0  0  0  0  0  0  0  0
   11.2918    5.7903    1.5587 H   0  0  0  0  0  0  0  0  0  0  0  0
   11.6144    2.8018    6.0816 H   0  0  0  0  0  0  0  0  0  0  0  0
   12.1149    1.4318    8.3560 H   0  0  0  0  0  0  0  0  0  0  0  0
   12.4239    3.2755   10.2830 H   0  0  0  0  0  0  0  0  0  0  0  0
   12.0958    5.6690    9.1080 H   0  0  0  0  0  0  0  0  0  0  0  0
    9.6050    6.3759    7.8517 H   0  0  0  0  0  0  0  0  0  0  0  0
    9.3498    8.9595    8.6133 H   0  0  0  0  0  0  0  0  0  0  0  0
   11.5137   10.2333    7.6673 H   0  0  0  0  0  0  0  0  0  0  0  0
   12.9706    8.3922    6.3521 H   0  0  0  0  0  0  0  0  0  0  0  0
   13.0482    5.1402    3.5879 H   0  0  0  0  0  0  0  0  0  0  0  0
   15.7564    5.2374    3.5424 H   0  0  0  0  0  0  0  0  0  0  0  0
   16.5156    6.0112    5.9962 H   0  0  0  0  0  0  0  0  0  0  0  0
   14.2590    6.3360    7.4280 H   0  0  0  0  0  0  0  0  0  0  0  0
  1 12  1  0  0  0  0
  1  4  1  0  0  0  0
  2  1  1  0  0  0  0
  3  7  1  0  0  0  0
  3  1  1  0  0  0  0
  4 10  1  0  0  0  0
  4  9  1  0  0  0  0
  6  3  1  0  0  0  0
  6 16  1  0  0  0  0
  7 20  1  0  0  0  0
  8  3  1  0  0  0  0
  9 28  1  0  0  0  0
 10 29  1  0  0  0  0
 11  4  1  0  0  0  0
 11 36  1  0  0  0  0
 12  5  1  0  0  0  0
 13 14  2  0  0  0  0
 13  6  1  0  0  0  0
 14 15  1  0  0  0  0
 15 16  2  0  0  0  0
 15 39  1  0  0  0  0
 16 40  1  0  0  0  0
 17 18  2  0  0  0  0
 17  7  1  0  0  0  0
 18 19  1  0  0  0  0
 19 20  2  0  0  0  0
 19 43  1  0  0  0  0
 20 44  1  0  0  0  0
 21 45  1  0  0  0  0
 21  8  1  0  0  0  0
 22 23  1  0  0  0  0
 22 21  2  0  0  0  0
 23 24  2  0  0  0  0
 24  8  1  0  0  0  0
 24 48  1  0  0  0  0
 25  9  1  0  0  0  0
 25 26  2  0  0  0  0
 26 50  1  0  0  0  0
 26 27  1  0  0  0  0
 27 51  1  0  0  0  0
 28 52  1  0  0  0  0
 28 27  2  0  0  0  0
 29 53  1  0  0  0  0
 29 30  2  0  0  0  0
 30 54  1  0  0  0  0
 31 55  1  0  0  0  0
 31 30  1  0  0  0  0
 32 10  1  0  0  0  0
 32 31  2  0  0  0  0
 33 34  2  0  0  0  0
 33 11  1  0  0  0  0
 34 35  1  0  0  0  0
 35 59  1  0  0  0  0
 35 36  2  0  0  0  0
 36 60  1  0  0  0  0
 37 13  1  0  0  0  0
 38 14  1  0  0  0  0
 41 17  1  0  0  0  0
 42 18  1  0  0  0  0
 46 22  1  0  0  0  0
 47 23  1  0  0  0  0
 49 25  1  0  0  0  0
 56 32  1  0  0  0  0
 57 33  1  0  0  0  0
 58 34  1  0  0  0  0
M  END
$$$$
