CSD_code = ZAWKOA | q = 0 | S = 0 | Stoichiometry = C30H33Cl3NP2Re | MND = 6
 OpenBabel04212202123D

 70 75  0  0  0  0  0  0  0  0999 V2000
    2.9026   15.7866    2.3216 Re  0  0  0  0  0  0  0  0  0  0  0  0
    3.3721   13.5117    2.5809 Cl  0  0  0  0  0  0  0  0  0  0  0  0
    1.9682   15.8563    4.4602 Cl  0  0  0  0  0  0  0  0  0  0  0  0
    4.9859   16.4968    2.9924 Cl  0  0  0  0  0  0  0  0  0  0  0  0
    2.0146   17.9597    2.1383 P   0  0  0  0  0  4  0  0  0  0  0  0
    3.4321   15.2405    0.0847 P   0  0  0  0  0  4  0  0  0  0  0  0
    0.6424   15.2292    1.5209 N   0  0  0  0  0  4  0  0  0  0  0  0
    0.2950   17.7232    1.4998 C   0  0  0  0  0  0  0  0  0  0  0  0
   -0.3726   18.4973    1.8852 H   0  0  0  0  0  0  0  0  0  0  0  0
    0.3439   17.8320    0.4130 H   0  0  0  0  0  0  0  0  0  0  0  0
   -0.2342   16.3466    1.9088 C   0  0  0  0  0  0  0  0  0  0  0  0
   -0.3031   16.3159    3.0002 H   0  0  0  0  0  0  0  0  0  0  0  0
   -1.2369   16.2079    1.4810 H   0  0  0  0  0  0  0  0  0  0  0  0
    1.9036   14.3541   -0.4679 C   0  0  0  0  0  0  0  0  0  0  0  0
    1.8576   14.3023   -1.5586 H   0  0  0  0  0  0  0  0  0  0  0  0
    2.0029   13.3409   -0.0674 H   0  0  0  0  0  0  0  0  0  0  0  0
    0.6352   15.0248    0.0647 C   0  0  0  0  0  0  0  0  0  0  0  0
   -0.2350   14.4233   -0.2291 H   0  0  0  0  0  0  0  0  0  0  0  0
    0.5348   16.0010   -0.4109 H   0  0  0  0  0  0  0  0  0  0  0  0
    0.2454   14.0020    2.2403 C   0  0  0  0  0  0  0  0  0  0  0  0
    0.8846   13.1933    1.8821 H   0  0  0  0  0  0  0  0  0  0  0  0
    0.4802   14.1583    3.2971 H   0  0  0  0  0  0  0  0  0  0  0  0
   -1.2186   13.5844    2.1229 C   0  0  0  0  0  0  0  0  0  0  0  0
   -1.8809   14.2895    2.6187 H   0  0  0  0  0  0  0  0  0  0  0  0
   -1.3324   12.6212    2.6130 H   0  0  0  0  0  0  0  0  0  0  0  0
   -1.5395   13.4694    1.0892 H   0  0  0  0  0  0  0  0  0  0  0  0
    1.8615   18.9400    3.6598 C   0  0  0  0  0  0  0  0  0  0  0  0
    0.6981   19.0356    4.4127 C   0  0  0  0  0  0  0  0  0  0  0  0
   -0.2112   18.5508    4.0892 H   0  0  0  0  0  0  0  0  0  0  0  0
    0.7071   19.7369    5.6054 C   0  0  0  0  0  0  0  0  0  0  0  0
   -0.1983   19.8064    6.1909 H   0  0  0  0  0  0  0  0  0  0  0  0
    1.8718   20.3326    6.0580 C   0  0  0  0  0  0  0  0  0  0  0  0
    1.8736   20.8703    6.9946 H   0  0  0  0  0  0  0  0  0  0  0  0
    3.0388   20.2223    5.3186 C   0  0  0  0  0  0  0  0  0  0  0  0
    3.9534   20.6695    5.6790 H   0  0  0  0  0  0  0  0  0  0  0  0
    3.0366   19.5261    4.1258 C   0  0  0  0  0  0  0  0  0  0  0  0
    3.9478   19.4124    3.5532 H   0  0  0  0  0  0  0  0  0  0  0  0
    2.7183   19.1953    1.0039 C   0  0  0  0  0  0  0  0  0  0  0  0
    1.9471   20.2065    0.4418 C   0  0  0  0  0  0  0  0  0  0  0  0
    0.8904   20.2697    0.6594 H   0  0  0  0  0  0  0  0  0  0  0  0
    2.5365   21.1406   -0.3898 C   0  0  0  0  0  0  0  0  0  0  0  0
    1.9347   21.9220   -0.8312 H   0  0  0  0  0  0  0  0  0  0  0  0
    3.8964   21.0836   -0.6482 C   0  0  0  0  0  0  0  0  0  0  0  0
    4.3524   21.8206   -1.2925 H   0  0  0  0  0  0  0  0  0  0  0  0
    4.6697   20.0880   -0.0760 C   0  0  0  0  0  0  0  0  0  0  0  0
    5.7312   20.0492   -0.2672 H   0  0  0  0  0  0  0  0  0  0  0  0
    4.0826   19.1397    0.7417 C   0  0  0  0  0  0  0  0  0  0  0  0
    4.6725   18.3474    1.1858 H   0  0  0  0  0  0  0  0  0  0  0  0
    4.7547   14.0448   -0.2709 C   0  0  0  0  0  0  0  0  0  0  0  0
    5.8455   13.9736    0.5889 C   0  0  0  0  0  0  0  0  0  0  0  0
    5.8710   14.6020    1.4692 H   0  0  0  0  0  0  0  0  0  0  0  0
    6.8772   13.0912    0.3253 C   0  0  0  0  0  0  0  0  0  0  0  0
    7.7175   13.0315    1.0007 H   0  0  0  0  0  0  0  0  0  0  0  0
    6.8284   12.2821   -0.7977 C   0  0  0  0  0  0  0  0  0  0  0  0
    7.6301   11.5871   -0.9999 H   0  0  0  0  0  0  0  0  0  0  0  0
    5.7506   12.3634   -1.6644 C   0  0  0  0  0  0  0  0  0  0  0  0
    5.7150   11.7363   -2.5436 H   0  0  0  0  0  0  0  0  0  0  0  0
    4.7164   13.2449   -1.4080 C   0  0  0  0  0  0  0  0  0  0  0  0
    3.8833   13.3092   -2.0934 H   0  0  0  0  0  0  0  0  0  0  0  0
    3.7792   16.4833   -1.2040 C   0  0  0  0  0  0  0  0  0  0  0  0
    2.8006   17.1135   -1.9628 C   0  0  0  0  0  0  0  0  0  0  0  0
    1.7627   16.8336   -1.8613 H   0  0  0  0  0  0  0  0  0  0  0  0
    3.1464   18.0967   -2.8724 C   0  0  0  0  0  0  0  0  0  0  0  0
    2.3774   18.5784   -3.4589 H   0  0  0  0  0  0  0  0  0  0  0  0
    4.4711   18.4617   -3.0350 C   0  0  0  0  0  0  0  0  0  0  0  0
    4.7370   19.2264   -3.7493 H   0  0  0  0  0  0  0  0  0  0  0  0
    5.4527   17.8436   -2.2772 C   0  0  0  0  0  0  0  0  0  0  0  0
    6.4882   18.1243   -2.4010 H   0  0  0  0  0  0  0  0  0  0  0  0
    5.1089   16.8698   -1.3606 C   0  0  0  0  0  0  0  0  0  0  0  0
    5.8696   16.3957   -0.7560 H   0  0  0  0  0  0  0  0  0  0  0  0
  1  2  1  0  0  0  0
  1  4  1  0  0  0  0
  1  3  1  0  0  0  0
  5  1  1  0  0  0  0
  5 27  1  0  0  0  0
  6  1  1  0  0  0  0
  7 11  1  0  0  0  0
  7 20  1  0  0  0  0
  7  1  1  0  0  0  0
  8  9  1  0  0  0  0
  8 11  1  0  0  0  0
  8  5  1  0  0  0  0
 10  8  1  0  0  0  0
 11 12  1  0  0  0  0
 13 11  1  0  0  0  0
 14 16  1  0  0  0  0
 14 17  1  0  0  0  0
 14  6  1  0  0  0  0
 15 14  1  0  0  0  0
 17  7  1  0  0  0  0
 18 17  1  0  0  0  0
 19 17  1  0  0  0  0
 20 22  1  0  0  0  0
 21 20  1  0  0  0  0
 23 20  1  0  0  0  0
 23 25  1  0  0  0  0
 23 24  1  0  0  0  0
 26 23  1  0  0  0  0
 27 36  2  0  0  0  0
 27 28  1  0  0  0  0
 28 30  2  0  0  0  0
 29 28  1  0  0  0  0
 30 32  1  0  0  0  0
 30 31  1  0  0  0  0
 32 33  1  0  0  0  0
 34 35  1  0  0  0  0
 34 32  2  0  0  0  0
 36 34  1  0  0  0  0
 37 36  1  0  0  0  0
 38  5  1  0  0  0  0
 39 40  1  0  0  0  0
 39 38  2  0  0  0  0
 41 39  1  0  0  0  0
 42 41  1  0  0  0  0
 43 41  2  0  0  0  0
 43 45  1  0  0  0  0
 44 43  1  0  0  0  0
 45 47  2  0  0  0  0
 46 45  1  0  0  0  0
 47 38  1  0  0  0  0
 47 48  1  0  0  0  0
 49  6  1  0  0  0  0
 49 50  1  0  0  0  0
 50 51  1  0  0  0  0
 52 50  2  0  0  0  0
 52 53  1  0  0  0  0
 54 52  1  0  0  0  0
 55 54  1  0  0  0  0
 56 58  1  0  0  0  0
 56 54  2  0  0  0  0
 57 56  1  0  0  0  0
 58 49  2  0  0  0  0
 59 58  1  0  0  0  0
 60  6  1  0  0  0  0
 61 62  1  0  0  0  0
 61 60  2  0  0  0  0
 63 61  1  0  0  0  0
 64 63  1  0  0  0  0
 65 63  2  0  0  0  0
 65 67  1  0  0  0  0
 66 65  1  0  0  0  0
 67 69  2  0  0  0  0
 68 67  1  0  0  0  0
 69 60  1  0  0  0  0
 69 70  1  0  0  0  0
M  END
$$$$
