CSD_code = ZAXBIJ | q = 0 | S = 0 | Stoichiometry = C6H10Cl3N3O2Zn | MND = 4
 OpenBabel04212202123D

 25 24  0  0  1  0  0  0  0  0999 V2000
    0.3261    9.0333    8.2267 Zn  0  0  0  0  0  0  0  0  0  0  0  0
    1.8799   10.3901    9.0083 Cl  0  0  0  0  0  0  0  0  0  0  0  0
    1.3974    6.8027    7.5447 Cl  0  0  0  0  0  0  0  0  0  0  0  0
   -1.6741    8.4272    8.8638 Cl  0  0  0  0  0  0  0  0  0  0  0  0
    1.1836    9.5195    5.3718 C   0  0  1  0  0  3  0  0  0  0  0  0
    1.2069    9.4959    3.8431 C   0  0  2  0  0  0  0  0  0  0  0  0
    1.1533    8.0125    3.4082 C   0  0  0  0  0  0  0  0  0  0  0  0
    2.4207    7.2906    3.7162 C   0  0  0  0  0  0  0  0  0  0  0  0
    3.9086    6.2753    4.8901 C   0  0  0  0  0  0  0  0  0  0  0  0
    3.4473    6.9636    2.8709 C   0  0  0  0  0  0  0  0  0  0  0  0
    2.7368    6.8509    4.9698 N   0  0  0  0  0  0  0  0  0  0  0  0
    4.3808    6.3197    3.6318 N   0  0  0  0  0  0  0  0  0  0  0  0
    2.4526   10.1144    3.4071 N   0  0  0  0  0  0  0  0  0  0  0  0
    0.1578    9.3902    5.9965 O   0  0  0  0  0  0  0  0  0  0  0  0
    2.3536    9.6411    5.9405 O   0  0  0  0  0  0  0  0  0  0  0  0
    0.2962    9.9923    3.4781 H   0  0  0  0  0  0  0  0  0  0  0  0
    2.3904   11.1256    3.4703 H   0  0  0  0  0  0  0  0  0  0  0  0
    2.6579    9.8770    2.4437 H   0  0  0  0  0  0  0  0  0  0  0  0
    3.0410    9.7739    5.2526 H   0  0  0  0  0  0  0  0  0  0  0  0
    0.3210    7.5370    3.9285 H   0  0  0  0  0  0  0  0  0  0  0  0
    0.9712    7.9662    2.3334 H   0  0  0  0  0  0  0  0  0  0  0  0
    2.0130    6.8295    6.2905 H   0  0  0  0  0  0  0  0  0  0  0  0
    4.4207    5.8284    5.7170 H   0  0  0  0  0  0  0  0  0  0  0  0
    5.2554    5.9437    3.3021 H   0  0  0  0  0  0  0  0  0  0  0  0
    3.5742    7.1211    1.8202 H   0  0  0  0  0  0  0  0  0  0  0  0
  1  4  1  0  0  0  0
  1  2  1  0  0  0  0
  5 15  1  1  0  0  0
  5 14  1  0  0  0  0
  6 16  1  6  0  0  0
  6  5  1  0  0  0  0
  7  8  1  0  0  0  0
  7  6  1  0  0  0  0
  7 20  1  0  0  0  0
  8 11  1  0  0  0  0
  9 11  2  0  0  0  0
  9 23  1  0  0  0  0
 10 12  1  0  0  0  0
 10  8  2  0  0  0  0
 12  9  1  0  0  0  0
 13 17  1  0  0  0  0
 13  6  1  0  0  0  0
 14  1  1  0  0  0  0
 18 13  1  0  0  0  0
 19 15  1  0  0  0  0
 21  7  1  0  0  0  0
 22  3  1  0  0  0  0
 24 12  1  0  0  0  0
 25 10  1  0  0  0  0
M  END
$$$$
