CSD_code = ZAXFAH | q = 1 | S = 0 | Stoichiometry = C16H17ClNPdS2(1+) | MND = 4
 OpenBabel04212202123D

 38 41  0  0  0  0  0  0  0  0999 V2000
    6.0592    5.7383    1.8142 Pd  0  0  2  0  0  0  0  0  0  0  0  0
    4.2741    5.6634    3.3085 S   0  0  2  0  0  3  0  0  0  0  0  0
    7.6455    5.9180    0.1823 S   0  0  2  0  0  0  0  0  0  0  0  0
    6.6110    3.8603    2.4142 N   0  0  0  0  0  0  0  0  0  0  0  0
    5.4658    7.7971    1.2105 Cl  0  0  0  0  0  0  0  0  0  0  0  0
    4.3982    6.3020    5.9732 C   0  0  0  0  0  0  0  0  0  0  0  0
    3.3956    5.9056    6.0179 H   0  0  0  0  0  0  0  0  0  0  0  0
    5.0043    6.8136    7.1082 C   0  0  0  0  0  0  0  0  0  0  0  0
    4.4719    6.8078    8.0461 H   0  0  0  0  0  0  0  0  0  0  0  0
    6.2827    7.3428    7.0352 C   0  0  0  0  0  0  0  0  0  0  0  0
    6.7491    7.7480    7.9191 H   0  0  0  0  0  0  0  0  0  0  0  0
    6.9604    7.3658    5.8259 C   0  0  0  0  0  0  0  0  0  0  0  0
    7.9505    7.7905    5.7688 H   0  0  0  0  0  0  0  0  0  0  0  0
    6.3659    6.8517    4.6857 C   0  0  0  0  0  0  0  0  0  0  0  0
    6.8862    6.8970    3.7164 H   0  0  0  0  0  0  0  0  0  0  0  0
    5.0866    6.3148    4.7694 C   0  0  0  0  0  0  0  0  0  0  0  0
    4.4766    3.8650    3.6263 C   0  0  0  0  0  0  0  0  0  0  0  0
    3.9975    3.6210    4.5738 H   0  0  0  0  0  0  0  0  0  0  0  0
    3.9479    3.3686    2.8097 H   0  0  0  0  0  0  0  0  0  0  0  0
    5.9479    3.4751    3.6476 C   0  0  0  0  0  0  0  0  0  0  0  0
    6.4449    4.0001    4.4765 H   0  0  0  0  0  0  0  0  0  0  0  0
    6.0389    2.3943    3.8239 H   0  0  0  0  0  0  0  0  0  0  0  0
    7.4208    3.0263    1.8794 C   0  0  0  0  0  0  0  0  0  0  0  0
    7.5354    2.0501    2.3596 H   0  0  0  0  0  0  0  0  0  0  0  0
    8.2448    3.1695    0.6978 C   0  0  0  0  0  0  0  0  0  0  0  0
    8.9447    2.0129    0.3105 C   0  0  0  0  0  0  0  0  0  0  0  0
    8.8286    1.1143    0.8979 H   0  0  0  0  0  0  0  0  0  0  0  0
    9.7639    1.9892   -0.7986 C   0  0  0  0  0  0  0  0  0  0  0  0
   10.2790    1.0805   -1.0666 H   0  0  0  0  0  0  0  0  0  0  0  0
    9.9177    3.1337   -1.5656 C   0  0  0  0  0  0  0  0  0  0  0  0
   10.5514    3.1294   -2.4380 H   0  0  0  0  0  0  0  0  0  0  0  0
    9.2447    4.2882   -1.2041 C   0  0  0  0  0  0  0  0  0  0  0  0
    9.3493    5.1839   -1.7973 H   0  0  0  0  0  0  0  0  0  0  0  0
    8.4235    4.3216   -0.0865 C   0  0  0  0  0  0  0  0  0  0  0  0
    8.9001    6.6833    1.2678 C   0  0  0  0  0  0  0  0  0  0  0  0
    9.0707    6.0683    2.1521 H   0  0  0  0  0  0  0  0  0  0  0  0
    8.5043    7.6626    1.5378 H   0  0  0  0  0  0  0  0  0  0  0  0
    9.8235    6.8017    0.7071 H   0  0  0  0  0  0  0  0  0  0  0  0
  1  5  1  1  0  0  0
  1  4  1  0  0  0  0
  1  2  1  0  0  0  0
  2 17  1  0  0  0  0
  2 16  1  1  0  0  0
  3 35  1  1  0  0  0
  3  1  1  0  0  0  0
  4 20  1  0  0  0  0
  6  7  1  0  0  0  0
  6  8  1  0  0  0  0
  8  9  1  0  0  0  0
 10  8  2  0  0  0  0
 10 11  1  0  0  0  0
 12 10  1  0  0  0  0
 13 12  1  0  0  0  0
 14 16  1  0  0  0  0
 14 12  2  0  0  0  0
 15 14  1  0  0  0  0
 16  6  2  0  0  0  0
 17 20  1  0  0  0  0
 17 18  1  0  0  0  0
 19 17  1  0  0  0  0
 20 22  1  0  0  0  0
 20 21  1  0  0  0  0
 23 24  1  0  0  0  0
 23  4  1  0  0  0  0
 25 23  2  0  0  0  0
 26 25  1  0  0  0  0
 26 27  1  0  0  0  0
 28 26  2  0  0  0  0
 29 28  1  0  0  0  0
 30 32  2  0  0  0  0
 30 28  1  0  0  0  0
 31 30  1  0  0  0  0
 32 34  1  0  0  0  0
 33 32  1  0  0  0  0
 34  3  2  3  0  0  0
 34 25  1  0  0  0  0
 35 37  1  0  0  0  0
 35 36  1  0  0  0  0
 38 35  1  0  0  0  0
M  END
$$$$
