CSD_code = ZAXZUT | q = 0 | S = 0 | Stoichiometry = C16H13Cl3N3ORh | MND = 6
 OpenBabel04212202123D

 37 41  0  0  1  0  0  0  0  0999 V2000
    0.3446    3.5510    1.1128 Rh  0  0  0  0  0  0  0  0  0  0  0  0
   -1.2309    2.2877    0.0738 Cl  0  0  0  0  0  0  0  0  0  0  0  0
   -1.1920    4.5616    2.4489 Cl  0  0  0  0  0  0  0  0  0  0  0  0
    0.7822    1.9331    2.6497 Cl  0  0  0  0  0  0  0  0  0  0  0  0
    0.0693    4.9953   -0.2511 N   0  0  0  0  0  0  0  0  0  0  0  0
    1.1456    5.5955   -0.7631 C   0  0  1  0  0  3  0  0  0  0  0  0
    1.0274    6.6797   -1.6192 C   0  0  0  0  0  0  0  0  0  0  0  0
    1.9073    7.1859   -1.9842 H   0  0  0  0  0  0  0  0  0  0  0  0
   -0.2368    7.1268   -1.9735 C   0  0  0  0  0  0  0  0  0  0  0  0
   -0.3452    7.9721   -2.6354 H   0  0  0  0  0  0  0  0  0  0  0  0
   -1.3430    6.4723   -1.4602 C   0  0  0  0  0  0  0  0  0  0  0  0
   -2.3442    6.7805   -1.7124 H   0  0  0  0  0  0  0  0  0  0  0  0
   -1.1475    5.4125   -0.5929 C   0  0  0  0  0  0  0  0  0  0  0  0
   -1.9778    4.8787   -0.1519 H   0  0  0  0  0  0  0  0  0  0  0  0
    2.5281    5.0795   -0.3424 C   0  0  2  0  0  0  0  0  0  0  0  0
    3.5471    5.7956   -0.9888 O   0  0  0  0  0  0  0  0  0  0  0  0
    3.4668    5.6595   -1.9405 H   0  0  0  0  0  0  0  0  0  0  0  0
    2.6636    3.5744   -0.6084 C   0  0  1  0  0  3  0  0  0  0  0  0
    3.7306    3.0806   -1.3435 C   0  0  0  0  0  0  0  0  0  0  0  0
    4.4895    3.7479   -1.7207 H   0  0  0  0  0  0  0  0  0  0  0  0
    3.8284    1.7140   -1.5587 C   0  0  0  0  0  0  0  0  0  0  0  0
    4.6549    1.3138   -2.1254 H   0  0  0  0  0  0  0  0  0  0  0  0
    2.8530    0.8851   -1.0324 C   0  0  0  0  0  0  0  0  0  0  0  0
    2.8847   -0.1818   -1.1794 H   0  0  0  0  0  0  0  0  0  0  0  0
    1.8305    1.4472   -0.2894 C   0  0  0  0  0  0  0  0  0  0  0  0
    1.0535    0.8422    0.1568 H   0  0  0  0  0  0  0  0  0  0  0  0
    1.7490    2.7591   -0.0800 N   0  0  0  0  0  0  0  0  0  0  0  0
    1.7893    4.7001    1.9566 N   0  0  0  0  0  0  0  0  0  0  0  0
    2.6740    5.3035    1.1617 C   0  0  1  0  0  3  0  0  0  0  0  0
    3.6874    6.1021    1.6636 C   0  0  0  0  0  0  0  0  0  0  0  0
    4.3785    6.5687    0.9821 H   0  0  0  0  0  0  0  0  0  0  0  0
    3.7811    6.2765    3.0356 C   0  0  0  0  0  0  0  0  0  0  0  0
    4.5625    6.8938    3.4516 H   0  0  0  0  0  0  0  0  0  0  0  0
    2.8578    5.6461    3.8528 C   0  0  0  0  0  0  0  0  0  0  0  0
    2.8932    5.7544    4.9246 H   0  0  0  0  0  0  0  0  0  0  0  0
    1.8741    4.8642    3.2740 C   0  0  0  0  0  0  0  0  0  0  0  0
    1.1309    4.3526    3.8696 H   0  0  0  0  0  0  0  0  0  0  0  0
  1 28  1  0  0  0  0
  1  3  1  0  0  0  0
  1  4  1  0  0  0  0
  2  1  1  0  0  0  0
  5  1  1  0  0  0  0
  6  7  1  1  0  0  0
  6 15  1  0  0  0  0
  6  5  1  0  0  0  0
  8  7  1  0  0  0  0
  9  7  2  0  0  0  0
  9 11  1  0  0  0  0
 10  9  1  0  0  0  0
 11 13  2  0  0  0  0
 12 11  1  0  0  0  0
 13  5  1  0  0  0  0
 13 14  1  0  0  0  0
 15 16  1  6  0  0  0
 15 29  1  0  0  0  0
 17 16  1  0  0  0  0
 18 19  1  1  0  0  0
 18 15  1  0  0  0  0
 18 27  1  0  0  0  0
 20 19  1  0  0  0  0
 21 19  2  0  0  0  0
 21 23  1  0  0  0  0
 22 21  1  0  0  0  0
 23 25  2  0  0  0  0
 24 23  1  0  0  0  0
 25 27  1  0  0  0  0
 25 26  1  0  0  0  0
 27  1  1  0  0  0  0
 28 36  1  0  0  0  0
 29 30  1  1  0  0  0
 29 28  1  0  0  0  0
 30 32  2  0  0  0  0
 31 30  1  0  0  0  0
 32 33  1  0  0  0  0
 32 34  1  0  0  0  0
 34 35  1  0  0  0  0
 36 34  2  0  0  0  0
 36 37  1  0  0  0  0
M  END
$$$$
