CSD_code = ZAYDUA | q = -1 | S = 0 | Stoichiometry = C22H14BCl2F15N3Ti(1-) | MND = 5
 OpenBabel04212202123D

 58 60  0  0  0  0  0  0  0  0999 V2000
   -1.1203    2.6397   14.0059 Ti  0  0  0  0  0  0  0  0  0  0  0  0
   -0.1917    1.4050   15.7451 Cl  0  0  0  0  0  0  0  0  0  0  0  0
   -1.8795    4.7573   13.5781 Cl  0  0  0  0  0  0  0  0  0  0  0  0
   -5.6605    2.3136   10.6010 F   0  0  0  0  0  0  0  0  0  0  0  0
   -6.7274   -0.1751   10.2297 F   0  0  0  0  0  0  0  0  0  0  0  0
   -5.1595   -2.3835   10.5716 F   0  0  0  0  0  0  0  0  0  0  0  0
   -2.5654   -2.1194   11.2404 F   0  0  0  0  0  0  0  0  0  0  0  0
    1.6032   -0.7567   11.5385 F   0  0  0  0  0  0  0  0  0  0  0  0
    2.6733   -2.2721   13.4783 F   0  0  0  0  0  0  0  0  0  0  0  0
    1.1762   -3.0372   15.6402 F   0  0  0  0  0  0  0  0  0  0  0  0
   -1.4189   -2.1497   15.8543 F   0  0  0  0  0  0  0  0  0  0  0  0
   -2.4576   -0.5301   13.9764 F   0  0  0  0  0  0  0  0  0  0  0  0
   -0.6733   -1.2281    9.3842 F   0  0  0  0  0  0  0  0  0  0  0  0
    0.6580   -0.5830    7.1344 F   0  0  0  0  0  0  0  0  0  0  0  0
    1.7419    1.9090    6.8458 F   0  0  0  0  0  0  0  0  0  0  0  0
    1.4469    3.7470    8.8534 F   0  0  0  0  0  0  0  0  0  0  0  0
    0.1150    3.1242   11.0871 F   0  0  0  0  0  0  0  0  0  0  0  0
    0.8155    3.4733   13.8393 N   0  0  0  0  0  4  0  0  0  0  0  0
   -2.9294    2.2528   15.0338 N   0  0  0  0  0  4  0  0  0  0  0  0
   -1.1124    1.5756   12.7293 N   0  0  0  0  0  2  0  0  0  0  0  0
    1.9265    2.5650   13.5714 C   0  0  0  0  0  0  0  0  0  0  0  0
    1.0768    4.3162   15.0015 C   0  0  0  0  0  0  0  0  0  0  0  0
   -4.1851    2.3048   14.2944 C   0  0  0  0  0  0  0  0  0  0  0  0
   -2.9437    3.1543   16.1830 C   0  0  0  0  0  0  0  0  0  0  0  0
   -2.6996    0.2463   11.2414 C   0  0  0  0  0  0  0  0  0  0  0  0
   -4.8814    1.2244   10.7427 C   0  0  0  0  0  0  0  0  0  0  0  0
   -5.4299   -0.0389   10.5594 C   0  0  0  0  0  0  0  0  0  0  0  0
   -4.6272   -1.1584   10.7324 C   0  0  0  0  0  0  0  0  0  0  0  0
   -3.2855   -1.0016   11.0686 C   0  0  0  0  0  0  0  0  0  0  0  0
   -0.5102   -0.6630   12.6236 C   0  0  0  0  0  0  0  0  0  0  0  0
    0.8099   -1.1048   12.5797 C   0  0  0  0  0  0  0  0  0  0  0  0
    1.3884   -1.8765   13.5793 C   0  0  0  0  0  0  0  0  0  0  0  0
    0.6392   -2.2580   14.6823 C   0  0  0  0  0  0  0  0  0  0  0  0
   -0.6765   -1.8133   14.7835 C   0  0  0  0  0  0  0  0  0  0  0  0
   -1.2039   -1.0229   13.7805 C   0  0  0  0  0  0  0  0  0  0  0  0
   -0.3131    0.9012   10.3421 C   0  0  0  0  0  0  0  0  0  0  0  0
   -0.1530    0.0032    9.2928 C   0  0  0  0  0  0  0  0  0  0  0  0
    0.5278    0.3193    8.1229 C   0  0  0  0  0  0  0  0  0  0  0  0
    1.0764    1.5861    7.9683 C   0  0  0  0  0  0  0  0  0  0  0  0
    0.9221    2.5146    8.9871 C   0  0  0  0  0  0  0  0  0  0  0  0
    0.2300    2.1619   10.1416 C   0  0  0  0  0  0  0  0  0  0  0  0
   -1.1458    0.5278   11.7165 B   0  0  0  0  0  0  0  0  0  0  0  0
   -3.0596    2.5856   11.2932 F   0  0  0  0  0  0  0  0  0  0  0  0
   -3.5392    1.3436   11.0844 C   0  0  0  0  0  0  0  0  0  0  0  0
    0.6843    4.0815   13.0264 H   0  0  0  0  0  0  0  0  0  0  0  0
    2.0777    1.9212   14.4413 H   0  0  0  0  0  0  0  0  0  0  0  0
    2.8577    3.1154   13.3698 H   0  0  0  0  0  0  0  0  0  0  0  0
    1.6797    1.9327   12.7168 H   0  0  0  0  0  0  0  0  0  0  0  0
    2.0243    4.8668   14.8960 H   0  0  0  0  0  0  0  0  0  0  0  0
    0.2615    5.0364   15.1177 H   0  0  0  0  0  0  0  0  0  0  0  0
    1.1372    3.6860   15.8943 H   0  0  0  0  0  0  0  0  0  0  0  0
   -2.8000    1.2975   15.3822 H   0  0  0  0  0  0  0  0  0  0  0  0
   -4.2577    3.2624   13.7710 H   0  0  0  0  0  0  0  0  0  0  0  0
   -5.0505    2.1975   14.9665 H   0  0  0  0  0  0  0  0  0  0  0  0
   -4.2000    1.4940   13.5651 H   0  0  0  0  0  0  0  0  0  0  0  0
   -3.7984    2.9457   16.8456 H   0  0  0  0  0  0  0  0  0  0  0  0
   -3.0181    4.1870   15.8292 H   0  0  0  0  0  0  0  0  0  0  0  0
   -2.0191    3.0298   16.7553 H   0  0  0  0  0  0  0  0  0  0  0  0
  1 19  1  0  0  0  0
  1  2  1  0  0  0  0
  3  1  1  0  0  0  0
  4 26  1  0  0  0  0
  5 27  1  0  0  0  0
  6 28  1  0  0  0  0
  8 31  1  0  0  0  0
  9 32  1  0  0  0  0
 14 38  1  0  0  0  0
 15 39  1  0  0  0  0
 16 40  1  0  0  0  0
 18  1  1  0  0  0  0
 18 22  1  0  0  0  0
 19 52  1  0  0  0  0
 19 24  1  0  0  0  0
 20  1  1  0  0  0  0
 21 18  1  0  0  0  0
 21 46  1  0  0  0  0
 22 50  1  0  0  0  0
 22 51  1  0  0  0  0
 23 54  1  0  0  0  0
 23 19  1  0  0  0  0
 24 58  1  0  0  0  0
 24 56  1  0  0  0  0
 25 42  1  0  0  0  0
 26 44  2  0  0  0  0
 27 28  2  0  0  0  0
 27 26  1  0  0  0  0
 28 29  1  0  0  0  0
 29  7  1  0  0  0  0
 29 25  2  0  0  0  0
 30 35  1  0  0  0  0
 31 30  2  0  0  0  0
 31 32  1  0  0  0  0
 32 33  2  0  0  0  0
 33 34  1  0  0  0  0
 33 10  1  0  0  0  0
 34 11  1  0  0  0  0
 35 12  1  0  0  0  0
 35 34  2  0  0  0  0
 36 42  1  0  0  0  0
 37 13  1  0  0  0  0
 37 36  2  0  0  0  0
 38 37  1  0  0  0  0
 39 38  2  0  0  0  0
 39 40  1  0  0  0  0
 40 41  2  0  0  0  0
 41 36  1  0  0  0  0
 41 17  1  0  0  0  0
 42 30  1  0  0  0  0
 42 20  1  0  0  0  0
 44 25  1  0  0  0  0
 44 43  1  0  0  0  0
 45 18  1  0  0  0  0
 47 21  1  0  0  0  0
 48 21  1  0  0  0  0
 49 22  1  0  0  0  0
 53 23  1  0  0  0  0
 55 23  1  0  0  0  0
 57 24  1  0  0  0  0
M  END
$$$$
