CSD_code = ZAYFAI | q = -1 | S = 0 | Stoichiometry = C22H14BCl2F15N3Ti(1-) | MND = 5
 OpenBabel04212202123D

 58 60  0  0  0  0  0  0  0  0999 V2000
   -0.5490    5.7215    4.1350 Ti  0  0  0  0  0  0  0  0  0  0  0  0
   -1.7552    4.0209    5.0819 Cl  0  0  0  0  0  0  0  0  0  0  0  0
   -0.8817    7.7033    2.9648 Cl  0  0  0  0  0  0  0  0  0  0  0  0
   -1.0276    6.9247    5.8100 N   0  0  0  0  0  4  0  0  0  0  0  0
   -0.5587    6.5198    7.1299 C   0  0  0  0  0  0  0  0  0  0  0  0
   -2.4780    7.0958    5.7821 C   0  0  0  0  0  0  0  0  0  0  0  0
   -1.0029    4.7973    2.2855 N   0  0  0  0  0  4  0  0  0  0  0  0
   -2.4169    4.9970    1.9854 C   0  0  0  0  0  0  0  0  0  0  0  0
   -0.1588    5.1145    1.1374 C   0  0  0  0  0  0  0  0  0  0  0  0
    1.1019    5.5363    4.1886 N   0  0  0  0  0  2  0  0  0  0  0  0
    2.5592    5.5664    4.2345 B   0  0  0  0  0  0  0  0  0  0  0  0
    1.4034    4.0783    6.3595 F   0  0  0  0  0  0  0  0  0  0  0  0
    2.0529    4.1574    8.9853 F   0  0  0  0  0  0  0  0  0  0  0  0
    4.0372    5.8230    9.8562 F   0  0  0  0  0  0  0  0  0  0  0  0
    5.3507    7.4128    8.0675 F   0  0  0  0  0  0  0  0  0  0  0  0
    4.7247    7.3224    5.4515 F   0  0  0  0  0  0  0  0  0  0  0  0
    1.6826    8.0751    5.1727 F   0  0  0  0  0  0  0  0  0  0  0  0
    1.5391   10.3760    3.7862 F   0  0  0  0  0  0  0  0  0  0  0  0
    2.3780   10.4722    1.1684 F   0  0  0  0  0  0  0  0  0  0  0  0
    3.3953    8.2099    0.0091 F   0  0  0  0  0  0  0  0  0  0  0  0
    3.6660    5.9462    1.4288 F   0  0  0  0  0  0  0  0  0  0  0  0
    1.1799    3.1765    3.1722 F   0  0  0  0  0  0  0  0  0  0  0  0
    2.3377    0.9836    2.1734 F   0  0  0  0  0  0  0  0  0  0  0  0
    5.0656    0.7700    2.0679 F   0  0  0  0  0  0  0  0  0  0  0  0
    6.6113    2.8245    2.9951 F   0  0  0  0  0  0  0  0  0  0  0  0
    5.4591    5.0459    3.9848 F   0  0  0  0  0  0  0  0  0  0  0  0
    3.0739    5.6577    5.7982 C   0  0  0  0  0  0  0  0  0  0  0  0
    2.4110    4.8854    6.7454 C   0  0  0  0  0  0  0  0  0  0  0  0
    2.7205    4.9219    8.1001 C   0  0  0  0  0  0  0  0  0  0  0  0
    3.7239    5.7719    8.5486 C   0  0  0  0  0  0  0  0  0  0  0  0
    4.3902    6.5764    7.6341 C   0  0  0  0  0  0  0  0  0  0  0  0
    4.0587    6.5090    6.2839 C   0  0  0  0  0  0  0  0  0  0  0  0
    2.7759    6.9427    3.3949 C   0  0  0  0  0  0  0  0  0  0  0  0
    2.1998    8.1035    3.9140 C   0  0  0  0  0  0  0  0  0  0  0  0
    2.0693    9.2836    3.2072 C   0  0  0  0  0  0  0  0  0  0  0  0
    2.4875    9.3342    1.8798 C   0  0  0  0  0  0  0  0  0  0  0  0
    3.0125    8.1880    1.3016 C   0  0  0  0  0  0  0  0  0  0  0  0
    3.1555    7.0316    2.0581 C   0  0  0  0  0  0  0  0  0  0  0  0
    3.2773    4.2249    3.5962 C   0  0  0  0  0  0  0  0  0  0  0  0
    2.5328    3.1468    3.1401 C   0  0  0  0  0  0  0  0  0  0  0  0
    3.1094    1.9911    2.6221 C   0  0  0  0  0  0  0  0  0  0  0  0
    4.4906    1.8793    2.5639 C   0  0  0  0  0  0  0  0  0  0  0  0
    5.2709    2.9289    3.0315 C   0  0  0  0  0  0  0  0  0  0  0  0
    4.6577    4.0696    3.5360 C   0  0  0  0  0  0  0  0  0  0  0  0
   -0.5979    7.8257    5.5777 H   0  0  0  0  0  0  0  0  0  0  0  0
    0.5295    6.5875    7.1546 H   0  0  0  0  0  0  0  0  0  0  0  0
   -0.8604    5.4859    7.3201 H   0  0  0  0  0  0  0  0  0  0  0  0
   -0.9755    7.1657    7.9183 H   0  0  0  0  0  0  0  0  0  0  0  0
   -2.8128    7.8045    6.5557 H   0  0  0  0  0  0  0  0  0  0  0  0
   -2.9580    6.1287    5.9607 H   0  0  0  0  0  0  0  0  0  0  0  0
   -2.7809    7.4788    4.8027 H   0  0  0  0  0  0  0  0  0  0  0  0
   -0.8645    3.8137    2.5336 H   0  0  0  0  0  0  0  0  0  0  0  0
   -3.0185    4.6725    2.8396 H   0  0  0  0  0  0  0  0  0  0  0  0
   -2.5961    6.0597    1.7952 H   0  0  0  0  0  0  0  0  0  0  0  0
   -2.7253    4.4252    1.0966 H   0  0  0  0  0  0  0  0  0  0  0  0
    0.8890    4.9747    1.4082 H   0  0  0  0  0  0  0  0  0  0  0  0
   -0.3062    6.1624    0.8652 H   0  0  0  0  0  0  0  0  0  0  0  0
   -0.4049    4.4837    0.2701 H   0  0  0  0  0  0  0  0  0  0  0  0
  1 10  1  0  0  0  0
  1  2  1  0  0  0  0
  1  4  1  0  0  0  0
  3  1  1  0  0  0  0
  4  5  1  0  0  0  0
  5 46  1  0  0  0  0
  5 47  1  0  0  0  0
  5 48  1  0  0  0  0
  6  4  1  0  0  0  0
  6 50  1  0  0  0  0
  6 49  1  0  0  0  0
  7 52  1  0  0  0  0
  7  1  1  0  0  0  0
  8  7  1  0  0  0  0
  8 53  1  0  0  0  0
  9 56  1  0  0  0  0
  9  7  1  0  0  0  0
 10 11  1  0  0  0  0
 11 27  1  0  0  0  0
 12 28  1  0  0  0  0
 16 32  1  0  0  0  0
 19 36  1  0  0  0  0
 20 37  1  0  0  0  0
 21 38  1  0  0  0  0
 23 41  1  0  0  0  0
 24 42  1  0  0  0  0
 25 43  1  0  0  0  0
 27 32  2  0  0  0  0
 27 28  1  0  0  0  0
 28 29  2  0  0  0  0
 29 30  1  0  0  0  0
 29 13  1  0  0  0  0
 30 14  1  0  0  0  0
 31 15  1  0  0  0  0
 31 30  2  0  0  0  0
 32 31  1  0  0  0  0
 33 34  1  0  0  0  0
 33 11  1  0  0  0  0
 34 17  1  0  0  0  0
 35 18  1  0  0  0  0
 35 34  2  0  0  0  0
 36 35  1  0  0  0  0
 37 36  2  0  0  0  0
 37 38  1  0  0  0  0
 38 33  2  0  0  0  0
 39 11  1  0  0  0  0
 40 22  1  0  0  0  0
 40 39  2  0  0  0  0
 41 40  1  0  0  0  0
 42 41  2  0  0  0  0
 42 43  1  0  0  0  0
 43 44  2  0  0  0  0
 44 39  1  0  0  0  0
 44 26  1  0  0  0  0
 45  4  1  0  0  0  0
 51  6  1  0  0  0  0
 54  8  1  0  0  0  0
 55  8  1  0  0  0  0
 57  9  1  0  0  0  0
 58  9  1  0  0  0  0
M  END
$$$$
