CSD_code = ZAZPEV | q = 1 | S = 0 | Stoichiometry = C27H24ClN4Zn(1+) | MND = 5
 OpenBabel04212202123D

 57 64  0  0  1  0  0  0  0  0999 V2000
   13.1106    3.6457    2.6573 Zn  0  0  0  0  0  0  0  0  0  0  0  0
   14.4892    1.9601    2.3984 Cl  0  0  0  0  0  0  0  0  0  0  0  0
   11.2467    4.8559    2.8890 N   0  0  2  0  0  4  0  0  0  0  0  0
   11.9722    3.2822    0.8673 N   0  0  0  0  0  0  0  0  0  0  0  0
   13.8829    5.6029    2.6967 N   0  0  0  0  0  0  0  0  0  0  0  0
   12.3928    3.1852    4.6039 N   0  0  0  0  0  0  0  0  0  0  0  0
   10.7537    5.2452    1.5645 C   0  0  2  0  0  0  0  0  0  0  0  0
   11.6986    5.9943    3.6726 C   0  0  0  0  0  0  0  0  0  0  0  0
   10.3391    3.9886    3.6229 C   0  0  0  0  0  0  0  0  0  0  0  0
    9.3304    5.8095    1.5738 C   0  0  0  0  0  0  0  0  0  0  0  0
   10.9311    4.0770    0.6155 C   0  0  1  0  0  3  0  0  0  0  0  0
   10.1053    3.8612   -0.4791 C   0  0  0  0  0  0  0  0  0  0  0  0
   10.3712    2.7956   -1.3258 C   0  0  0  0  0  0  0  0  0  0  0  0
   11.4575    1.9803   -1.0559 C   0  0  0  0  0  0  0  0  0  0  0  0
   12.2321    2.2634    0.0553 C   0  0  0  0  0  0  0  0  0  0  0  0
   13.0519    6.4781    3.2221 C   0  0  0  0  0  0  0  0  0  0  0  0
   13.3944    7.8282    3.4066 C   0  0  0  0  0  0  0  0  0  0  0  0
   14.6367    8.2626    3.0315 C   0  0  0  0  0  0  0  0  0  0  0  0
   16.8349    7.7243    2.0342 C   0  0  0  0  0  3  0  0  0  0  0  0
   17.6730    6.7992    1.4767 C   0  0  0  0  0  0  0  0  0  0  0  0
   17.2504    5.4700    1.3140 C   0  0  0  0  0  0  0  0  0  0  0  0
   16.0006    5.0747    1.7102 C   0  0  0  0  0  0  0  0  0  0  0  0
   15.1188    6.0008    2.2956 C   0  0  0  0  0  0  0  0  0  0  0  0
   15.5418    7.3520    2.4551 C   0  0  0  0  0  0  0  0  0  0  0  0
   11.0792    3.1808    4.6580 C   0  0  0  0  0  0  0  0  0  0  0  0
   10.3628    2.4647    5.6314 C   0  0  0  0  0  0  0  0  0  0  0  0
   11.0530    1.7256    6.5541 C   0  0  0  0  0  0  0  0  0  0  0  0
   13.2453    1.0466    7.4874 C   0  0  0  0  0  0  0  0  0  0  0  0
   14.6094    1.1350    7.4493 C   0  0  0  0  0  0  0  0  0  0  0  0
   15.2427    1.9400    6.4888 C   0  0  0  0  0  0  0  0  0  0  0  0
   14.5117    2.6278    5.5581 C   0  0  0  0  0  0  0  0  0  0  0  0
   13.1096    2.5247    5.5484 C   0  0  1  0  0  3  0  0  0  0  0  0
   12.4614    1.7467    6.5482 C   0  0  0  0  0  0  0  0  0  0  0  0
   11.4357    6.0304    1.2104 H   0  0  0  0  0  0  0  0  0  0  0  0
   10.9849    6.8283    3.6421 H   0  0  0  0  0  0  0  0  0  0  0  0
   11.7952    5.6810    4.7163 H   0  0  0  0  0  0  0  0  0  0  0  0
    9.5359    4.5516    4.1192 H   0  0  0  0  0  0  0  0  0  0  0  0
    9.8746    3.2942    2.9159 H   0  0  0  0  0  0  0  0  0  0  0  0
    9.2078    6.5144    2.3931 H   0  0  0  0  0  0  0  0  0  0  0  0
    9.1350    6.3495    0.6518 H   0  0  0  0  0  0  0  0  0  0  0  0
    8.5869    5.0237    1.6819 H   0  0  0  0  0  0  0  0  0  0  0  0
    9.2695    4.5107   -0.6766 H   0  0  0  0  0  0  0  0  0  0  0  0
    9.7387    2.6113   -2.1804 H   0  0  0  0  0  0  0  0  0  0  0  0
   11.7029    1.1436   -1.6886 H   0  0  0  0  0  0  0  0  0  0  0  0
   13.0900    1.6615    0.3183 H   0  0  0  0  0  0  0  0  0  0  0  0
   12.6758    8.5021    3.8459 H   0  0  0  0  0  0  0  0  0  0  0  0
   14.9301    9.2929    3.1654 H   0  0  0  0  0  0  0  0  0  0  0  0
   17.1442    8.7505    2.1627 H   0  0  0  0  0  0  0  0  0  0  0  0
   18.6632    7.0846    1.1575 H   0  0  0  0  0  0  0  0  0  0  0  0
   17.9225    4.7520    0.8703 H   0  0  0  0  0  0  0  0  0  0  0  0
   15.6777    4.0522    1.5868 H   0  0  0  0  0  0  0  0  0  0  0  0
    9.2846    2.4935    5.6253 H   0  0  0  0  0  0  0  0  0  0  0  0
   10.5338    1.1384    7.2967 H   0  0  0  0  0  0  0  0  0  0  0  0
   12.7469    0.4467    8.2336 H   0  0  0  0  0  0  0  0  0  0  0  0
   15.2089    0.5936    8.1645 H   0  0  0  0  0  0  0  0  0  0  0  0
   16.3191    2.0133    6.4881 H   0  0  0  0  0  0  0  0  0  0  0  0
   14.9929    3.2515    4.8194 H   0  0  0  0  0  0  0  0  0  0  0  0
  1  5  1  0  0  0  0
  1  3  1  0  0  0  0
  1  6  1  0  0  0  0
  2  1  1  0  0  0  0
  3  9  1  1  0  0  0
  3  8  1  0  0  0  0
  4  1  1  0  0  0  0
  5 16  1  0  0  0  0
  6 25  1  0  0  0  0
  6 32  1  0  0  0  0
  7 34  1  6  0  0  0
  7 10  1  0  0  0  0
  7  3  1  0  0  0  0
  8 36  1  0  0  0  0
  9 37  1  0  0  0  0
  9 25  1  0  0  0  0
 10 41  1  0  0  0  0
 10 39  1  0  0  0  0
 11 12  1  6  0  0  0
 11  4  1  0  0  0  0
 11  7  1  0  0  0  0
 13 14  1  0  0  0  0
 13 12  2  0  0  0  0
 14 15  2  0  0  0  0
 15 45  1  0  0  0  0
 15  4  1  0  0  0  0
 16 17  2  0  0  0  0
 16  8  1  0  0  0  0
 17 46  1  0  0  0  0
 18 47  1  0  0  0  0
 18 17  1  0  0  0  0
 19 48  1  0  0  0  0
 19 24  1  0  0  0  0
 20 19  1  0  0  0  0
 21 20  2  0  0  0  0
 21 22  1  0  0  0  0
 22 23  2  0  0  0  0
 23 24  1  0  0  0  0
 23  5  1  0  0  0  0
 24 18  2  0  0  0  0
 25 26  2  0  0  0  0
 26 27  1  0  0  0  0
 27 53  1  0  0  0  0
 28 54  1  0  0  0  0
 29 28  2  0  0  0  0
 29 55  1  0  0  0  0
 30 29  1  0  0  0  0
 31 30  2  0  0  0  0
 32 31  1  1  0  0  0
 32 33  1  0  0  0  0
 33 27  2  0  0  0  0
 33 28  1  0  0  0  0
 35  8  1  0  0  0  0
 38  9  1  0  0  0  0
 40 10  1  0  0  0  0
 42 12  1  0  0  0  0
 43 13  1  0  0  0  0
 44 14  1  0  0  0  0
 49 20  1  0  0  0  0
 50 21  1  0  0  0  0
 51 22  1  0  0  0  0
 52 26  1  0  0  0  0
 56 30  1  0  0  0  0
 57 31  1  0  0  0  0
M  END
$$$$
