CSD_code = ZEBVOU | q = 0 | S = 0 | Stoichiometry = C8H18Cl3NbS3 | MND = 6
 OpenBabel04212202123D

 33 33  0  0  0  0  0  0  0  0999 V2000
    1.6064    6.9682    7.0698 Nb  0  0  0  0  0  0  0  0  0  0  0  0
    1.3780    8.9757    6.0534 Cl  0  0  0  0  0  0  0  0  0  0  0  0
    3.5850    6.3336    6.1204 Cl  0  0  0  0  0  0  0  0  0  0  0  0
   -0.6172    6.5454    7.3460 Cl  0  0  0  0  0  0  0  0  0  0  0  0
    0.6041    5.6080    4.5171 S   0  0  1  0  0  3  0  0  0  0  0  0
    1.8150    4.1308    7.6505 S   0  0  2  0  0  3  0  0  0  0  0  0
    2.2612    7.4531    9.1499 S   0  0  0  0  0  1  0  0  0  0  0  0
    1.5638    4.6522    2.0956 C   0  0  0  0  0  0  0  0  0  0  0  0
    0.6550    5.0463    1.6463 H   0  0  0  0  0  0  0  0  0  0  0  0
    1.3918    3.6165    2.3805 H   0  0  0  0  0  0  0  0  0  0  0  0
    2.3549    4.6678    1.3487 H   0  0  0  0  0  0  0  0  0  0  0  0
    1.9742    5.5012    3.2850 C   0  0  0  0  0  0  0  0  0  0  0  0
    2.8346    5.0698    3.8015 H   0  0  0  0  0  0  0  0  0  0  0  0
    2.2829    6.9348    2.8828 C   0  0  0  0  0  0  0  0  0  0  0  0
    3.1076    6.9523    2.1740 H   0  0  0  0  0  0  0  0  0  0  0  0
    2.5673    7.5233    3.7546 H   0  0  0  0  0  0  0  0  0  0  0  0
    1.4124    7.3950    2.4198 H   0  0  0  0  0  0  0  0  0  0  0  0
    0.4528    3.9053    5.1595 C   0  0  0  0  0  0  0  0  0  0  0  0
   -0.4640    3.9308    5.7504 H   0  0  0  0  0  0  0  0  0  0  0  0
    0.2965    3.2480    4.3032 H   0  0  0  0  0  0  0  0  0  0  0  0
    1.6268    3.4059    5.9806 C   0  0  0  0  0  0  0  0  0  0  0  0
    2.5779    3.6401    5.4990 H   0  0  0  0  0  0  0  0  0  0  0  0
    1.5602    2.3251    6.1110 H   0  0  0  0  0  0  0  0  0  0  0  0
    0.2529    2.0811    8.6809 C   0  0  0  0  0  0  0  0  0  0  0  0
    1.1719    1.7122    9.1299 H   0  0  0  0  0  0  0  0  0  0  0  0
    0.1171    1.6037    7.7134 H   0  0  0  0  0  0  0  0  0  0  0  0
   -0.5820    1.7947    9.3166 H   0  0  0  0  0  0  0  0  0  0  0  0
    0.2971    3.5939    8.5630 C   0  0  0  0  0  0  0  0  0  0  0  0
   -0.5603    3.9790    8.0070 H   0  0  0  0  0  0  0  0  0  0  0  0
    0.3778    4.2713    9.9212 C   0  0  0  0  0  0  0  0  0  0  0  0
   -0.5043    4.0283   10.5080 H   0  0  0  0  0  0  0  0  0  0  0  0
    0.4305    5.3548    9.8053 H   0  0  0  0  0  0  0  0  0  0  0  0
    1.2626    3.9379   10.4587 H   0  0  0  0  0  0  0  0  0  0  0  0
  1  4  1  0  0  0  0
  1  6  1  0  0  0  0
  1  7  1  0  0  0  0
  2  1  1  0  0  0  0
  3  1  1  0  0  0  0
  5 12  1  6  0  0  0
  5 18  1  0  0  0  0
  5  1  1  0  0  0  0
  6 28  1  1  0  0  0
  8 10  1  0  0  0  0
  8 12  1  0  0  0  0
  9  8  1  0  0  0  0
 11  8  1  0  0  0  0
 12 13  1  0  0  0  0
 14 12  1  0  0  0  0
 14 16  1  0  0  0  0
 15 14  1  0  0  0  0
 17 14  1  0  0  0  0
 18 19  1  0  0  0  0
 18 21  1  0  0  0  0
 20 18  1  0  0  0  0
 21 23  1  0  0  0  0
 21  6  1  0  0  0  0
 22 21  1  0  0  0  0
 24 25  1  0  0  0  0
 24 27  1  0  0  0  0
 26 24  1  0  0  0  0
 28 24  1  0  0  0  0
 28 30  1  0  0  0  0
 29 28  1  0  0  0  0
 30 33  1  0  0  0  0
 30 31  1  0  0  0  0
 32 30  1  0  0  0  0
M  END
$$$$
