CSD_code = ZECLUR | q = 1 | S = 0 | Stoichiometry = C11H17ClN5Pt(1+) | MND = 4
 OpenBabel04212202123D

 35 38  0  0  1  0  0  0  0  0999 V2000
    4.6614    7.2091    4.5689 Pt  0  0  1  0  0  0  0  0  0  0  0  0
    3.7162    8.7933    5.8122 Cl  0  0  0  0  0  0  0  0  0  0  0  0
    2.1130    7.7426    2.8001 C   0  0  0  0  0  0  0  0  0  0  0  0
    1.7842    8.6497    3.2663 H   0  0  0  0  0  0  0  0  0  0  0  0
    3.2207    7.0845    3.2285 N   0  0  0  0  0  0  0  0  0  0  0  0
    1.5801    7.0430    1.7568 C   0  0  0  0  0  0  0  0  0  0  0  0
    0.7130    7.2337    1.1602 H   0  0  0  0  0  0  0  0  0  0  0  0
    5.5887    5.7162    3.3535 N   0  0  2  0  0  4  0  0  0  0  0  0
    6.2342    6.9241    5.7240 N   0  0  0  0  0  0  0  0  0  0  0  0
    3.3669    6.0058    2.4609 C   0  0  2  0  0  3  0  0  0  0  0  0
    2.3765    5.9524    1.5505 N   0  0  0  0  0  0  0  0  0  0  0  0
    4.4816    5.0196    2.6792 C   0  0  0  0  0  0  0  0  0  0  0  0
    4.8055    4.5757    1.7278 H   0  0  0  0  0  0  0  0  0  0  0  0
    4.1149    4.2113    3.3228 H   0  0  0  0  0  0  0  0  0  0  0  0
    7.9611    5.6508    6.1784 N   0  0  0  0  0  0  0  0  0  0  0  0
    6.4017    4.9135    4.2808 C   0  0  0  0  0  0  0  0  0  0  0  0
    5.7784    4.1264    4.7215 H   0  0  0  0  0  0  0  0  0  0  0  0
    7.2442    4.4323    3.7653 H   0  0  0  0  0  0  0  0  0  0  0  0
    6.8884    5.8154    5.3819 C   0  0  1  0  0  3  0  0  0  0  0  0
    7.9799    6.7012    7.0516 C   0  0  0  0  0  0  0  0  0  0  0  0
    8.7388    6.8053    7.7981 H   0  0  0  0  0  0  0  0  0  0  0  0
    6.9040    7.4889    6.7613 C   0  0  0  0  0  0  0  0  0  0  0  0
    6.5685    8.3990    7.2168 H   0  0  0  0  0  0  0  0  0  0  0  0
    2.1707    4.9317    0.5583 C   0  0  0  0  0  0  0  0  0  0  0  0
    1.3090    5.1958   -0.0502 H   0  0  0  0  0  0  0  0  0  0  0  0
    1.9834    3.9670    1.0328 H   0  0  0  0  0  0  0  0  0  0  0  0
    3.0436    4.8443   -0.0905 H   0  0  0  0  0  0  0  0  0  0  0  0
    6.4418    6.3945    2.3761 C   0  0  0  0  0  0  0  0  0  0  0  0
    6.9468    5.6704    1.7258 H   0  0  0  0  0  0  0  0  0  0  0  0
    7.1953    6.9909    2.8901 H   0  0  0  0  0  0  0  0  0  0  0  0
    5.8417    7.0629    1.7589 H   0  0  0  0  0  0  0  0  0  0  0  0
    8.9074    4.5682    6.1374 C   0  0  0  0  0  0  0  0  0  0  0  0
    9.4307    4.5500    5.1798 H   0  0  0  0  0  0  0  0  0  0  0  0
    8.4028    3.6124    6.2845 H   0  0  0  0  0  0  0  0  0  0  0  0
    9.6383    4.7044    6.9309 H   0  0  0  0  0  0  0  0  0  0  0  0
  1  9  1  0  0  0  0
  1  2  1  6  0  0  0
  3  5  1  0  0  0  0
  3  4  1  0  0  0  0
  5  1  1  0  0  0  0
  6  3  2  0  0  0  0
  7  6  1  0  0  0  0
  8 28  1  6  0  0  0
  8 16  1  0  0  0  0
  8  1  1  0  0  0  0
  9 22  1  0  0  0  0
 10 11  1  1  0  0  0
 10 12  1  0  0  0  0
 10  5  1  0  0  0  0
 11  6  1  0  0  0  0
 12 14  1  0  0  0  0
 12  8  1  0  0  0  0
 13 12  1  0  0  0  0
 15 20  1  0  0  0  0
 16 17  1  0  0  0  0
 18 16  1  0  0  0  0
 19 16  1  1  0  0  0
 19  9  1  0  0  0  0
 19 15  1  0  0  0  0
 20 21  1  0  0  0  0
 22 20  2  0  0  0  0
 22 23  1  0  0  0  0
 24 26  1  0  0  0  0
 24 11  1  0  0  0  0
 25 24  1  0  0  0  0
 27 24  1  0  0  0  0
 28 30  1  0  0  0  0
 29 28  1  0  0  0  0
 31 28  1  0  0  0  0
 32 15  1  0  0  0  0
 32 34  1  0  0  0  0
 32 35  1  0  0  0  0
 33 32  1  0  0  0  0
M  END
$$$$
