CSD_code = ZEDBUH | q = 0 | S = 0 | Stoichiometry = C32H28Cl2N4Ni | MND = 4
 OpenBabel04212202133D

 67 72  0  0  0  0  0  0  0  0999 V2000
   17.4681    2.6437    4.6841 Ni  0  0  0  0  0  0  0  0  0  0  0  0
   16.2815    1.2073    5.5526 Cl  0  0  0  0  0  0  0  0  0  0  0  0
   20.2298    5.3016    3.2426 N   0  0  0  0  0  0  0  0  0  0  0  0
   19.8057    4.1270    3.7385 C   0  0  0  0  0  3  0  0  0  0  0  0
   20.4630    3.3526    4.0824 H   0  0  0  0  0  0  0  0  0  0  0  0
   18.4981    4.0414    3.7152 N   0  0  0  0  0  0  0  0  0  0  0  0
   18.0354    5.2024    3.1631 C   0  0  0  0  0  0  0  0  0  0  0  0
   19.1158    6.0111    2.8678 C   0  0  0  0  0  0  0  0  0  0  0  0
   21.6034    5.6954    3.1065 C   0  0  0  0  0  0  0  0  0  0  0  0
   22.2110    4.8138    2.9055 H   0  0  0  0  0  0  0  0  0  0  0  0
   21.9610    6.1647    4.0263 H   0  0  0  0  0  0  0  0  0  0  0  0
   21.7052    6.4003    2.2821 H   0  0  0  0  0  0  0  0  0  0  0  0
   16.6117    5.4341    2.9574 C   0  0  0  0  0  0  0  0  0  0  0  0
   15.7890    4.3547    2.6330 C   0  0  0  0  0  0  0  0  0  0  0  0
   16.2237    3.3639    2.5237 H   0  0  0  0  0  0  0  0  0  0  0  0
   14.4327    4.5440    2.4460 C   0  0  0  0  0  0  0  0  0  0  0  0
   13.8035    3.7040    2.1921 H   0  0  0  0  0  0  0  0  0  0  0  0
   13.8820    5.8087    2.5805 C   0  0  0  0  0  0  0  0  0  0  0  0
   12.8228    5.9571    2.4257 H   0  0  0  0  0  0  0  0  0  0  0  0
   14.6934    6.8831    2.9099 C   0  0  0  0  0  0  0  0  0  0  0  0
   14.2661    7.8709    3.0144 H   0  0  0  0  0  0  0  0  0  0  0  0
   16.0501    6.7005    3.1023 C   0  0  0  0  0  0  0  0  0  0  0  0
   16.6782    7.5360    3.3750 H   0  0  0  0  0  0  0  0  0  0  0  0
   19.1559    7.3261    2.2385 C   0  0  0  0  0  0  0  0  0  0  0  0
   18.4328    7.5553    1.0685 C   0  0  0  0  0  0  0  0  0  0  0  0
   17.8567    6.7501    0.6376 H   0  0  0  0  0  0  0  0  0  0  0  0
   18.4589    8.7979    0.4655 C   0  0  0  0  0  0  0  0  0  0  0  0
   17.8991    8.9642   -0.4427 H   0  0  0  0  0  0  0  0  0  0  0  0
   19.2042    9.8268    1.0193 C   0  0  0  0  0  0  0  0  0  0  0  0
   19.2253   10.7964    0.5449 H   0  0  0  0  0  0  0  0  0  0  0  0
   19.9188    9.6090    2.1850 C   0  0  0  0  0  0  0  0  0  0  0  0
   20.4943   10.4105    2.6246 H   0  0  0  0  0  0  0  0  0  0  0  0
   19.8972    8.3670    2.7933 C   0  0  0  0  0  0  0  0  0  0  0  0
   20.4355    8.2075    3.7157 H   0  0  0  0  0  0  0  0  0  0  0  0
   18.6532    1.2035    3.8201 Cl  0  0  0  0  0  0  0  0  0  0  0  0
   14.7083    5.3061    6.1219 N   0  0  0  0  0  0  0  0  0  0  0  0
   15.1320    4.1313    5.6262 C   0  0  0  0  0  3  0  0  0  0  0  0
   14.4743    3.3571    5.2824 H   0  0  0  0  0  0  0  0  0  0  0  0
   16.4396    4.0453    5.6493 N   0  0  0  0  0  0  0  0  0  0  0  0
   16.9027    5.2063    6.2011 C   0  0  0  0  0  0  0  0  0  0  0  0
   15.8226    6.0152    6.4966 C   0  0  0  0  0  0  0  0  0  0  0  0
   13.3349    5.7007    6.2572 C   0  0  0  0  0  0  0  0  0  0  0  0
   12.7263    4.8191    6.4551 H   0  0  0  0  0  0  0  0  0  0  0  0
   12.9789    6.1727    5.3381 H   0  0  0  0  0  0  0  0  0  0  0  0
   13.2325    6.4036    7.0833 H   0  0  0  0  0  0  0  0  0  0  0  0
   18.3263    5.4384    6.4062 C   0  0  0  0  0  0  0  0  0  0  0  0
   19.1497    4.3594    6.7304 C   0  0  0  0  0  0  0  0  0  0  0  0
   18.7155    3.3684    6.8398 H   0  0  0  0  0  0  0  0  0  0  0  0
   20.5059    4.5495    6.9173 C   0  0  0  0  0  0  0  0  0  0  0  0
   21.1355    3.7099    7.1712 H   0  0  0  0  0  0  0  0  0  0  0  0
   21.0559    5.8145    6.7829 C   0  0  0  0  0  0  0  0  0  0  0  0
   22.1150    5.9635    6.9378 H   0  0  0  0  0  0  0  0  0  0  0  0
   20.2439    6.8885    6.4536 C   0  0  0  0  0  0  0  0  0  0  0  0
   20.6706    7.8765    6.3491 H   0  0  0  0  0  0  0  0  0  0  0  0
   18.8873    6.7051    6.2612 C   0  0  0  0  0  0  0  0  0  0  0  0
   18.2587    7.5403    5.9886 H   0  0  0  0  0  0  0  0  0  0  0  0
   15.7826    7.3293    7.1279 C   0  0  0  0  0  0  0  0  0  0  0  0
   16.5046    7.5558    8.2991 C   0  0  0  0  0  0  0  0  0  0  0  0
   17.0803    6.7496    8.7286 H   0  0  0  0  0  0  0  0  0  0  0  0
   16.4778    8.7970    8.9051 C   0  0  0  0  0  0  0  0  0  0  0  0
   17.0366    8.9610    9.8143 H   0  0  0  0  0  0  0  0  0  0  0  0
   15.7330    9.8271    8.3530 C   0  0  0  0  0  0  0  0  0  0  0  0
   15.7112   10.7955    8.8298 H   0  0  0  0  0  0  0  0  0  0  0  0
   15.0197    9.6121    7.1860 C   0  0  0  0  0  0  0  0  0  0  0  0
   14.4446   10.4146    6.7478 H   0  0  0  0  0  0  0  0  0  0  0  0
   15.0420    8.3716    6.5748 C   0  0  0  0  0  0  0  0  0  0  0  0
   14.5044    8.2142    5.6515 H   0  0  0  0  0  0  0  0  0  0  0  0
  1  2  1  0  0  0  0
  1 39  1  0  0  0  0
  3  4  1  0  0  0  0
  4  5  1  0  0  0  0
  6  4  1  0  0  0  0
  6  1  1  0  0  0  0
  7  6  1  0  0  0  0
  8  7  2  0  0  0  0
  8  3  1  0  0  0  0
  9  3  1  0  0  0  0
  9 11  1  0  0  0  0
 10  9  1  0  0  0  0
 12  9  1  0  0  0  0
 13 22  1  0  0  0  0
 13  7  1  0  0  0  0
 14 13  2  0  0  0  0
 15 14  1  0  0  0  0
 16 18  2  0  0  0  0
 16 14  1  0  0  0  0
 17 16  1  0  0  0  0
 18 20  1  0  0  0  0
 19 18  1  0  0  0  0
 20 21  1  0  0  0  0
 20 22  2  0  0  0  0
 22 23  1  0  0  0  0
 24 33  1  0  0  0  0
 24  8  1  0  0  0  0
 25 24  2  0  0  0  0
 26 25  1  0  0  0  0
 27 29  2  0  0  0  0
 27 25  1  0  0  0  0
 28 27  1  0  0  0  0
 29 31  1  0  0  0  0
 30 29  1  0  0  0  0
 31 32  1  0  0  0  0
 31 33  2  0  0  0  0
 33 34  1  0  0  0  0
 35  1  1  0  0  0  0
 36 42  1  0  0  0  0
 36 41  1  0  0  0  0
 37 39  1  0  0  0  0
 37 36  1  0  0  0  0
 38 37  1  0  0  0  0
 39 40  1  0  0  0  0
 40 46  1  0  0  0  0
 40 41  2  0  0  0  0
 41 57  1  0  0  0  0
 42 43  1  0  0  0  0
 42 45  1  0  0  0  0
 44 42  1  0  0  0  0
 46 47  1  0  0  0  0
 47 48  1  0  0  0  0
 47 49  2  0  0  0  0
 49 50  1  0  0  0  0
 51 49  1  0  0  0  0
 51 52  1  0  0  0  0
 53 51  2  0  0  0  0
 54 53  1  0  0  0  0
 55 46  2  0  0  0  0
 55 53  1  0  0  0  0
 56 55  1  0  0  0  0
 57 58  1  0  0  0  0
 58 59  1  0  0  0  0
 58 60  2  0  0  0  0
 60 61  1  0  0  0  0
 62 63  1  0  0  0  0
 62 60  1  0  0  0  0
 64 62  2  0  0  0  0
 65 64  1  0  0  0  0
 66 57  2  0  0  0  0
 66 64  1  0  0  0  0
 67 66  1  0  0  0  0
M  END
$$$$
