CSD_code = ZEDMUQ | q = 1 | S = 0 | Stoichiometry = C4H13Cl2N4ORu(1+) | MND = 6
 OpenBabel04212202133D

 25 26  0  0  0  0  0  0  0  0999 V2000
    3.0694    2.9448    1.7220 Ru  0  0  0  0  0  0  0  0  0  0  0  0
    4.0576    1.2251    3.0379 Cl  0  0  0  0  0  0  0  0  0  0  0  0
    1.7927    4.6642    0.7092 Cl  0  0  0  0  0  0  0  0  0  0  0  0
    5.1076    2.7991   -0.2147 O   0  0  0  0  0  1  0  0  0  0  0  0
    1.6743    2.9107    3.2266 N   0  0  0  0  0  4  0  0  0  0  0  0
    3.9048    4.4732    2.9622 N   0  0  0  0  0  4  0  0  0  0  0  0
    1.6851    1.5765    0.8381 N   0  0  0  0  0  4  0  0  0  0  0  0
    4.2690    2.8850    0.5481 N   0  0  0  0  0  2  0  0  0  0  0  0
    3.1693    4.4772    4.2441 C   0  0  0  0  0  0  0  0  0  0  0  0
    1.6957    4.1841    3.9570 C   0  0  0  0  0  0  0  0  0  0  0  0
    0.3796    2.4633    2.6984 C   0  0  0  0  0  0  0  0  0  0  0  0
    0.6773    1.2200    1.8583 C   0  0  0  0  0  0  0  0  0  0  0  0
    2.0786    0.7219    0.4340 H   0  0  0  0  0  0  0  0  0  0  0  0
    1.2262    2.1027    0.0834 H   0  0  0  0  0  0  0  0  0  0  0  0
    1.1012    0.4371    2.4971 H   0  0  0  0  0  0  0  0  0  0  0  0
   -0.2369    0.8393    1.3915 H   0  0  0  0  0  0  0  0  0  0  0  0
   -0.3308    2.2300    3.4993 H   0  0  0  0  0  0  0  0  0  0  0  0
   -0.0359    3.2587    2.0694 H   0  0  0  0  0  0  0  0  0  0  0  0
    2.0087    2.1807    3.8746 H   0  0  0  0  0  0  0  0  0  0  0  0
    1.2694    4.9629    3.3147 H   0  0  0  0  0  0  0  0  0  0  0  0
    1.1212    4.1315    4.8884 H   0  0  0  0  0  0  0  0  0  0  0  0
    3.2811    5.4372    4.7582 H   0  0  0  0  0  0  0  0  0  0  0  0
    3.5851    3.6858    4.8776 H   0  0  0  0  0  0  0  0  0  0  0  0
    3.7233    5.3567    2.4685 H   0  0  0  0  0  0  0  0  0  0  0  0
    4.9103    4.4150    3.1463 H   0  0  0  0  0  0  0  0  0  0  0  0
  1  6  1  0  0  0  0
  1  2  1  0  0  0  0
  1  5  1  0  0  0  0
  3  1  1  0  0  0  0
  4  8  1  0  0  0  0
  5 19  1  0  0  0  0
  5 10  1  0  0  0  0
  6 25  1  0  0  0  0
  6  9  1  0  0  0  0
  7  1  1  0  0  0  0
  7 12  1  0  0  0  0
  8  1  1  0  0  0  0
  9 22  1  0  0  0  0
  9 23  1  0  0  0  0
 10  9  1  0  0  0  0
 10 21  1  0  0  0  0
 11  5  1  0  0  0  0
 11 17  1  0  0  0  0
 12 15  1  0  0  0  0
 12 11  1  0  0  0  0
 13  7  1  0  0  0  0
 14  7  1  0  0  0  0
 16 12  1  0  0  0  0
 18 11  1  0  0  0  0
 20 10  1  0  0  0  0
 24  6  1  0  0  0  0
M  END
$$$$
