CSD_code = ZEDQUX | q = 0 | S = 0 | Stoichiometry = C20H28Cl2N8Pt | MND = 4
 OpenBabel04212202133D

 59 62  0  0  1  0  0  0  0  0999 V2000
    6.1039    1.8794    4.1544 Pt  0  0  0  0  0  0  0  0  0  0  0  0
    7.8409    2.7774    3.0815 Cl  0  0  0  0  0  0  0  0  0  0  0  0
    7.1323    2.0246    6.1245 Cl  0  0  0  0  0  0  0  0  0  0  0  0
    4.5225    2.2049    0.2727 N   0  0  0  0  0  0  0  0  0  0  0  0
    5.2620    2.5467    1.3005 C   0  0  0  0  0  0  0  0  0  0  0  0
    5.9147    3.3974    1.2947 H   0  0  0  0  0  0  0  0  0  0  0  0
    5.1469    1.7244    2.3621 N   0  0  0  0  0  0  0  0  0  0  0  0
    4.2731    0.7986    1.9750 C   0  0  1  0  0  3  0  0  0  0  0  0
    3.7909   -0.2410    2.6296 N   0  0  0  0  0  0  0  0  0  0  0  0
    2.9107   -1.0003    2.0115 C   0  0  0  0  0  0  0  0  0  0  0  0
    2.3659   -2.1626    2.7715 C   0  0  0  0  0  0  0  0  0  0  0  0
    1.2911   -2.0513    2.9118 H   0  0  0  0  0  0  0  0  0  0  0  0
    2.5388   -3.0853    2.2208 H   0  0  0  0  0  0  0  0  0  0  0  0
    2.8543   -2.2275    3.7394 H   0  0  0  0  0  0  0  0  0  0  0  0
    2.4930   -0.7351    0.6889 C   0  0  0  0  0  0  0  0  0  0  0  0
    1.7796   -1.3869    0.2115 H   0  0  0  0  0  0  0  0  0  0  0  0
    3.0010    0.3383    0.0027 C   0  0  0  0  0  0  0  0  0  0  0  0
    2.6359    0.7323   -1.3854 C   0  0  0  0  0  0  0  0  0  0  0  0
    2.5460   -0.1639   -2.0017 H   0  0  0  0  0  0  0  0  0  0  0  0
    3.4275    1.3681   -1.7840 H   0  0  0  0  0  0  0  0  0  0  0  0
    1.3037    1.5078   -1.4328 C   0  0  0  0  0  0  0  0  0  0  0  0
    0.5136    0.8634   -1.0295 H   0  0  0  0  0  0  0  0  0  0  0  0
    1.3890    2.7751   -0.5882 C   0  0  0  0  0  0  0  0  0  0  0  0
    0.4704    3.3504   -0.6773 H   0  0  0  0  0  0  0  0  0  0  0  0
    2.2194    3.3943   -0.9180 H   0  0  0  0  0  0  0  0  0  0  0  0
    1.5390    2.5349    0.4619 H   0  0  0  0  0  0  0  0  0  0  0  0
    0.9702    1.8493   -2.8814 C   0  0  0  0  0  0  0  0  0  0  0  0
    0.0208    2.3757   -2.9360 H   0  0  0  0  0  0  0  0  0  0  0  0
    0.8970    0.9489   -3.4868 H   0  0  0  0  0  0  0  0  0  0  0  0
    1.7408    2.4884   -3.3050 H   0  0  0  0  0  0  0  0  0  0  0  0
    3.8895    1.1050    0.6761 N   0  0  0  0  0  0  0  0  0  0  0  0
    3.3986   -0.5259    6.2282 N   0  0  0  0  0  0  0  0  0  0  0  0
    4.5807   -0.0391    5.9281 C   0  0  0  0  0  0  0  0  0  0  0  0
    5.4936   -0.4403    6.3223 H   0  0  0  0  0  0  0  0  0  0  0  0
    4.5457    1.0180    5.0975 N   0  0  0  0  0  0  0  0  0  0  0  0
    3.2530    1.2204    4.8606 C   0  0  2  0  0  3  0  0  0  0  0  0
    2.6639    2.1386    4.1198 N   0  0  0  0  0  0  0  0  0  0  0  0
    1.3496    2.1171    4.0587 C   0  0  0  0  0  0  0  0  0  0  0  0
    0.6842    3.1809    3.2537 C   0  0  0  0  0  0  0  0  0  0  0  0
   -0.0077    2.7457    2.5346 H   0  0  0  0  0  0  0  0  0  0  0  0
    0.1133    3.8345    3.9122 H   0  0  0  0  0  0  0  0  0  0  0  0
    1.4345    3.7732    2.7388 H   0  0  0  0  0  0  0  0  0  0  0  0
    0.5840    1.1419    4.7384 C   0  0  0  0  0  0  0  0  0  0  0  0
   -0.4907    1.1547    4.6561 H   0  0  0  0  0  0  0  0  0  0  0  0
    1.1974    0.1916    5.5129 C   0  0  0  0  0  0  0  0  0  0  0  0
    0.5173   -0.8648    6.3085 C   0  0  0  0  0  0  0  0  0  0  0  0
    1.0124   -1.8185    6.1135 H   0  0  0  0  0  0  0  0  0  0  0  0
   -0.5298   -0.9330    6.0102 H   0  0  0  0  0  0  0  0  0  0  0  0
    0.6070   -0.5811    7.8225 C   0  0  0  0  0  0  0  0  0  0  0  0
    1.6647   -0.4971    8.0880 H   0  0  0  0  0  0  0  0  0  0  0  0
    0.0002   -1.7484    8.5938 C   0  0  0  0  0  0  0  0  0  0  0  0
    0.5235   -2.6739    8.3672 H   0  0  0  0  0  0  0  0  0  0  0  0
   -1.0505   -1.8718    8.3385 H   0  0  0  0  0  0  0  0  0  0  0  0
    0.0731   -1.5690    9.6632 H   0  0  0  0  0  0  0  0  0  0  0  0
   -0.1044    0.7223    8.1725 C   0  0  0  0  0  0  0  0  0  0  0  0
    0.3467    1.5678    7.6574 H   0  0  0  0  0  0  0  0  0  0  0  0
   -0.0425    0.9064    9.2418 H   0  0  0  0  0  0  0  0  0  0  0  0
   -1.1560    0.6704    7.8960 H   0  0  0  0  0  0  0  0  0  0  0  0
    2.5474    0.2564    5.5666 N   0  0  0  0  0  0  0  0  0  0  0  0
  1 35  1  0  0  0  0
  1  3  1  0  0  0  0
  2  1  1  0  0  0  0
  4 31  1  0  0  0  0
  4  5  2  0  0  0  0
  5  7  1  0  0  0  0
  6  5  1  0  0  0  0
  7  1  1  0  0  0  0
  8  7  1  0  0  0  0
  8  9  1  1  0  0  0
 10  9  2  0  0  0  0
 10 11  1  0  0  0  0
 11 12  1  0  0  0  0
 11 14  1  0  0  0  0
 13 11  1  0  0  0  0
 15 10  1  0  0  0  0
 16 15  1  0  0  0  0
 17 31  1  0  0  0  0
 17 15  2  0  0  0  0
 18 17  1  0  0  0  0
 19 18  1  0  0  0  0
 20 18  1  0  0  0  0
 21 18  1  0  0  0  0
 21 22  1  0  0  0  0
 21 23  1  0  0  0  0
 23 26  1  0  0  0  0
 24 23  1  0  0  0  0
 25 23  1  0  0  0  0
 27 21  1  0  0  0  0
 28 27  1  0  0  0  0
 29 27  1  0  0  0  0
 30 27  1  0  0  0  0
 31  8  1  0  0  0  0
 33 32  2  0  0  0  0
 33 34  1  0  0  0  0
 35 33  1  0  0  0  0
 36 37  1  1  0  0  0
 36 35  1  0  0  0  0
 36 59  1  0  0  0  0
 38 37  2  0  0  0  0
 38 43  1  0  0  0  0
 39 41  1  0  0  0  0
 39 38  1  0  0  0  0
 40 39  1  0  0  0  0
 42 39  1  0  0  0  0
 43 45  2  0  0  0  0
 44 43  1  0  0  0  0
 45 59  1  0  0  0  0
 45 46  1  0  0  0  0
 46 49  1  0  0  0  0
 47 46  1  0  0  0  0
 48 46  1  0  0  0  0
 49 50  1  0  0  0  0
 49 55  1  0  0  0  0
 49 51  1  0  0  0  0
 51 54  1  0  0  0  0
 52 51  1  0  0  0  0
 53 51  1  0  0  0  0
 55 57  1  0  0  0  0
 56 55  1  0  0  0  0
 58 55  1  0  0  0  0
 59 32  1  0  0  0  0
M  END
$$$$
