CSD_code = ZEFMEF | q = 0 | S = 0 | Stoichiometry = C17H15Cl2N2PPd | MND = 4
 OpenBabel04212202133D

 38 41  0  0  1  0  0  0  0  0999 V2000
    7.3593    4.7521   15.3231 Pd  0  0  0  0  0  0  0  0  0  0  0  0
    9.5163    4.3636   14.9192 P   0  0  0  0  0  4  0  0  0  0  0  0
    7.6399    3.4111   16.8929 N   0  0  0  0  0  0  0  0  0  0  0  0
    9.8613    3.2848   16.1978 N   0  0  0  0  0  0  0  0  0  0  0  0
   10.7418    2.7876   16.2562 H   0  0  0  0  0  0  0  0  0  0  0  0
    8.8629    2.8777   17.0505 C   0  0  1  0  0  3  0  0  0  0  0  0
    9.1254    1.9527   18.0654 C   0  0  0  0  0  0  0  0  0  0  0  0
   10.1154    1.5334   18.1602 H   0  0  0  0  0  0  0  0  0  0  0  0
    8.1121    1.5952   18.9303 C   0  0  0  0  0  0  0  0  0  0  0  0
    8.2984    0.8836   19.7200 H   0  0  0  0  0  0  0  0  0  0  0  0
    6.8560    2.1658   18.7660 C   0  0  0  0  0  0  0  0  0  0  0  0
    6.0388    1.9161   19.4215 H   0  0  0  0  0  0  0  0  0  0  0  0
    6.6657    3.0642   17.7353 C   0  0  0  0  0  0  0  0  0  0  0  0
    5.7030    3.5283   17.5470 H   0  0  0  0  0  0  0  0  0  0  0  0
    9.6297    3.2807   13.4528 C   0  0  0  0  0  0  0  0  0  0  0  0
   10.8398    2.9010   12.8821 C   0  0  0  0  0  0  0  0  0  0  0  0
   11.7684    3.2902   13.2776 H   0  0  0  0  0  0  0  0  0  0  0  0
   10.8481    2.0389   11.8001 C   0  0  0  0  0  0  0  0  0  0  0  0
   11.7870    1.7471   11.3530 H   0  0  0  0  0  0  0  0  0  0  0  0
    9.6552    1.5553   11.2867 C   0  0  0  0  0  0  0  0  0  0  0  0
    9.6672    0.8883   10.4377 H   0  0  0  0  0  0  0  0  0  0  0  0
    8.4472    1.9299   11.8545 C   0  0  0  0  0  0  0  0  0  0  0  0
    7.5193    1.5570   11.4482 H   0  0  0  0  0  0  0  0  0  0  0  0
    8.4318    2.7898   12.9378 C   0  0  0  0  0  0  0  0  0  0  0  0
    7.4802    3.1083   13.3850 H   0  0  0  0  0  0  0  0  0  0  0  0
   11.0077    5.3777   14.8035 C   0  0  0  0  0  0  0  0  0  0  0  0
   11.9571    5.4767   15.8136 C   0  0  0  0  0  0  0  0  0  0  0  0
   11.8454    4.9047   16.7244 H   0  0  0  0  0  0  0  0  0  0  0  0
   13.0417    6.3213   15.6519 C   0  0  0  0  0  0  0  0  0  0  0  0
   13.7857    6.3941   16.4316 H   0  0  0  0  0  0  0  0  0  0  0  0
   13.1702    7.0780   14.4987 C   0  0  0  0  0  0  0  0  0  0  0  0
   14.0174    7.7369   14.3804 H   0  0  0  0  0  0  0  0  0  0  0  0
   12.2065    7.0032   13.5036 C   0  0  0  0  0  0  0  0  0  0  0  0
   12.2987    7.6084   12.6146 H   0  0  0  0  0  0  0  0  0  0  0  0
   11.1238    6.1591   13.6548 C   0  0  0  0  0  0  0  0  0  0  0  0
   10.3493    6.1002   12.9011 H   0  0  0  0  0  0  0  0  0  0  0  0
    5.1313    4.8560   15.6027 Cl  0  0  0  0  0  0  0  0  0  0  0  0
    7.2473    6.2079   13.6382 Cl  0  0  0  0  0  0  0  0  0  0  0  0
  1 37  1  0  0  0  0
  1  3  1  0  0  0  0
  2  1  1  0  0  0  0
  2  4  1  0  0  0  0
  3  6  1  0  0  0  0
  3 13  1  0  0  0  0
  4  5  1  0  0  0  0
  4  6  1  0  0  0  0
  6  7  1  1  0  0  0
  7  8  1  0  0  0  0
  7  9  2  0  0  0  0
  9 10  1  0  0  0  0
 11  9  1  0  0  0  0
 11 12  1  0  0  0  0
 13 11  2  0  0  0  0
 14 13  1  0  0  0  0
 15  2  1  0  0  0  0
 16 17  1  0  0  0  0
 16 15  2  0  0  0  0
 18 16  1  0  0  0  0
 19 18  1  0  0  0  0
 20 18  2  0  0  0  0
 20 22  1  0  0  0  0
 21 20  1  0  0  0  0
 22 24  2  0  0  0  0
 23 22  1  0  0  0  0
 24 25  1  0  0  0  0
 24 15  1  0  0  0  0
 26  2  1  0  0  0  0
 26 27  1  0  0  0  0
 27 28  1  0  0  0  0
 29 27  2  0  0  0  0
 29 30  1  0  0  0  0
 31 29  1  0  0  0  0
 32 31  1  0  0  0  0
 33 35  1  0  0  0  0
 33 31  2  0  0  0  0
 34 33  1  0  0  0  0
 35 26  2  0  0  0  0
 36 35  1  0  0  0  0
 38  1  1  0  0  0  0
M  END
$$$$
