CSD_code = ZEFPIN | q = 0 | S = 0 | Stoichiometry = C7H17ClN2O2PtS | MND = 4
 OpenBabel04212202133D

 31 31  0  0  1  0  0  0  0  0999 V2000
    0.2206    2.6190    1.7553 Pt  0  0  1  0  0  0  0  0  0  0  0  0
   -0.5680    4.2242    0.3264 Cl  0  0  0  0  0  0  0  0  0  0  0  0
    2.1496    2.7161    0.6496 S   0  0  0  0  0  0  0  0  0  0  0  0
    0.1620    0.1282    4.9618 O   0  0  0  0  0  0  0  0  0  0  0  0
    3.1890    1.7923    1.0554 O   0  0  0  0  0  1  0  0  0  0  0  0
    0.7673    1.2449    3.0763 N   0  0  0  0  0  0  0  0  0  0  0  0
   -1.5446    2.4591    2.8043 N   0  0  0  0  0  4  0  0  0  0  0  0
   -0.0324    0.9665    4.0990 C   0  0  0  0  0  0  0  0  0  0  0  0
   -1.2956    1.8796    4.1429 C   0  0  2  0  0  0  0  0  0  0  0  0
   -2.5054    1.1172    4.7034 C   0  0  0  0  0  0  0  0  0  0  0  0
   -3.6693    2.0582    5.0077 C   0  0  0  0  0  0  0  0  0  0  0  0
   -2.9448   -0.0132    3.7730 C   0  0  0  0  0  0  0  0  0  0  0  0
    1.9445    2.5536   -1.1489 C   0  0  0  0  0  0  0  0  0  0  0  0
    2.8418    4.3945    0.7114 C   0  0  0  0  0  0  0  0  0  0  0  0
    1.6198    0.6977    3.0435 H   0  0  0  0  0  0  0  0  0  0  0  0
   -2.0642    3.3379    2.8681 H   0  0  0  0  0  0  0  0  0  0  0  0
   -2.1149    1.7977    2.2656 H   0  0  0  0  0  0  0  0  0  0  0  0
   -1.0448    2.7010    4.8250 H   0  0  0  0  0  0  0  0  0  0  0  0
   -2.1536    0.6643    5.6352 H   0  0  0  0  0  0  0  0  0  0  0  0
   -3.3573    2.8590    5.6743 H   0  0  0  0  0  0  0  0  0  0  0  0
   -4.0694    2.5002    4.0961 H   0  0  0  0  0  0  0  0  0  0  0  0
   -4.4737    1.5104    5.4914 H   0  0  0  0  0  0  0  0  0  0  0  0
   -3.6639   -0.6481    4.2838 H   0  0  0  0  0  0  0  0  0  0  0  0
   -3.4265    0.3615    2.8696 H   0  0  0  0  0  0  0  0  0  0  0  0
   -2.0900   -0.6253    3.4975 H   0  0  0  0  0  0  0  0  0  0  0  0
    1.2211    3.2928   -1.4727 H   0  0  0  0  0  0  0  0  0  0  0  0
    2.9093    2.7008   -1.6200 H   0  0  0  0  0  0  0  0  0  0  0  0
    1.5801    1.5520   -1.3518 H   0  0  0  0  0  0  0  0  0  0  0  0
    3.0663    4.6205    1.7488 H   0  0  0  0  0  0  0  0  0  0  0  0
    3.7497    4.4213    0.1200 H   0  0  0  0  0  0  0  0  0  0  0  0
    2.0929    5.0779    0.3277 H   0  0  0  0  0  0  0  0  0  0  0  0
  1  2  1  1  0  0  0
  1  7  1  0  0  0  0
  1  6  1  0  0  0  0
  3 14  1  0  0  0  0
  3  5  1  0  0  0  0
  3  1  1  0  0  0  0
  6  8  1  0  0  0  0
  7 16  1  0  0  0  0
  7  9  1  0  0  0  0
  8  9  1  0  0  0  0
  8  4  2  0  0  0  0
  9 10  1  0  0  0  0
  9 18  1  1  0  0  0
 10 11  1  0  0  0  0
 10 19  1  0  0  0  0
 11 22  1  0  0  0  0
 11 20  1  0  0  0  0
 12 23  1  0  0  0  0
 12 10  1  0  0  0  0
 13  3  1  0  0  0  0
 14 29  1  0  0  0  0
 15  6  1  0  0  0  0
 17  7  1  0  0  0  0
 21 11  1  0  0  0  0
 24 12  1  0  0  0  0
 25 12  1  0  0  0  0
 26 13  1  0  0  0  0
 27 13  1  0  0  0  0
 28 13  1  0  0  0  0
 30 14  1  0  0  0  0
 31 14  1  0  0  0  0
M  END
$$$$
