CSD_code = ZEFRAD | q = 0 | S = 0 | Stoichiometry = C18H42ClIrO2P2 | MND = 6
 OpenBabel04212202133D

 66 66  0  0  0  0  0  0  0  0999 V2000
    2.6109    1.0102    3.6785 Ir  0  0  0  0  0  0  0  0  0  0  0  0
    0.7210    1.3114    5.1651 Cl  0  0  0  0  0  0  0  0  0  0  0  0
    3.4506   -0.4508    5.2902 P   0  0  0  0  0  4  0  0  0  0  0  0
    1.8389    2.6652    2.2367 P   0  0  0  0  0  4  0  0  0  0  0  0
    3.8664    2.6414    5.1987 O   0  0  0  0  0  0  0  0  0  0  0  0
    0.8715    0.0382    1.4455 O   0  0  0  0  0  0  0  0  0  0  0  0
    4.4921    0.6082    6.4216 C   0  0  0  0  0  0  0  0  0  0  0  0
    4.9404    1.8810    5.7027 C   0  0  0  0  0  0  0  0  0  0  0  0
    3.1400    3.3279    6.1982 C   0  0  0  0  0  0  0  0  0  0  0  0
    2.3398   -1.2195    6.5900 C   0  0  0  0  0  0  0  0  0  0  0  0
    3.0691   -2.1025    7.5988 C   0  0  0  0  0  0  0  0  0  0  0  0
    1.1420   -1.9492    5.9899 C   0  0  0  0  0  0  0  0  0  0  0  0
    4.7023   -1.7932    4.9021 C   0  0  0  0  0  0  0  0  0  0  0  0
    4.0666   -2.9240    4.1022 C   0  0  0  0  0  0  0  0  0  0  0  0
    5.8792   -1.2155    4.1235 C   0  0  0  0  0  0  0  0  0  0  0  0
    0.1569    2.3396    1.5250 C   0  0  0  0  0  0  0  0  0  0  0  0
   -0.2148    0.8773    1.7809 C   0  0  0  0  0  0  0  0  0  0  0  0
    1.6145   -0.4477    2.5205 C   0  0  0  0  0  0  0  0  0  0  0  0
    2.8460    2.9597    0.6928 C   0  0  0  0  0  0  0  0  0  0  0  0
    2.9922    1.6755   -0.1134 C   0  0  0  0  0  0  0  0  0  0  0  0
    4.2224    3.4952    1.0727 C   0  0  0  0  0  0  0  0  0  0  0  0
    1.6315    4.4111    2.8902 C   0  0  0  0  0  0  0  0  0  0  0  0
    1.3786    5.4703    1.8176 C   0  0  0  0  0  0  0  0  0  0  0  0
    0.5129    4.4731    3.9316 C   0  0  0  0  0  0  0  0  0  0  0  0
    3.8679    0.8369    2.8317 H   0  0  0  0  0  0  0  0  0  0  0  0
    5.3687    0.0589    6.7714 H   0  0  0  0  0  0  0  0  0  0  0  0
    3.8867    0.8800    7.2902 H   0  0  0  0  0  0  0  0  0  0  0  0
    5.5427    2.5050    6.3832 H   0  0  0  0  0  0  0  0  0  0  0  0
    5.5429    1.6280    4.8270 H   0  0  0  0  0  0  0  0  0  0  0  0
    2.5293    4.0695    5.6906 H   0  0  0  0  0  0  0  0  0  0  0  0
    2.4779    2.6639    6.7596 H   0  0  0  0  0  0  0  0  0  0  0  0
    3.8262    3.8312    6.8893 H   0  0  0  0  0  0  0  0  0  0  0  0
    1.9401   -0.3420    7.1160 H   0  0  0  0  0  0  0  0  0  0  0  0
    3.9528   -1.6133    8.0042 H   0  0  0  0  0  0  0  0  0  0  0  0
    2.3998   -2.3258    8.4288 H   0  0  0  0  0  0  0  0  0  0  0  0
    3.3648   -3.0475    7.1490 H   0  0  0  0  0  0  0  0  0  0  0  0
    0.5404   -1.2509    5.4154 H   0  0  0  0  0  0  0  0  0  0  0  0
    1.4401   -2.7698    5.3431 H   0  0  0  0  0  0  0  0  0  0  0  0
    0.5195   -2.3499    6.7892 H   0  0  0  0  0  0  0  0  0  0  0  0
    5.0719   -2.1858    5.8564 H   0  0  0  0  0  0  0  0  0  0  0  0
    3.3014   -3.4387    4.6763 H   0  0  0  0  0  0  0  0  0  0  0  0
    3.6157   -2.5284    3.1958 H   0  0  0  0  0  0  0  0  0  0  0  0
    4.8240   -3.6554    3.8220 H   0  0  0  0  0  0  0  0  0  0  0  0
    6.4429   -0.5000    4.7175 H   0  0  0  0  0  0  0  0  0  0  0  0
    6.5573   -2.0154    3.8296 H   0  0  0  0  0  0  0  0  0  0  0  0
    5.5211   -0.7188    3.2247 H   0  0  0  0  0  0  0  0  0  0  0  0
    0.1788    2.5341    0.4505 H   0  0  0  0  0  0  0  0  0  0  0  0
   -0.5817    2.9877    1.9949 H   0  0  0  0  0  0  0  0  0  0  0  0
   -0.4892    0.7430    2.8312 H   0  0  0  0  0  0  0  0  0  0  0  0
   -1.0633    0.5817    1.1521 H   0  0  0  0  0  0  0  0  0  0  0  0
    0.9515   -0.9781    3.2215 H   0  0  0  0  0  0  0  0  0  0  0  0
    2.3020   -1.1686    2.0650 H   0  0  0  0  0  0  0  0  0  0  0  0
    2.3106    3.6974    0.0840 H   0  0  0  0  0  0  0  0  0  0  0  0
    2.0250    1.2667   -0.3915 H   0  0  0  0  0  0  0  0  0  0  0  0
    3.5657    1.8672   -1.0193 H   0  0  0  0  0  0  0  0  0  0  0  0
    3.5096    0.9267    0.4800 H   0  0  0  0  0  0  0  0  0  0  0  0
    4.1614    4.4638    1.5635 H   0  0  0  0  0  0  0  0  0  0  0  0
    4.7047    2.7971    1.7536 H   0  0  0  0  0  0  0  0  0  0  0  0
    4.8452    3.6005    0.1855 H   0  0  0  0  0  0  0  0  0  0  0  0
    2.5854    4.6281    3.3866 H   0  0  0  0  0  0  0  0  0  0  0  0
    2.2447    5.6332    1.1824 H   0  0  0  0  0  0  0  0  0  0  0  0
    0.5314    5.1951    1.1920 H   0  0  0  0  0  0  0  0  0  0  0  0
    1.1421    6.4169    2.3033 H   0  0  0  0  0  0  0  0  0  0  0  0
    0.4914    3.5766    4.5476 H   0  0  0  0  0  0  0  0  0  0  0  0
    0.6442    5.3395    4.5798 H   0  0  0  0  0  0  0  0  0  0  0  0
   -0.4587    4.5713    3.4506 H   0  0  0  0  0  0  0  0  0  0  0  0
  1  2  1  0  0  0  0
  1  3  1  0  0  0  0
  3  7  1  0  0  0  0
  3 10  1  0  0  0  0
  4 22  1  0  0  0  0
  4  1  1  0  0  0  0
  5  8  1  0  0  0  0
  5  9  1  0  0  0  0
  6 17  1  0  0  0  0
  6 18  1  0  0  0  0
  7 26  1  0  0  0  0
  7 27  1  0  0  0  0
  8 28  1  0  0  0  0
  8  7  1  0  0  0  0
  9 31  1  0  0  0  0
  9 32  1  0  0  0  0
 10 33  1  0  0  0  0
 10 11  1  0  0  0  0
 11 34  1  0  0  0  0
 11 35  1  0  0  0  0
 12 10  1  0  0  0  0
 12 39  1  0  0  0  0
 13  3  1  0  0  0  0
 13 40  1  0  0  0  0
 14 41  1  0  0  0  0
 14 13  1  0  0  0  0
 15 44  1  0  0  0  0
 15 13  1  0  0  0  0
 16 17  1  0  0  0  0
 16 48  1  0  0  0  0
 16  4  1  0  0  0  0
 17 49  1  0  0  0  0
 18 51  1  0  0  0  0
 18  1  1  0  0  0  0
 19 21  1  0  0  0  0
 19  4  1  0  0  0  0
 20 56  1  0  0  0  0
 20 19  1  0  0  0  0
 21 57  1  0  0  0  0
 21 58  1  0  0  0  0
 22 60  1  0  0  0  0
 22 24  1  0  0  0  0
 23 63  1  0  0  0  0
 23 22  1  0  0  0  0
 24 64  1  0  0  0  0
 24 65  1  0  0  0  0
 25  1  1  0  0  0  0
 29  8  1  0  0  0  0
 30  9  1  0  0  0  0
 36 11  1  0  0  0  0
 37 12  1  0  0  0  0
 38 12  1  0  0  0  0
 42 14  1  0  0  0  0
 43 14  1  0  0  0  0
 45 15  1  0  0  0  0
 46 15  1  0  0  0  0
 47 16  1  0  0  0  0
 50 17  1  0  0  0  0
 52 18  1  0  0  0  0
 53 19  1  0  0  0  0
 54 20  1  0  0  0  0
 55 20  1  0  0  0  0
 59 21  1  0  0  0  0
 61 23  1  0  0  0  0
 62 23  1  0  0  0  0
 66 24  1  0  0  0  0
M  END
$$$$
