CSD_code = ZEFTOT | q = 0 | S = 0 | Stoichiometry = C20H24Cl2Ti | MND = 12
 OpenBabel04212202133D

 47 51  0  0  1  0  0  0  0  0999 V2000
   12.4804    2.7764    4.9129 Ti  0  0  0  0  0  0  0  0  0  0  0  0
   12.4698    0.5638    5.0827 Cl  0  0  0  0  0  0  0  0  0  0  0  0
   11.8190    3.0035    7.0178 Cl  0  0  0  0  0  0  0  0  0  0  0  0
   10.4594    2.1692    3.6825 C   0  0  0  0  0  0  0  0  0  0  0  0
   11.4500    2.7371    2.8412 C   0  0  1  0  0  0  0  0  0  0  0  0
   11.6118    4.0962    3.2152 C   0  0  0  0  0  0  0  0  0  0  0  0
   10.8153    4.3252    4.3586 C   0  0  0  0  0  0  0  0  0  0  0  0
   10.0685    3.1452    4.6200 C   0  0  0  0  0  0  0  0  0  0  0  0
    8.9399    2.9539    5.5879 C   0  0  0  0  0  0  0  0  0  0  0  0
    8.0771    1.7666    5.1525 C   0  0  0  0  0  0  0  0  0  0  0  0
    8.9586    0.5659    4.8128 C   0  0  0  0  0  0  0  0  0  0  0  0
    9.7676    0.8484    3.5462 C   0  0  0  0  0  0  0  0  0  0  0  0
   14.8245    2.3571    5.3528 C   0  0  0  0  0  0  0  0  0  0  0  0
   14.5735    2.5380    3.9656 C   0  0  2  0  0  0  0  0  0  0  0  0
   14.1740    3.8787    3.7681 C   0  0  0  0  0  0  0  0  0  0  0  0
   14.0790    4.4939    5.0420 C   0  0  0  0  0  0  0  0  0  0  0  0
   14.5412    3.5709    6.0120 C   0  0  0  0  0  0  0  0  0  0  0  0
   14.8497    3.8249    7.4570 C   0  0  0  0  0  0  0  0  0  0  0  0
   15.7254    2.7003    8.0185 C   0  0  0  0  0  0  0  0  0  0  0  0
   15.2135    1.3366    7.5559 C   0  0  0  0  0  0  0  0  0  0  0  0
   15.4370    1.1839    6.0510 C   0  0  0  0  0  0  0  0  0  0  0  0
   12.4663    5.0990    2.4975 C   0  0  0  0  0  0  0  0  0  0  0  0
   13.9025    4.5540    2.4563 C   0  0  0  0  0  0  0  0  0  0  0  0
   11.8497    2.2710    1.9481 H   0  0  0  0  0  0  0  0  0  0  0  0
   10.6636    5.2824    4.8448 H   0  0  0  0  0  0  0  0  0  0  0  0
    8.3408    3.8682    5.6394 H   0  0  0  0  0  0  0  0  0  0  0  0
    9.3304    2.7649    6.5940 H   0  0  0  0  0  0  0  0  0  0  0  0
    7.4911    2.0420    4.2717 H   0  0  0  0  0  0  0  0  0  0  0  0
    7.3818    1.5095    5.9532 H   0  0  0  0  0  0  0  0  0  0  0  0
    9.6480    0.3770    5.6408 H   0  0  0  0  0  0  0  0  0  0  0  0
    8.3450   -0.3248    4.6674 H   0  0  0  0  0  0  0  0  0  0  0  0
   10.4854    0.0446    3.3634 H   0  0  0  0  0  0  0  0  0  0  0  0
    9.0944    0.8971    2.6809 H   0  0  0  0  0  0  0  0  0  0  0  0
   14.8125    1.8226    3.1865 H   0  0  0  0  0  0  0  0  0  0  0  0
   13.8846    5.5440    5.2250 H   0  0  0  0  0  0  0  0  0  0  0  0
   13.9231    3.8852    8.0373 H   0  0  0  0  0  0  0  0  0  0  0  0
   15.3577    4.7896    7.5550 H   0  0  0  0  0  0  0  0  0  0  0  0
   16.7545    2.8284    7.6724 H   0  0  0  0  0  0  0  0  0  0  0  0
   15.7284    2.7531    9.1083 H   0  0  0  0  0  0  0  0  0  0  0  0
   15.7291    0.5380    8.0917 H   0  0  0  0  0  0  0  0  0  0  0  0
   14.1422    1.2579    7.7663 H   0  0  0  0  0  0  0  0  0  0  0  0
   16.5128    1.1637    5.8358 H   0  0  0  0  0  0  0  0  0  0  0  0
   15.0093    0.2451    5.6892 H   0  0  0  0  0  0  0  0  0  0  0  0
   12.4388    6.0523    3.0317 H   0  0  0  0  0  0  0  0  0  0  0  0
   12.0878    5.2686    1.4848 H   0  0  0  0  0  0  0  0  0  0  0  0
   14.0099    3.8314    1.6431 H   0  0  0  0  0  0  0  0  0  0  0  0
   14.6187    5.3636    2.2859 H   0  0  0  0  0  0  0  0  0  0  0  0
  1  2  1  0  0  0  0
  1  3  1  0  0  0  0
  4  8  2  0  0  0  0
  5 24  1  6  0  0  0
  5  6  1  0  0  0  0
  5  4  1  0  0  0  0
  5  1  1  0  0  0  0
  6  7  2  0  0  0  0
  7  8  1  0  0  0  0
  7 25  1  0  0  0  0
  8  9  1  0  0  0  0
  9 26  1  0  0  0  0
  9 27  1  0  0  0  0
 10  9  1  0  0  0  0
 10 29  1  0  0  0  0
 11 10  1  0  0  0  0
 11 30  1  0  0  0  0
 12  4  1  0  0  0  0
 12 11  1  0  0  0  0
 13 17  2  0  0  0  0
 13 21  1  0  0  0  0
 14 34  1  6  0  0  0
 14  1  1  0  0  0  0
 14 13  1  0  0  0  0
 15 14  1  0  0  0  0
 15 16  2  0  0  0  0
 16 35  1  0  0  0  0
 16 17  1  0  0  0  0
 17 18  1  0  0  0  0
 18 37  1  0  0  0  0
 18 19  1  0  0  0  0
 18 36  1  0  0  0  0
 19 39  1  0  0  0  0
 20 41  1  0  0  0  0
 20 19  1  0  0  0  0
 20 40  1  0  0  0  0
 21 20  1  0  0  0  0
 22 44  1  0  0  0  0
 22  6  1  0  0  0  0
 23 22  1  0  0  0  0
 23 15  1  0  0  0  0
 28 10  1  0  0  0  0
 31 11  1  0  0  0  0
 32 12  1  0  0  0  0
 33 12  1  0  0  0  0
 38 19  1  0  0  0  0
 42 21  1  0  0  0  0
 43 21  1  0  0  0  0
 45 22  1  0  0  0  0
 46 23  1  0  0  0  0
 47 23  1  0  0  0  0
M  END
$$$$
