CSD_code = ZEHBUL | q = 0 | S = 0 | Stoichiometry = C30H33Cl2N2PPd | MND = 4
 OpenBabel04212202133D

 69 73  0  0  1  0  0  0  0  0999 V2000
   -5.2545   -8.9795   20.2859 Pd  0  0  0  0  0  0  0  0  0  0  0  0
   -3.8710  -10.8045   21.7138 P   0  0  0  0  0  4  0  0  0  0  0  0
   -4.4168   -9.3660   22.1511 N   0  0  0  0  0  0  0  0  0  0  0  0
   -6.8063  -10.4458   20.5144 N   0  0  0  0  0  4  0  0  0  0  0  0
   -7.1714  -10.2334   19.5751 H   0  0  0  0  0  0  0  0  0  0  0  0
   -3.9834   -7.1285   20.0101 Cl  0  0  0  0  0  0  0  0  0  0  0  0
   -6.0828   -8.7596   18.1846 Cl  0  0  0  0  0  0  0  0  0  0  0  0
   -5.2945  -11.9791   21.6612 C   0  0  0  0  0  0  0  0  0  0  0  0
   -4.8780  -12.9904   21.6504 H   0  0  0  0  0  0  0  0  0  0  0  0
   -5.7863  -11.8378   22.6303 H   0  0  0  0  0  0  0  0  0  0  0  0
   -6.3101  -11.8151   20.5274 C   0  0  2  0  0  0  0  0  0  0  0  0
   -7.1379  -12.5217   20.7232 H   0  0  0  0  0  0  0  0  0  0  0  0
   -7.8594  -10.1434   21.5001 C   0  0  2  0  0  0  0  0  0  0  0  0
   -7.7415  -10.8281   22.3491 H   0  0  0  0  0  0  0  0  0  0  0  0
   -9.2446  -10.3540   20.8809 C   0  0  0  0  0  0  0  0  0  0  0  0
   -9.3571  -11.3772   20.5265 H   0  0  0  0  0  0  0  0  0  0  0  0
   -9.3865   -9.6756   20.0425 H   0  0  0  0  0  0  0  0  0  0  0  0
  -10.0194  -10.1565   21.6176 H   0  0  0  0  0  0  0  0  0  0  0  0
   -5.7176  -12.1294   19.1576 C   0  0  0  0  0  0  0  0  0  0  0  0
   -6.5095  -12.1834   18.4130 H   0  0  0  0  0  0  0  0  0  0  0  0
   -5.1838  -13.0762   19.1651 H   0  0  0  0  0  0  0  0  0  0  0  0
   -5.0312  -11.3310   18.8559 H   0  0  0  0  0  0  0  0  0  0  0  0
   -2.9426  -11.5124   23.1220 C   0  0  0  0  0  0  0  0  0  0  0  0
   -3.5435  -11.3504   24.3660 C   0  0  0  0  0  0  0  0  0  0  0  0
   -4.4964  -10.8411   24.4277 H   0  0  0  0  0  0  0  0  0  0  0  0
   -2.9168  -11.8064   25.5098 C   0  0  0  0  0  0  0  0  0  0  0  0
   -3.3881  -11.6764   26.4727 H   0  0  0  0  0  0  0  0  0  0  0  0
   -1.6790  -12.4226   25.4182 C   0  0  0  0  0  0  0  0  0  0  0  0
   -1.1856  -12.7791   26.3100 H   0  0  0  0  0  0  0  0  0  0  0  0
   -1.0675  -12.5669   24.1843 C   0  0  0  0  0  0  0  0  0  0  0  0
   -0.0952  -13.0320   24.1138 H   0  0  0  0  0  0  0  0  0  0  0  0
   -1.6924  -12.1092   23.0371 C   0  0  0  0  0  0  0  0  0  0  0  0
   -1.1994  -12.2078   22.0805 H   0  0  0  0  0  0  0  0  0  0  0  0
   -2.8385  -11.1393   20.2309 C   0  0  0  0  0  0  0  0  0  0  0  0
   -2.4133  -10.0994   19.4085 C   0  0  0  0  0  0  0  0  0  0  0  0
   -2.6507   -9.0655   19.6527 H   0  0  0  0  0  0  0  0  0  0  0  0
   -1.6719  -10.3848   18.2728 C   0  0  0  0  0  0  0  0  0  0  0  0
   -1.3519   -9.5768   17.6332 H   0  0  0  0  0  0  0  0  0  0  0  0
   -1.3499  -11.6946   17.9587 C   0  0  0  0  0  0  0  0  0  0  0  0
   -0.7791  -11.9139   17.0687 H   0  0  0  0  0  0  0  0  0  0  0  0
   -1.7570  -12.7284   18.7883 C   0  0  0  0  0  0  0  0  0  0  0  0
   -1.4985  -13.7499   18.5492 H   0  0  0  0  0  0  0  0  0  0  0  0
   -2.5002  -12.4556   19.9214 C   0  0  0  0  0  0  0  0  0  0  0  0
   -2.8199  -13.2639   20.5658 H   0  0  0  0  0  0  0  0  0  0  0  0
   -3.5761   -8.3985   22.7168 C   0  0  0  0  0  0  0  0  0  0  0  0
   -2.1896   -8.5062   22.7293 C   0  0  0  0  0  0  0  0  0  0  0  0
   -1.7229   -9.3454   22.2208 H   0  0  0  0  0  0  0  0  0  0  0  0
   -1.4146   -7.5427   23.3416 C   0  0  0  0  0  0  0  0  0  0  0  0
   -0.3383   -7.6431   23.3342 H   0  0  0  0  0  0  0  0  0  0  0  0
   -1.9978   -6.4399   23.9523 C   0  0  0  0  0  0  0  0  0  0  0  0
   -3.3822   -6.3276   23.9225 C   0  0  0  0  0  0  0  0  0  0  0  0
   -3.8578   -5.4689   24.3749 H   0  0  0  0  0  0  0  0  0  0  0  0
   -4.1650   -7.2897   23.3186 C   0  0  0  0  0  0  0  0  0  0  0  0
   -5.2389   -7.1886   23.2824 H   0  0  0  0  0  0  0  0  0  0  0  0
   -1.1444   -5.3871   24.5936 C   0  0  0  0  0  0  0  0  0  0  0  0
   -1.7453   -4.7220   25.2091 H   0  0  0  0  0  0  0  0  0  0  0  0
   -0.6489   -4.7897   23.8278 H   0  0  0  0  0  0  0  0  0  0  0  0
   -0.3730   -5.8409   25.2141 H   0  0  0  0  0  0  0  0  0  0  0  0
   -7.7322   -8.7248   22.0221 C   0  0  0  0  0  0  0  0  0  0  0  0
   -7.7694   -8.4821   23.3890 C   0  0  0  0  0  0  0  0  0  0  0  0
   -7.8474   -9.3113   24.0794 H   0  0  0  0  0  0  0  0  0  0  0  0
   -7.7132   -7.1874   23.8789 C   0  0  0  0  0  0  0  0  0  0  0  0
   -7.7473   -7.0156   24.9449 H   0  0  0  0  0  0  0  0  0  0  0  0
   -7.6002   -6.1195   23.0048 C   0  0  0  0  0  0  0  0  0  0  0  0
   -7.5435   -5.1112   23.3872 H   0  0  0  0  0  0  0  0  0  0  0  0
   -7.5624   -6.3479   21.6386 C   0  0  0  0  0  0  0  0  0  0  0  0
   -7.4846   -5.5179   20.9525 H   0  0  0  0  0  0  0  0  0  0  0  0
   -7.6393   -7.6413   21.1406 C   0  0  0  0  0  0  0  0  0  0  0  0
   -7.7074   -7.7865   20.0647 H   0  0  0  0  0  0  0  0  0  0  0  0
  1  4  1  0  0  0  0
  1  3  1  0  0  0  0
  2  3  1  0  0  0  0
  2 23  1  0  0  0  0
  3 45  1  0  0  0  0
  4 11  1  0  0  0  0
  4 13  1  0  0  0  0
  5  4  1  0  0  0  0
  6  1  1  0  0  0  0
  7  1  1  0  0  0  0
  8  2  1  0  0  0  0
  8 10  1  0  0  0  0
  9  8  1  0  0  0  0
 11 12  1  1  0  0  0
 11  8  1  0  0  0  0
 13 59  1  0  0  0  0
 13 14  1  1  0  0  0
 15 13  1  0  0  0  0
 15 18  1  0  0  0  0
 16 15  1  0  0  0  0
 17 15  1  0  0  0  0
 19 21  1  0  0  0  0
 19 11  1  0  0  0  0
 20 19  1  0  0  0  0
 22 19  1  0  0  0  0
 23 24  1  0  0  0  0
 24 25  1  0  0  0  0
 24 26  2  0  0  0  0
 26 27  1  0  0  0  0
 28 26  1  0  0  0  0
 28 29  1  0  0  0  0
 30 28  2  0  0  0  0
 31 30  1  0  0  0  0
 32 23  2  0  0  0  0
 32 30  1  0  0  0  0
 33 32  1  0  0  0  0
 34  2  1  0  0  0  0
 35 36  1  0  0  0  0
 35 34  2  0  0  0  0
 37 35  1  0  0  0  0
 38 37  1  0  0  0  0
 39 37  2  0  0  0  0
 39 41  1  0  0  0  0
 40 39  1  0  0  0  0
 41 43  2  0  0  0  0
 42 41  1  0  0  0  0
 43 34  1  0  0  0  0
 43 44  1  0  0  0  0
 45 46  2  0  0  0  0
 45 53  1  0  0  0  0
 46 48  1  0  0  0  0
 47 46  1  0  0  0  0
 48 50  2  0  0  0  0
 49 48  1  0  0  0  0
 50 55  1  0  0  0  0
 51 50  1  0  0  0  0
 51 52  1  0  0  0  0
 53 51  2  0  0  0  0
 54 53  1  0  0  0  0
 55 56  1  0  0  0  0
 55 58  1  0  0  0  0
 57 55  1  0  0  0  0
 59 60  1  0  0  0  0
 60 62  2  0  0  0  0
 60 61  1  0  0  0  0
 62 63  1  0  0  0  0
 64 65  1  0  0  0  0
 64 62  1  0  0  0  0
 66 64  2  0  0  0  0
 67 66  1  0  0  0  0
 68 66  1  0  0  0  0
 68 59  2  0  0  0  0
 69 68  1  0  0  0  0
M  END
$$$$
