CSD_code = ZEHGEA | q = 0 | S = 0 | Stoichiometry = C18H12Cl2FeN4O | MND = 5
 OpenBabel04212202133D

 38 43  0  0  1  0  0  0  0  0999 V2000
    4.9634   14.1974    1.4325 Fe  0  0  0  0  0  0  0  0  0  0  0  0
    6.9053   11.5684   -0.6969 N   0  0  0  0  0  0  0  0  0  0  0  0
    6.3914   14.7884    2.8598 Cl  0  0  0  0  0  0  0  0  0  0  0  0
    5.6444   12.7106    0.7390 N   0  0  0  0  0  0  0  0  0  0  0  0
    3.2224   14.5346    0.3006 Cl  0  0  0  0  0  0  0  0  0  0  0  0
    6.0382   15.0275    0.0181 N   0  0  0  0  0  0  0  0  0  0  0  0
    4.5905    9.6749    2.3359 O   0  0  0  0  0  0  0  0  0  0  0  0
    6.7350   14.1486   -0.7547 C   0  0  0  0  0  0  0  0  0  0  0  0
    6.4920   12.8145   -0.3162 C   0  0  0  0  0  0  0  0  0  0  0  0
    6.2939   10.6531    0.1481 C   0  0  0  0  0  0  0  0  0  0  0  0
    5.5030   11.3941    1.0460 C   0  0  0  0  0  0  0  0  0  0  0  0
    3.9906   13.1875    2.7383 N   0  0  0  0  0  0  0  0  0  0  0  0
    7.5408   14.6055   -1.8039 C   0  0  0  0  0  0  0  0  0  0  0  0
    8.0916   13.9119   -2.4166 H   0  0  0  0  0  0  0  0  0  0  0  0
    4.6806   10.8806    2.1096 C   0  0  0  0  0  0  0  0  0  0  0  0
    3.9305   11.8593    2.9432 C   0  0  1  0  0  3  0  0  0  0  0  0
    3.1480   11.3188    3.9681 C   0  0  0  0  0  0  0  0  0  0  0  0
    3.1467   10.2449    4.0747 H   0  0  0  0  0  0  0  0  0  0  0  0
    7.7403   11.1478   -1.6777 C   0  0  0  0  0  0  0  0  0  0  0  0
    8.1907   11.8963   -2.3057 H   0  0  0  0  0  0  0  0  0  0  0  0
    7.6237   15.9590   -2.0495 C   0  0  0  0  0  0  0  0  0  0  0  0
    8.2397   16.3279   -2.8551 H   0  0  0  0  0  0  0  0  0  0  0  0
    6.5318    9.2852   -0.0033 C   0  0  0  0  0  0  0  0  0  0  0  0
    6.0353    8.6116    0.6752 H   0  0  0  0  0  0  0  0  0  0  0  0
    6.1294   16.3257   -0.2309 C   0  0  0  0  0  0  0  0  0  0  0  0
    5.5515   16.9690    0.4201 H   0  0  0  0  0  0  0  0  0  0  0  0
    6.9051   16.8428   -1.2491 C   0  0  0  0  0  0  0  0  0  0  0  0
    6.9481   17.9064   -1.4147 H   0  0  0  0  0  0  0  0  0  0  0  0
    2.4870   13.5146    4.5750 C   0  0  0  0  0  0  0  0  0  0  0  0
    1.9382   14.2101    5.1894 H   0  0  0  0  0  0  0  0  0  0  0  0
    7.9848    9.8139   -1.8400 C   0  0  0  0  0  0  0  0  0  0  0  0
    8.6513    9.4942   -2.6242 H   0  0  0  0  0  0  0  0  0  0  0  0
    3.2771   13.9777    3.5470 C   0  0  0  0  0  0  0  0  0  0  0  0
    3.3539   15.0447    3.3464 H   0  0  0  0  0  0  0  0  0  0  0  0
    2.4178   12.1419    4.7955 C   0  0  0  0  0  0  0  0  0  0  0  0
    1.8108   11.7373    5.5902 H   0  0  0  0  0  0  0  0  0  0  0  0
    7.3777    8.8657   -0.9980 C   0  0  0  0  0  0  0  0  0  0  0  0
    7.5818    7.8170   -1.1402 H   0  0  0  0  0  0  0  0  0  0  0  0
  1 12  1  0  0  0  0
  1  3  1  0  0  0  0
  2  9  1  0  0  0  0
  2 10  1  0  0  0  0
  4 11  1  0  0  0  0
  4  1  1  0  0  0  0
  5  1  1  0  0  0  0
  6  1  1  0  0  0  0
  8  9  2  0  0  0  0
  8  6  1  0  0  0  0
  9  4  1  0  0  0  0
 10 11  2  0  0  0  0
 11 15  1  0  0  0  0
 12 16  1  0  0  0  0
 12 33  1  0  0  0  0
 13  8  1  0  0  0  0
 14 13  1  0  0  0  0
 15  7  2  0  0  0  0
 16 15  1  1  0  0  0
 16 17  1  0  0  0  0
 17 18  1  0  0  0  0
 17 35  2  0  0  0  0
 19  2  1  0  0  0  0
 20 19  1  0  0  0  0
 21 13  2  0  0  0  0
 21 27  1  0  0  0  0
 22 21  1  0  0  0  0
 23 10  1  0  0  0  0
 23 24  1  0  0  0  0
 25  6  1  0  0  0  0
 25 26  1  0  0  0  0
 27 25  2  0  0  0  0
 28 27  1  0  0  0  0
 29 35  1  0  0  0  0
 29 30  1  0  0  0  0
 31 19  2  0  0  0  0
 31 37  1  0  0  0  0
 32 31  1  0  0  0  0
 33 29  2  0  0  0  0
 34 33  1  0  0  0  0
 35 36  1  0  0  0  0
 37 23  2  0  0  0  0
 38 37  1  0  0  0  0
M  END
$$$$
