CSD_code = ZEHLIJ | q = 1 | S = 0 | Stoichiometry = C18H37ClNO2P2Ru(1+) | MND = 6
 OpenBabel04212202133D

 62 63  0  0  0  0  0  0  0  0999 V2000
   15.1535    6.1924   14.1642 C   0  0  0  0  0  0  0  0  0  0  0  0
   16.1139    6.0389   14.6709 H   0  0  0  0  0  0  0  0  0  0  0  0
   14.8320    4.9748   13.2987 C   0  0  0  0  0  0  0  0  0  0  0  0
   15.6097    4.8304   12.5522 H   0  0  0  0  0  0  0  0  0  0  0  0
   13.8828    5.1081   12.7815 H   0  0  0  0  0  0  0  0  0  0  0  0
   14.7553    4.0684   13.8940 H   0  0  0  0  0  0  0  0  0  0  0  0
   15.2499    7.4540   13.3108 C   0  0  0  0  0  0  0  0  0  0  0  0
   14.3043    7.6775   12.8222 H   0  0  0  0  0  0  0  0  0  0  0  0
   15.9901    7.2934   12.5296 H   0  0  0  0  0  0  0  0  0  0  0  0
   15.5652    8.3192   13.8898 H   0  0  0  0  0  0  0  0  0  0  0  0
   14.5237    5.2788   16.9147 C   0  0  0  0  0  0  0  0  0  0  0  0
   13.8281    5.5159   17.7350 H   0  0  0  0  0  0  0  0  0  0  0  0
   15.9347    5.6543   17.3609 C   0  0  0  0  0  0  0  0  0  0  0  0
   16.6775    5.3537   16.6266 H   0  0  0  0  0  0  0  0  0  0  0  0
   16.1613    5.1272   18.2853 H   0  0  0  0  0  0  0  0  0  0  0  0
   16.0370    6.7209   17.5487 H   0  0  0  0  0  0  0  0  0  0  0  0
   14.4214    3.7850   16.6092 C   0  0  0  0  0  0  0  0  0  0  0  0
   14.4635    3.2136   17.5338 H   0  0  0  0  0  0  0  0  0  0  0  0
   15.2489    3.4620   15.9824 H   0  0  0  0  0  0  0  0  0  0  0  0
   13.4863    3.5452   16.1015 H   0  0  0  0  0  0  0  0  0  0  0  0
    7.9614    5.8120   15.7166 C   0  0  0  0  0  0  0  0  0  0  0  0
    6.9961    6.1437   15.3181 H   0  0  0  0  0  0  0  0  0  0  0  0
    8.0194    6.1419   17.2068 C   0  0  0  0  0  0  0  0  0  0  0  0
    9.0422    6.1168   17.5828 H   0  0  0  0  0  0  0  0  0  0  0  0
    7.4475    5.4004   17.7602 H   0  0  0  0  0  0  0  0  0  0  0  0
    7.5861    7.1161   17.4225 H   0  0  0  0  0  0  0  0  0  0  0  0
    8.1271    4.3121   15.4746 C   0  0  0  0  0  0  0  0  0  0  0  0
    7.3432    3.7593   15.9873 H   0  0  0  0  0  0  0  0  0  0  0  0
    9.0907    3.9641   15.8442 H   0  0  0  0  0  0  0  0  0  0  0  0
    8.0749    4.0740   14.4150 H   0  0  0  0  0  0  0  0  0  0  0  0
    8.6517    6.8107   12.9986 C   0  0  0  0  0  0  0  0  0  0  0  0
    9.2602    7.6290   12.5820 H   0  0  0  0  0  0  0  0  0  0  0  0
    7.1796    7.1987   12.8861 C   0  0  0  0  0  0  0  0  0  0  0  0
    6.5337    6.3659   13.1521 H   0  0  0  0  0  0  0  0  0  0  0  0
    6.9628    7.4637   11.8534 H   0  0  0  0  0  0  0  0  0  0  0  0
    6.9248    8.0532   13.5106 H   0  0  0  0  0  0  0  0  0  0  0  0
    8.9412    5.5336   12.2067 C   0  0  0  0  0  0  0  0  0  0  0  0
    9.0152    5.7593   11.1454 H   0  0  0  0  0  0  0  0  0  0  0  0
    8.1401    4.8101   12.3341 H   0  0  0  0  0  0  0  0  0  0  0  0
    9.8730    5.0627   12.5244 H   0  0  0  0  0  0  0  0  0  0  0  0
   11.8332    6.7449   13.2550 C   0  0  0  0  0  2  0  0  0  0  0  0
   11.3179    5.3697   16.6824 C   0  0  0  0  0  2  0  0  0  0  0  0
   11.9367    6.9095   12.1336 O   0  0  0  0  0  1  0  0  0  0  0  0
   11.2346    4.6264   17.5378 O   0  0  0  0  0  1  0  0  0  0  0  0
   11.5381    3.9848   14.3097 Cl  0  0  0  0  0  0  0  0  0  0  0  0
   12.9534    8.9277   15.5942 C   0  0  0  0  0  0  0  0  0  0  0  0
   12.9887    9.9228   16.0592 H   0  0  0  0  0  0  0  0  0  0  0  0
   13.1466    9.0440   14.5229 H   0  0  0  0  0  0  0  0  0  0  0  0
   14.0073    8.0198   16.2213 C   0  0  0  0  0  0  0  0  0  0  0  0
   13.8296    7.9380   17.2996 H   0  0  0  0  0  0  0  0  0  0  0  0
   15.0056    8.4336   16.0715 H   0  0  0  0  0  0  0  0  0  0  0  0
   10.5581    9.1249   15.1110 C   0  0  0  0  0  0  0  0  0  0  0  0
   10.7832    9.1899   14.0403 H   0  0  0  0  0  0  0  0  0  0  0  0
   10.5397   10.1459   15.5173 H   0  0  0  0  0  0  0  0  0  0  0  0
    9.2047    8.4541   15.3284 C   0  0  0  0  0  0  0  0  0  0  0  0
    8.4226    9.0020   14.8001 H   0  0  0  0  0  0  0  0  0  0  0  0
    8.9650    8.4596   16.3942 H   0  0  0  0  0  0  0  0  0  0  0  0
   11.6181    8.3370   15.7528 N   0  0  0  0  0  4  0  0  0  0  0  0
   11.4114    8.3073   16.7567 H   0  0  0  0  0  0  0  0  0  0  0  0
   13.8770    6.3050   15.5059 P   0  0  0  0  0  4  0  0  0  0  0  0
    9.2780    6.6850   14.7466 P   0  0  0  0  0  4  0  0  0  0  0  0
   11.5735    6.2591   15.0428 Ru  0  0  0  0  0  0  0  0  0  0  0  0
  1  2  1  0  0  0  0
  1 60  1  0  0  0  0
  3  6  1  0  0  0  0
  3  1  1  0  0  0  0
  4  3  1  0  0  0  0
  5  3  1  0  0  0  0
  7 10  1  0  0  0  0
  7  1  1  0  0  0  0
  8  7  1  0  0  0  0
  9  7  1  0  0  0  0
 11 13  1  0  0  0  0
 11 12  1  0  0  0  0
 13 16  1  0  0  0  0
 13 15  1  0  0  0  0
 14 13  1  0  0  0  0
 17 11  1  0  0  0  0
 17 18  1  0  0  0  0
 19 17  1  0  0  0  0
 20 17  1  0  0  0  0
 21 23  1  0  0  0  0
 22 21  1  0  0  0  0
 23 26  1  0  0  0  0
 23 24  1  0  0  0  0
 23 25  1  0  0  0  0
 27 21  1  0  0  0  0
 27 29  1  0  0  0  0
 27 28  1  0  0  0  0
 30 27  1  0  0  0  0
 31 61  1  0  0  0  0
 32 31  1  0  0  0  0
 33 31  1  0  0  0  0
 33 34  1  0  0  0  0
 33 36  1  0  0  0  0
 35 33  1  0  0  0  0
 37 39  1  0  0  0  0
 37 40  1  0  0  0  0
 37 31  1  0  0  0  0
 38 37  1  0  0  0  0
 41 62  1  0  0  0  0
 42 44  1  0  0  0  0
 43 41  1  0  0  0  0
 45 62  1  0  0  0  0
 46 58  1  0  0  0  0
 46 47  1  0  0  0  0
 46 49  1  0  0  0  0
 48 46  1  0  0  0  0
 49 50  1  0  0  0  0
 51 49  1  0  0  0  0
 52 55  1  0  0  0  0
 52 54  1  0  0  0  0
 52 58  1  0  0  0  0
 53 52  1  0  0  0  0
 55 57  1  0  0  0  0
 56 55  1  0  0  0  0
 58 59  1  0  0  0  0
 60 49  1  0  0  0  0
 60 11  1  0  0  0  0
 61 62  1  0  0  0  0
 61 55  1  0  0  0  0
 61 21  1  0  0  0  0
 62 60  1  0  0  0  0
 62 58  1  0  0  0  0
 62 42  1  0  0  0  0
M  END
$$$$
