CSD_code = ZEHNIM | q = 1 | S = 0 | Stoichiometry = C26H23ClN7Ru(1+) | MND = 6
 OpenBabel04212202133D

 58 64  0  0  1  0  0  0  0  0999 V2000
   10.1764    4.3486    4.0434 Ru  0  0  0  0  0  0  0  0  0  0  0  0
   12.3115    3.9826    4.9579 Cl  0  0  0  0  0  0  0  0  0  0  0  0
    8.4637    0.4861    3.2142 N   0  0  0  0  0  0  0  0  0  0  0  0
    8.4818    4.6499    3.1999 N   0  0  0  0  0  2  0  0  0  0  0  0
   11.0774    5.7859    2.8195 N   0  0  0  0  0  0  0  0  0  0  0  0
    9.7594    5.6686    6.5197 C   0  0  0  0  0  0  0  0  0  0  0  0
   10.1011    5.8328    5.2451 N   0  0  0  0  0  0  0  0  0  0  0  0
    9.3518    4.3612    6.7504 N   0  0  0  0  0  0  0  0  0  0  0  0
    8.8140    2.4095    7.5599 C   0  0  0  0  0  0  0  0  0  0  0  0
    8.5253    1.5725    8.1623 H   0  0  0  0  0  0  0  0  0  0  0  0
   10.5104    2.7872    2.9241 N   0  0  0  0  0  2  0  0  0  0  0  0
   12.0604    9.1907    3.9143 C   0  0  0  0  0  0  0  0  0  0  0  0
   12.5864   10.0528    3.5329 H   0  0  0  0  0  0  0  0  0  0  0  0
   10.7054    6.9598    4.8488 C   0  0  0  0  0  0  0  0  0  0  0  0
   11.9335    8.0589    3.0546 C   0  0  0  0  0  0  0  0  0  0  0  0
   10.9895    1.8266    2.5072 C   0  0  0  0  0  2  0  0  0  0  0  0
   11.6217    5.7332    1.6194 C   0  0  0  0  0  0  0  0  0  0  0  0
   11.4983    4.8066    1.0722 H   0  0  0  0  0  0  0  0  0  0  0  0
    9.0825    1.0626    5.4672 C   0  0  0  0  0  0  0  0  0  0  0  0
    8.7820    0.2465    6.1307 H   0  0  0  0  0  0  0  0  0  0  0  0
   10.0799    0.8430    5.0750 H   0  0  0  0  0  0  0  0  0  0  0  0
    6.4395    1.1746    2.1756 C   0  0  0  0  0  0  0  0  0  0  0  0
    5.7946    1.1481    1.3107 H   0  0  0  0  0  0  0  0  0  0  0  0
    6.9267    1.8592    4.4084 C   0  0  0  0  0  0  0  0  0  0  0  0
    6.6613    2.3745    5.3183 H   0  0  0  0  0  0  0  0  0  0  0  0
   12.3286    6.8011    1.0582 C   0  0  0  0  0  0  0  0  0  0  0  0
   12.7513    6.6910    0.0723 H   0  0  0  0  0  0  0  0  0  0  0  0
    9.4466    3.4723    5.7089 C   0  0  2  0  0  3  0  0  0  0  0  0
   11.2315    6.9313    3.5271 C   0  0  0  0  0  0  0  0  0  0  0  0
   10.8931    8.0568    5.7091 C   0  0  0  0  0  0  0  0  0  0  0  0
    7.6499    0.4851    2.1661 C   0  0  0  0  0  0  0  0  0  0  0  0
    8.9629    3.7109    7.8963 C   0  0  0  0  0  0  0  0  0  0  0  0
    8.8308    4.2037    8.8366 H   0  0  0  0  0  0  0  0  0  0  0  0
   12.4893    7.9695    1.7673 C   0  0  0  0  0  0  0  0  0  0  0  0
   13.0414    8.8015    1.3579 H   0  0  0  0  0  0  0  0  0  0  0  0
    8.1178    1.1521    4.3059 C   0  0  0  0  0  0  0  0  0  0  0  0
   10.4312    7.9074    7.0323 C   0  0  0  0  0  0  0  0  0  0  0  0
   10.5428    8.7216    7.7309 H   0  0  0  0  0  0  0  0  0  0  0  0
    6.0752    1.8673    3.3152 C   0  0  0  0  0  0  0  0  0  0  0  0
    5.1316    2.3911    3.3633 H   0  0  0  0  0  0  0  0  0  0  0  0
   11.5456    0.6107    2.0074 C   0  0  0  0  0  0  0  0  0  0  0  0
   12.5249    0.4555    2.4602 H   0  0  0  0  0  0  0  0  0  0  0  0
   11.6565    0.6538    0.9247 H   0  0  0  0  0  0  0  0  0  0  0  0
   10.8824   -0.2110    2.2777 H   0  0  0  0  0  0  0  0  0  0  0  0
    8.0925   -0.2860    0.9640 C   0  0  0  0  0  0  0  0  0  0  0  0
    8.7339   -1.1099    1.2622 H   0  0  0  0  0  0  0  0  0  0  0  0
    8.6543    0.3652    0.2949 H   0  0  0  0  0  0  0  0  0  0  0  0
    7.2366   -0.6749    0.4195 H   0  0  0  0  0  0  0  0  0  0  0  0
    9.8893    6.7083    7.4472 C   0  0  0  0  0  0  0  0  0  0  0  0
    9.5904    6.5644    8.4726 H   0  0  0  0  0  0  0  0  0  0  0  0
   11.5702    9.1931    5.1824 C   0  0  0  0  0  0  0  0  0  0  0  0
   11.7048   10.0528    5.8208 H   0  0  0  0  0  0  0  0  0  0  0  0
    6.3076    5.1036    1.8754 C   0  0  0  0  0  0  0  0  0  0  0  0
    5.4892    5.2990    2.5684 H   0  0  0  0  0  0  0  0  0  0  0  0
    6.0589    4.2368    1.2634 H   0  0  0  0  0  0  0  0  0  0  0  0
    6.4393    5.9712    1.2285 H   0  0  0  0  0  0  0  0  0  0  0  0
    7.5135    4.8479    2.6034 C   0  0  0  0  0  2  0  0  0  0  0  0
    9.1185    2.2855    6.2264 N   0  0  0  0  0  0  0  0  0  0  0  0
  1  2  1  0  0  0  0
  1  7  1  0  0  0  0
  1 28  1  0  0  0  0
  3 36  1  0  0  0  0
  4  1  1  0  0  0  0
  5 29  1  0  0  0  0
  5  1  1  0  0  0  0
  6  8  1  0  0  0  0
  6 49  2  0  0  0  0
  7  6  1  0  0  0  0
  8 32  1  0  0  0  0
  9 32  2  0  0  0  0
  9 10  1  0  0  0  0
 11  1  1  0  0  0  0
 12 51  2  0  0  0  0
 13 12  1  0  0  0  0
 14  7  1  0  0  0  0
 14 30  1  0  0  0  0
 15 29  1  0  0  0  0
 15 12  1  0  0  0  0
 16 11  1  0  0  0  0
 17  5  1  0  0  0  0
 18 17  1  0  0  0  0
 19 20  1  0  0  0  0
 19 58  1  0  0  0  0
 21 19  1  0  0  0  0
 22 39  2  0  0  0  0
 23 22  1  0  0  0  0
 24 25  1  0  0  0  0
 26 17  2  0  0  0  0
 26 34  1  0  0  0  0
 27 26  1  0  0  0  0
 28 58  1  1  0  0  0
 28  8  1  0  0  0  0
 29 14  2  0  0  0  0
 30 37  2  0  0  0  0
 31 22  1  0  0  0  0
 31  3  2  0  0  0  0
 32 33  1  0  0  0  0
 34 15  2  0  0  0  0
 35 34  1  0  0  0  0
 36 24  2  0  0  0  0
 36 19  1  0  0  0  0
 37 49  1  0  0  0  0
 37 38  1  0  0  0  0
 39 40  1  0  0  0  0
 39 24  1  0  0  0  0
 41 44  1  0  0  0  0
 41 42  1  0  0  0  0
 41 16  1  0  0  0  0
 43 41  1  0  0  0  0
 45 46  1  0  0  0  0
 45 31  1  0  0  0  0
 47 45  1  0  0  0  0
 48 45  1  0  0  0  0
 49 50  1  0  0  0  0
 51 30  1  0  0  0  0
 51 52  1  0  0  0  0
 53 54  1  0  0  0  0
 53 57  1  0  0  0  0
 55 53  1  0  0  0  0
 56 53  1  0  0  0  0
 57  4  1  0  0  0  0
 58  9  1  0  0  0  0
M  END
$$$$
