CSD_code = ZEHXAL | q = 0 | S = 0 | Stoichiometry = C26H30Cl2SiZr | MND = 12
 OpenBabel04212202133D

 60 64  0  0  1  0  0  0  0  0999 V2000
    5.7204   10.4570    3.4336 Zr  0  0  0  0  0  0  0  0  0  0  0  0
    7.1604    8.8687    2.4980 Cl  0  0  0  0  0  0  0  0  0  0  0  0
    5.7202   13.7542    3.4336 Si  0  0  0  0  0  0  0  0  0  0  0  0
    6.4106   12.4574    4.6544 C   0  0  2  0  0  3  0  0  0  0  0  0
    7.5574   11.6676    4.2876 C   0  0  1  0  0  0  0  0  0  0  0  0
    7.5838   10.4804    5.0430 C   0  0  0  0  0  3  0  0  0  0  0  0
    8.3851    9.7508    5.0411 H   0  0  0  0  0  0  0  0  0  0  0  0
    6.4631   10.4905    5.9221 C   0  0  0  0  0  0  0  0  0  0  0  0
    6.0436    9.5305    6.8680 C   0  0  0  0  0  0  0  0  0  0  0  0
    4.9631    9.8506    7.6534 C   0  0  0  0  0  0  0  0  0  0  0  0
    4.5964    9.1418    8.3806 H   0  0  0  0  0  0  0  0  0  0  0  0
    4.3601   11.1121    7.5711 C   0  0  0  0  0  0  0  0  0  0  0  0
    3.5818   11.3563    8.2801 H   0  0  0  0  0  0  0  0  0  0  0  0
    4.7384   12.0685    6.6523 C   0  0  0  0  0  0  0  0  0  0  0  0
    5.7516   11.7314    5.7203 C   0  0  0  0  0  0  0  0  0  0  0  0
    8.6193   11.9833    3.2704 C   0  0  0  0  0  0  0  0  0  0  0  0
    9.1470   12.9011    3.5300 H   0  0  0  0  0  0  0  0  0  0  0  0
    8.1985   12.0867    2.2681 H   0  0  0  0  0  0  0  0  0  0  0  0
    9.3463   11.1704    3.2435 H   0  0  0  0  0  0  0  0  0  0  0  0
    6.7641    8.2199    6.9567 C   0  0  0  0  0  0  0  0  0  0  0  0
    7.7992    8.3689    7.2649 H   0  0  0  0  0  0  0  0  0  0  0  0
    6.7667    7.7352    5.9770 H   0  0  0  0  0  0  0  0  0  0  0  0
    6.2781    7.5616    7.6718 H   0  0  0  0  0  0  0  0  0  0  0  0
    4.1668   13.4540    6.7660 C   0  0  0  0  0  0  0  0  0  0  0  0
    3.1790   13.5326    6.3130 H   0  0  0  0  0  0  0  0  0  0  0  0
    4.8289   14.1774    6.3016 H   0  0  0  0  0  0  0  0  0  0  0  0
    4.0575   13.7100    7.8184 H   0  0  0  0  0  0  0  0  0  0  0  0
    4.3247   15.0005    3.8470 C   0  0  0  0  0  0  0  0  0  0  0  0
    3.4427   14.5777    4.3048 H   0  0  0  0  0  0  0  0  0  0  0  0
    4.0124   15.4806    2.9238 H   0  0  0  0  0  0  0  0  0  0  0  0
    4.6963   15.7816    4.5013 H   0  0  0  0  0  0  0  0  0  0  0  0
    4.2793    8.8680    4.3687 Cl  0  0  0  0  0  0  0  0  0  0  0  0
    5.0298   12.4574    2.2129 C   0  0  2  0  0  3  0  0  0  0  0  0
    3.8831   11.6675    2.5798 C   0  0  1  0  0  0  0  0  0  0  0  0
    5.6888   11.7314    1.1470 C   0  0  0  0  0  0  0  0  0  0  0  0
    3.8567   10.4803    1.8244 C   0  0  0  0  0  3  0  0  0  0  0  0
    2.8212   11.9832    3.5970 C   0  0  0  0  0  0  0  0  0  0  0  0
    2.2935   12.9010    3.3374 H   0  0  0  0  0  0  0  0  0  0  0  0
    3.2419   12.0866    4.5993 H   0  0  0  0  0  0  0  0  0  0  0  0
    2.0941   11.1703    3.6238 H   0  0  0  0  0  0  0  0  0  0  0  0
    3.0554    9.7508    1.8262 H   0  0  0  0  0  0  0  0  0  0  0  0
    4.9773   10.4904    0.9453 C   0  0  0  0  0  0  0  0  0  0  0  0
    5.3968    9.5304   -0.0007 C   0  0  0  0  0  0  0  0  0  0  0  0
    6.4773    9.8506   -0.7861 C   0  0  0  0  0  0  0  0  0  0  0  0
    6.8440    9.1418   -1.5134 H   0  0  0  0  0  0  0  0  0  0  0  0
    7.0802   11.1121   -0.7038 C   0  0  0  0  0  0  0  0  0  0  0  0
    7.8585   11.3563   -1.4129 H   0  0  0  0  0  0  0  0  0  0  0  0
    6.7019   12.0685    0.2149 C   0  0  0  0  0  0  0  0  0  0  0  0
    7.2735   13.4540    0.1012 C   0  0  0  0  0  0  0  0  0  0  0  0
    8.2613   13.5327    0.5542 H   0  0  0  0  0  0  0  0  0  0  0  0
    6.6114   14.1774    0.5657 H   0  0  0  0  0  0  0  0  0  0  0  0
    7.3828   13.7100   -0.9511 H   0  0  0  0  0  0  0  0  0  0  0  0
    4.6763    8.2198   -0.0894 C   0  0  0  0  0  0  0  0  0  0  0  0
    3.6412    8.3689   -0.3975 H   0  0  0  0  0  0  0  0  0  0  0  0
    4.6737    7.7352    0.8903 H   0  0  0  0  0  0  0  0  0  0  0  0
    5.1623    7.5616   -0.8045 H   0  0  0  0  0  0  0  0  0  0  0  0
    7.1157   15.0005    3.0203 C   0  0  0  0  0  0  0  0  0  0  0  0
    7.9977   14.5777    2.5624 H   0  0  0  0  0  0  0  0  0  0  0  0
    7.4280   15.4805    3.9435 H   0  0  0  0  0  0  0  0  0  0  0  0
    6.7441   15.7816    2.3659 H   0  0  0  0  0  0  0  0  0  0  0  0
  1  5  1  0  0  0  0
  1 32  1  0  0  0  0
  2  1  1  0  0  0  0
  3 28  1  0  0  0  0
  3  4  1  0  0  0  0
  4 15  1  6  0  0  0
  5 16  1  6  0  0  0
  5  4  1  0  0  0  0
  5  6  1  0  0  0  0
  6  8  1  0  0  0  0
  7  6  1  0  0  0  0
  8  9  1  0  0  0  0
  9 20  1  0  0  0  0
  9 10  2  0  0  0  0
 10 11  1  0  0  0  0
 12 10  1  0  0  0  0
 12 13  1  0  0  0  0
 14 24  1  0  0  0  0
 14 12  2  0  0  0  0
 15  8  2  0  0  0  0
 15 14  1  0  0  0  0
 16 17  1  0  0  0  0
 18 16  1  0  0  0  0
 19 16  1  0  0  0  0
 20 21  1  0  0  0  0
 20 23  1  0  0  0  0
 22 20  1  0  0  0  0
 24 27  1  0  0  0  0
 25 24  1  0  0  0  0
 26 24  1  0  0  0  0
 28 29  1  0  0  0  0
 28 31  1  0  0  0  0
 30 28  1  0  0  0  0
 33 35  1  1  0  0  0
 33 34  1  0  0  0  0
 33  3  1  0  0  0  0
 34  1  1  0  0  0  0
 34 37  1  1  0  0  0
 36 41  1  0  0  0  0
 36 34  1  0  0  0  0
 37 40  1  0  0  0  0
 37 39  1  0  0  0  0
 38 37  1  0  0  0  0
 42 35  1  0  0  0  0
 42 36  1  0  0  0  0
 43 42  2  0  0  0  0
 44 46  2  0  0  0  0
 44 43  1  0  0  0  0
 45 44  1  0  0  0  0
 46 48  1  0  0  0  0
 47 46  1  0  0  0  0
 48 35  2  0  0  0  0
 49 48  1  0  0  0  0
 49 50  1  0  0  0  0
 49 51  1  0  0  0  0
 52 49  1  0  0  0  0
 53 43  1  0  0  0  0
 53 55  1  0  0  0  0
 54 53  1  0  0  0  0
 56 53  1  0  0  0  0
 57  3  1  0  0  0  0
 57 59  1  0  0  0  0
 58 57  1  0  0  0  0
 60 57  1  0  0  0  0
M  END
$$$$
