CSD_code = ZEJQAJ | q = 0 | S = 0 | Stoichiometry = C34H26BrCuN3P | MND = 4
 OpenBabel04212202133D

 66 73  0  0  1  0  0  0  0  0999 V2000
    3.6184    4.9703    5.6237 Br  0  0  0  0  0  0  0  0  0  0  0  0
    2.5973    5.2014    7.6216 Cu  0  0  1  0  0  0  0  0  0  0  0  0
    1.3284    3.4495    8.2770 P   0  0  0  0  0  4  0  0  0  0  0  0
    3.4620    5.3947    9.4841 N   0  0  0  0  0  0  0  0  0  0  0  0
    1.4475    6.6964    8.2995 N   0  0  0  0  0  0  0  0  0  0  0  0
    3.0826    6.2208   11.5123 N   0  0  0  0  0  0  0  0  0  0  0  0
   -0.2260    3.1993    7.3657 C   0  0  0  0  0  0  0  0  0  0  0  0
    2.7340    6.2411   10.1901 C   0  0  2  0  0  3  0  0  0  0  0  0
    0.3838    7.2333    7.6614 C   0  0  0  0  0  0  0  0  0  0  0  0
    0.1637    6.9252    6.3064 C   0  0  0  0  0  0  0  0  0  0  0  0
    0.8732    6.2898    5.7983 H   0  0  0  0  0  0  0  0  0  0  0  0
    0.8470    3.6402   10.0096 C   0  0  0  0  0  0  0  0  0  0  0  0
   -1.4378    2.8475    7.9493 C   0  0  0  0  0  0  0  0  0  0  0  0
   -1.5075    2.6993    9.0185 H   0  0  0  0  0  0  0  0  0  0  0  0
    2.0473    1.7777    8.2073 C   0  0  0  0  0  0  0  0  0  0  0  0
    1.3980    0.6823    8.7708 C   0  0  0  0  0  0  0  0  0  0  0  0
    0.4479    0.8169    9.2701 H   0  0  0  0  0  0  0  0  0  0  0  0
   -0.1442    3.3772    5.9861 C   0  0  0  0  0  0  0  0  0  0  0  0
    0.8061    3.6379    5.5377 H   0  0  0  0  0  0  0  0  0  0  0  0
    1.6498    6.9660    9.5916 C   0  0  0  0  0  0  0  0  0  0  0  0
   -0.5264    8.0934    8.3346 C   0  0  0  0  0  0  0  0  0  0  0  0
    1.6093    3.0669   11.0268 C   0  0  0  0  0  0  0  0  0  0  0  0
    2.3890    2.3596   10.7778 H   0  0  0  0  0  0  0  0  0  0  0  0
    3.2609    1.6084    7.5515 C   0  0  0  0  0  0  0  0  0  0  0  0
    3.7487    2.4586    7.0948 H   0  0  0  0  0  0  0  0  0  0  0  0
   -1.2679    3.2139    5.1988 C   0  0  0  0  0  0  0  0  0  0  0  0
   -1.2003    3.3529    4.1303 H   0  0  0  0  0  0  0  0  0  0  0  0
   -0.2655    8.3997    9.6922 C   0  0  0  0  0  0  0  0  0  0  0  0
   -0.9279    9.0721   10.2182 H   0  0  0  0  0  0  0  0  0  0  0  0
   -1.6338    8.5973    7.6332 C   0  0  0  0  0  3  0  0  0  0  0  0
   -2.3238    9.2480    8.1516 H   0  0  0  0  0  0  0  0  0  0  0  0
    0.8107    7.8393   10.3161 C   0  0  0  0  0  0  0  0  0  0  0  0
    1.0259    8.0535   11.3520 H   0  0  0  0  0  0  0  0  0  0  0  0
   -2.4774    2.8752    5.7838 C   0  0  0  0  0  0  0  0  0  0  0  0
   -3.3591    2.7523    5.1722 H   0  0  0  0  0  0  0  0  0  0  0  0
    4.3054    4.7715   10.3563 C   0  0  0  0  0  0  0  0  0  0  0  0
    4.0736    5.2834   11.6544 C   0  0  0  0  0  0  0  0  0  0  0  0
    5.2516    3.7752   10.1434 C   0  0  0  0  0  0  0  0  0  0  0  0
    5.4258    3.3866    9.1529 H   0  0  0  0  0  0  0  0  0  0  0  0
    4.7750    4.8169   12.7536 C   0  0  0  0  0  0  0  0  0  0  0  0
    4.5962    5.2079   13.7438 H   0  0  0  0  0  0  0  0  0  0  0  0
    1.3739    3.4037   12.3460 C   0  0  0  0  0  0  0  0  0  0  0  0
    1.9671    2.9510   13.1274 H   0  0  0  0  0  0  0  0  0  0  0  0
    5.9407    3.3141   11.2446 C   0  0  0  0  0  0  0  0  0  0  0  0
    6.6807    2.5382   11.1202 H   0  0  0  0  0  0  0  0  0  0  0  0
   -2.5586    2.6892    7.1545 C   0  0  0  0  0  0  0  0  0  0  0  0
   -3.5009    2.4168    7.6084 H   0  0  0  0  0  0  0  0  0  0  0  0
   -0.3591    4.9162   11.6595 C   0  0  0  0  0  0  0  0  0  0  0  0
   -1.1219    5.6420   11.9041 H   0  0  0  0  0  0  0  0  0  0  0  0
   -0.1250    4.5864   10.3382 C   0  0  0  0  0  0  0  0  0  0  0  0
   -0.7000    5.0564    9.5494 H   0  0  0  0  0  0  0  0  0  0  0  0
    1.9753   -0.5699    8.6899 C   0  0  0  0  0  0  0  0  0  0  0  0
    1.4749   -1.4212    9.1287 H   0  0  0  0  0  0  0  0  0  0  0  0
    5.7082    3.8247   12.5242 C   0  0  0  0  0  0  0  0  0  0  0  0
    6.2735    3.4313   13.3557 H   0  0  0  0  0  0  0  0  0  0  0  0
    3.8313    0.3497    7.4721 C   0  0  0  0  0  0  0  0  0  0  0  0
    4.7729    0.2195    6.9602 H   0  0  0  0  0  0  0  0  0  0  0  0
    0.3906    4.3275   12.6658 C   0  0  0  0  0  0  0  0  0  0  0  0
    0.2102    4.5897   13.6983 H   0  0  0  0  0  0  0  0  0  0  0  0
   -0.9297    7.4287    5.6530 C   0  0  0  0  0  0  0  0  0  0  0  0
   -1.0941    7.1834    4.6150 H   0  0  0  0  0  0  0  0  0  0  0  0
   -1.8349    8.2649    6.3182 C   0  0  0  0  0  0  0  0  0  0  0  0
   -2.6907    8.6535    5.7866 H   0  0  0  0  0  0  0  0  0  0  0  0
    3.1917   -0.7366    8.0440 C   0  0  0  0  0  0  0  0  0  0  0  0
    3.6364   -1.7191    7.9839 H   0  0  0  0  0  0  0  0  0  0  0  0
    2.6562    6.7514   12.2516 H   0  0  0  0  0  0  0  0  0  0  0  0
  2  1  1  6  0  0  0
  2  3  1  0  0  0  0
  2  5  1  0  0  0  0
  2  4  1  0  0  0  0
  3 12  1  0  0  0  0
  4  8  1  0  0  0  0
  4 36  1  0  0  0  0
  5 20  1  0  0  0  0
  6 37  1  0  0  0  0
  6 66  1  0  0  0  0
  7 13  1  0  0  0  0
  7  3  1  0  0  0  0
  8 20  1  1  0  0  0
  8  6  1  0  0  0  0
  9  5  1  0  0  0  0
  9 21  1  0  0  0  0
 10  9  2  0  0  0  0
 11 10  1  0  0  0  0
 12 50  2  0  0  0  0
 12 22  1  0  0  0  0
 13 14  1  0  0  0  0
 15  3  1  0  0  0  0
 15 16  1  0  0  0  0
 16 17  1  0  0  0  0
 18  7  2  0  0  0  0
 19 18  1  0  0  0  0
 20 32  2  0  0  0  0
 21 28  2  0  0  0  0
 22 42  2  0  0  0  0
 23 22  1  0  0  0  0
 24 15  2  0  0  0  0
 25 24  1  0  0  0  0
 26 34  2  0  0  0  0
 26 18  1  0  0  0  0
 27 26  1  0  0  0  0
 28 29  1  0  0  0  0
 28 32  1  0  0  0  0
 30 31  1  0  0  0  0
 30 21  1  0  0  0  0
 32 33  1  0  0  0  0
 34 46  1  0  0  0  0
 35 34  1  0  0  0  0
 36 37  1  0  0  0  0
 37 40  2  0  0  0  0
 38 36  2  0  0  0  0
 38 44  1  0  0  0  0
 39 38  1  0  0  0  0
 40 41  1  0  0  0  0
 42 58  1  0  0  0  0
 42 43  1  0  0  0  0
 44 54  2  0  0  0  0
 45 44  1  0  0  0  0
 46 47  1  0  0  0  0
 46 13  2  0  0  0  0
 48 49  1  0  0  0  0
 48 58  2  0  0  0  0
 50 48  1  0  0  0  0
 51 50  1  0  0  0  0
 52 16  2  0  0  0  0
 52 53  1  0  0  0  0
 54 40  1  0  0  0  0
 54 55  1  0  0  0  0
 56 24  1  0  0  0  0
 56 64  2  0  0  0  0
 57 56  1  0  0  0  0
 58 59  1  0  0  0  0
 60 10  1  0  0  0  0
 60 62  2  0  0  0  0
 61 60  1  0  0  0  0
 62 30  1  0  0  0  0
 63 62  1  0  0  0  0
 64 52  1  0  0  0  0
 65 64  1  0  0  0  0
M  END
$$$$
