CSD_code = ZEJZUL | q = 0 | S = 0 | Stoichiometry = C6H18F4HfO2P2 | MND = 6
 OpenBabel04212202133D

 33 32  0  0  0  0  0  0  0  0999 V2000
    2.4647   11.0924    1.7271 Hf  0  0  0  0  0  0  0  0  0  0  0  0
    0.9361    9.0167    0.1130 P   0  0  0  0  0  4  0  0  0  0  0  0
    3.8796   13.1450   -0.0137 P   0  0  0  0  0  4  0  0  0  0  0  0
    4.3423   10.9019    1.4926 F   0  0  0  0  0  0  0  0  0  0  0  0
    2.3979    9.7204    3.0154 F   0  0  0  0  0  0  0  0  0  0  0  0
    0.5750   11.2780    1.6217 F   0  0  0  0  0  0  0  0  0  0  0  0
    2.6212   12.4800    2.9908 F   0  0  0  0  0  0  0  0  0  0  0  0
    2.2765    9.6929    0.2066 O   0  0  0  0  0  0  0  0  0  0  0  0
    2.5470   12.4751    0.1824 O   0  0  0  0  0  0  0  0  0  0  0  0
    1.1546    7.4924   -0.8785 C   0  0  0  0  0  0  0  0  0  0  0  0
    1.5604    7.7553   -1.8514 H   0  0  0  0  0  0  0  0  0  0  0  0
    0.2151    6.9663   -1.0076 H   0  0  0  0  0  0  0  0  0  0  0  0
    1.8660    6.8473   -0.3705 H   0  0  0  0  0  0  0  0  0  0  0  0
    0.2454    8.4296    1.6943 C   0  0  0  0  0  0  0  0  0  0  0  0
    0.9972    7.8008    2.1703 H   0  0  0  0  0  0  0  0  0  0  0  0
   -0.6573    7.8555    1.5060 H   0  0  0  0  0  0  0  0  0  0  0  0
    0.0335    9.2646    2.3591 H   0  0  0  0  0  0  0  0  0  0  0  0
   -0.2814   10.0059   -0.8245 C   0  0  0  0  0  0  0  0  0  0  0  0
   -0.4677   10.9477   -0.3183 H   0  0  0  0  0  0  0  0  0  0  0  0
   -1.2096    9.4533   -0.9285 H   0  0  0  0  0  0  0  0  0  0  0  0
    0.1378   10.2058   -1.8084 H   0  0  0  0  0  0  0  0  0  0  0  0
    5.0244   12.1402   -1.0233 C   0  0  0  0  0  0  0  0  0  0  0  0
    5.2470   11.2053   -0.5189 H   0  0  0  0  0  0  0  0  0  0  0  0
    5.9427   12.6897   -1.2036 H   0  0  0  0  0  0  0  0  0  0  0  0
    4.5336   11.9268   -1.9707 H   0  0  0  0  0  0  0  0  0  0  0  0
    4.6811   13.7485    1.5081 C   0  0  0  0  0  0  0  0  0  0  0  0
    3.9652   14.3835    2.0289 H   0  0  0  0  0  0  0  0  0  0  0  0
    5.5687   14.3192    1.2500 H   0  0  0  0  0  0  0  0  0  0  0  0
    4.9391   12.9207    2.1656 H   0  0  0  0  0  0  0  0  0  0  0  0
    3.5967   14.6581   -1.0059 C   0  0  0  0  0  0  0  0  0  0  0  0
    3.1227   14.3854   -1.9446 H   0  0  0  0  0  0  0  0  0  0  0  0
    4.5267   15.1787   -1.2071 H   0  0  0  0  0  0  0  0  0  0  0  0
    2.9251   15.3123   -0.4571 H   0  0  0  0  0  0  0  0  0  0  0  0
  1  7  1  0  0  0  0
  1  5  1  0  0  0  0
  2  8  1  0  0  0  0
  2 14  1  0  0  0  0
  3  9  1  0  0  0  0
  3 26  1  0  0  0  0
  4  1  1  0  0  0  0
  6  1  1  0  0  0  0
  8  1  1  0  0  0  0
  9  1  1  0  0  0  0
 10 13  1  0  0  0  0
 10  2  1  0  0  0  0
 11 10  1  0  0  0  0
 12 10  1  0  0  0  0
 14 15  1  0  0  0  0
 14 17  1  0  0  0  0
 16 14  1  0  0  0  0
 18 19  1  0  0  0  0
 18  2  1  0  0  0  0
 20 18  1  0  0  0  0
 21 18  1  0  0  0  0
 22 23  1  0  0  0  0
 22  3  1  0  0  0  0
 24 22  1  0  0  0  0
 25 22  1  0  0  0  0
 26 27  1  0  0  0  0
 26 29  1  0  0  0  0
 28 26  1  0  0  0  0
 30 33  1  0  0  0  0
 30  3  1  0  0  0  0
 31 30  1  0  0  0  0
 32 30  1  0  0  0  0
M  END
$$$$
