CSD_code = ZEJZOF | q = 0 | S = 0 | Stoichiometry = C20H16F4N4Zr | MND = 8
 OpenBabel04212202133D

 45 48  0  0  1  0  0  0  0  0999 V2000
    1.9352    3.2700    5.6189 Zr  0  0  0  0  0  0  0  0  0  0  0  0
    3.1707    1.9704    6.3479 F   0  0  0  0  0  0  0  0  0  0  0  0
    0.4139    2.8599    6.7419 F   0  0  0  0  0  0  0  0  0  0  0  0
    0.9534    3.5296    3.9724 F   0  0  0  0  0  0  0  0  0  0  0  0
    3.2048    4.7165    5.4167 F   0  0  0  0  0  0  0  0  0  0  0  0
    3.3118    2.4852    3.6956 N   0  0  0  0  0  0  0  0  0  0  0  0
    1.3167    0.9790    4.8300 N   0  0  0  0  0  0  0  0  0  0  0  0
    2.3242    4.1643    7.9178 N   0  0  0  0  0  0  0  0  0  0  0  0
    0.7977    5.4516    6.0351 N   0  0  0  0  0  0  0  0  0  0  0  0
    4.0481    3.3370    3.0030 C   0  0  0  0  0  3  0  0  0  0  0  0
    4.3108    4.2547    3.5126 H   0  0  0  0  0  0  0  0  0  0  0  0
    4.4741    3.0885    1.7036 C   0  0  0  0  0  0  0  0  0  0  0  0
    5.0775    3.8115    1.1774 H   0  0  0  0  0  0  0  0  0  0  0  0
    4.0985    1.8990    1.1016 C   0  0  0  0  0  0  0  0  0  0  0  0
    4.3947    1.6727    0.0872 H   0  0  0  0  0  0  0  0  0  0  0  0
    3.3298    1.0029    1.8241 C   0  0  0  0  0  0  0  0  0  0  0  0
    3.0013    0.0779    1.3758 H   0  0  0  0  0  0  0  0  0  0  0  0
    2.9601    1.3308    3.1296 C   0  0  0  0  0  0  0  0  0  0  0  0
    2.1481    0.4130    3.9551 C   0  0  0  0  0  0  0  0  0  0  0  0
    2.2578   -0.9725    3.8258 C   0  0  0  0  0  0  0  0  0  0  0  0
    2.9653   -1.4056    3.1356 H   0  0  0  0  0  0  0  0  0  0  0  0
    1.4684   -1.7830    4.6233 C   0  0  0  0  0  0  0  0  0  0  0  0
    1.5392   -2.8588    4.5501 H   0  0  0  0  0  0  0  0  0  0  0  0
    0.5929   -1.1866    5.5156 C   0  0  0  0  0  0  0  0  0  0  0  0
   -0.0437   -1.7821    6.1511 H   0  0  0  0  0  0  0  0  0  0  0  0
    0.5588    0.2012    5.5837 C   0  0  0  0  0  0  0  0  0  0  0  0
   -0.1031    0.7118    6.2706 H   0  0  0  0  0  0  0  0  0  0  0  0
    2.8179    3.3820    8.8622 C   0  0  0  0  0  0  0  0  0  0  0  0
    3.4014    2.5386    8.5173 H   0  0  0  0  0  0  0  0  0  0  0  0
    2.6142    3.6094   10.2181 C   0  0  0  0  0  0  0  0  0  0  0  0
    3.0367    2.9439   10.9546 H   0  0  0  0  0  0  0  0  0  0  0  0
    1.8504    4.7008   10.5974 C   0  0  0  0  0  0  0  0  0  0  0  0
    1.6546    4.9056   11.6402 H   0  0  0  0  0  0  0  0  0  0  0  0
    1.3376    5.5268    9.6122 C   0  0  0  0  0  0  0  0  0  0  0  0
    0.7215    6.3732    9.8739 H   0  0  0  0  0  0  0  0  0  0  0  0
    1.6030    5.2268    8.2751 C   0  0  0  0  0  0  0  0  0  0  0  0
    1.0902    6.0729    7.1775 C   0  0  1  0  0  3  0  0  0  0  0  0
    0.9324    7.4511    7.3331 C   0  0  0  0  0  0  0  0  0  0  0  0
    1.2105    7.9353    8.2565 H   0  0  0  0  0  0  0  0  0  0  0  0
    0.4451    8.1926    6.2708 C   0  0  0  0  0  0  0  0  0  0  0  0
    0.3200    9.2621    6.3614 H   0  0  0  0  0  0  0  0  0  0  0  0
    0.1275    7.5365    5.0930 C   0  0  0  0  0  0  0  0  0  0  0  0
   -0.2593    8.0766    4.2431 H   0  0  0  0  0  0  0  0  0  0  0  0
    0.3277    6.1628    5.0247 C   0  0  0  0  0  0  0  0  0  0  0  0
    0.0993    5.6078    4.1243 H   0  0  0  0  0  0  0  0  0  0  0  0
  1  9  1  0  0  0  0
  1  2  1  0  0  0  0
  1  3  1  0  0  0  0
  4  1  1  0  0  0  0
  5  1  1  0  0  0  0
  6  1  1  0  0  0  0
  7 26  1  0  0  0  0
  8 36  2  0  0  0  0
  8 28  1  0  0  0  0
  9 37  1  0  0  0  0
 10 11  1  0  0  0  0
 10  6  1  0  0  0  0
 12 10  1  0  0  0  0
 13 12  1  0  0  0  0
 14 12  2  0  0  0  0
 14 16  1  0  0  0  0
 15 14  1  0  0  0  0
 16 18  2  0  0  0  0
 17 16  1  0  0  0  0
 18  6  1  0  0  0  0
 18 19  1  0  0  0  0
 19  7  2  0  0  0  0
 20 19  1  0  0  0  0
 20 22  2  0  0  0  0
 21 20  1  0  0  0  0
 22 24  1  0  0  0  0
 23 22  1  0  0  0  0
 24 26  2  0  0  0  0
 24 25  1  0  0  0  0
 26 27  1  0  0  0  0
 28 30  2  0  0  0  0
 29 28  1  0  0  0  0
 30 32  1  0  0  0  0
 30 31  1  0  0  0  0
 32 33  1  0  0  0  0
 34 35  1  0  0  0  0
 34 32  2  0  0  0  0
 36 34  1  0  0  0  0
 37 38  1  0  0  0  0
 37 36  1  6  0  0  0
 38 39  1  0  0  0  0
 40 41  1  0  0  0  0
 40 38  2  0  0  0  0
 42 40  1  0  0  0  0
 43 42  1  0  0  0  0
 44 42  2  0  0  0  0
 44  9  1  0  0  0  0
 45 44  1  0  0  0  0
M  END
$$$$
