CSD_code = ZEKQIP | q = 0 | S = 0 | Stoichiometry = C36H30BrNPd | MND = 5
 OpenBabel04212202133D

 69 73  0  0  1  0  0  0  0  0999 V2000
   -0.3188    5.0382   13.1956 Pd  0  0  0  0  0  0  0  0  0  0  0  0
    0.9321    5.6790   15.0978 Br  0  0  0  0  0 15  0  0  0  0  0  0
   -1.9615    6.5570   13.8901 N   0  0  0  0  0  0  0  0  0  0  0  0
    1.0808    3.8944   12.3168 C   0  0  0  0  0  0  0  0  0  0  0  0
    0.2892    3.1819   11.5131 C   0  0  0  0  0  0  0  0  0  0  0  0
   -1.1213    3.6479   11.7764 C   0  0  1  0  0  3  0  0  0  0  0  0
   -1.4757    4.9341   11.3955 C   0  0  2  0  0  0  0  0  0  0  0  0
   -3.2756    5.9137   13.8621 C   0  0  2  0  0  0  0  0  0  0  0  0
   -3.1943    4.6291   14.6979 C   0  0  0  0  0  0  0  0  0  0  0  0
    2.5125    4.0335   12.4694 C   0  0  0  0  0  0  0  0  0  0  0  0
    3.1928    3.4881   13.5609 C   0  0  0  0  0  0  0  0  0  0  0  0
    4.5581    3.6539   13.6800 C   0  0  0  0  0  0  0  0  0  0  0  0
    5.2615    4.3704   12.7249 C   0  0  0  0  0  0  0  0  0  0  0  0
    4.5927    4.9224   11.6439 C   0  0  0  0  0  0  0  0  0  0  0  0
    3.2280    4.7602   11.5117 C   0  0  0  0  0  0  0  0  0  0  0  0
    0.5861    2.1181   10.5646 C   0  0  0  0  0  0  0  0  0  0  0  0
    1.8778    1.6046   10.4369 C   0  0  0  0  0  0  0  0  0  0  0  0
    2.1478    0.6086    9.5196 C   0  0  0  0  0  0  0  0  0  0  0  0
    1.1388    0.1024    8.7157 C   0  0  0  0  0  0  0  0  0  0  0  0
   -0.1478    0.5996    8.8387 C   0  0  0  0  0  0  0  0  0  0  0  0
   -0.4234    1.5976    9.7529 C   0  0  0  0  0  0  0  0  0  0  0  0
   -2.0205    2.6439   12.3789 C   0  0  0  0  0  0  0  0  0  0  0  0
   -1.5505    1.9189   13.4785 C   0  0  0  0  0  0  0  0  0  0  0  0
   -2.3372    0.9498   14.0689 C   0  0  0  0  0  0  0  0  0  0  0  0
   -3.5999    0.6791   13.5655 C   0  0  0  0  0  0  0  0  0  0  0  0
   -4.0681    1.3828   12.4693 C   0  0  0  0  0  0  0  0  0  0  0  0
   -3.2872    2.3590   11.8764 C   0  0  0  0  0  0  0  0  0  0  0  0
   -0.5401    5.6880   10.4969 C   0  0  0  0  0  0  0  0  0  0  0  0
   -0.1871    5.1731    9.2520 C   0  0  0  0  0  0  0  0  0  0  0  0
    0.6968    5.8538    8.4336 C   0  0  0  0  0  0  0  0  0  0  0  0
    1.2427    7.0578    8.8439 C   0  0  0  0  0  0  0  0  0  0  0  0
    0.9008    7.5800   10.0804 C   0  0  0  0  0  0  0  0  0  0  0  0
    0.0151    6.9042   10.9018 C   0  0  0  0  0  0  0  0  0  0  0  0
   -2.9066    5.3628   11.3496 C   0  0  0  0  0  0  0  0  0  0  0  0
   -3.4599    5.3546   10.0649 C   0  0  0  0  0  0  0  0  0  0  0  0
   -4.7977    5.6026    9.8414 C   0  0  0  0  0  0  0  0  0  0  0  0
   -5.6272    5.8694   10.9167 C   0  0  0  0  0  0  0  0  0  0  0  0
   -5.0856    5.9315   12.1840 C   0  0  0  0  0  0  0  0  0  0  0  0
   -3.7339    5.6981   12.4294 C   0  0  0  0  0  0  0  0  0  0  0  0
   -2.0035    7.4617   13.4186 H   0  0  0  0  0  0  0  0  0  0  0  0
   -1.6829    6.7311   14.8598 H   0  0  0  0  0  0  0  0  0  0  0  0
   -4.0286    6.5723   14.3305 H   0  0  0  0  0  0  0  0  0  0  0  0
   -3.3190    4.8615   15.7538 H   0  0  0  0  0  0  0  0  0  0  0  0
   -3.9595    3.9167   14.4013 H   0  0  0  0  0  0  0  0  0  0  0  0
   -2.2038    4.1652   14.5696 H   0  0  0  0  0  0  0  0  0  0  0  0
    2.6397    2.9437   14.3136 H   0  0  0  0  0  0  0  0  0  0  0  0
    5.0758    3.2295   14.5275 H   0  0  0  0  0  0  0  0  0  0  0  0
    6.3283    4.5048   12.8265 H   0  0  0  0  0  0  0  0  0  0  0  0
    5.1375    5.4867   10.9007 H   0  0  0  0  0  0  0  0  0  0  0  0
    2.6992    5.1895   10.6712 H   0  0  0  0  0  0  0  0  0  0  0  0
    2.6674    1.9909   11.0629 H   0  0  0  0  0  0  0  0  0  0  0  0
    3.1528    0.2224    9.4313 H   0  0  0  0  0  0  0  0  0  0  0  0
    1.3535   -0.6764    7.9990 H   0  0  0  0  0  0  0  0  0  0  0  0
   -0.9410    0.2081    8.2178 H   0  0  0  0  0  0  0  0  0  0  0  0
   -1.4318    1.9766    9.8411 H   0  0  0  0  0  0  0  0  0  0  0  0
   -0.5608    2.1363   13.8786 H   0  0  0  0  0  0  0  0  0  0  0  0
   -1.9661    0.4035   14.9232 H   0  0  0  0  0  0  0  0  0  0  0  0
   -4.2152   -0.0799   14.0249 H   0  0  0  0  0  0  0  0  0  0  0  0
   -5.0489    1.1715   12.0689 H   0  0  0  0  0  0  0  0  0  0  0  0
   -3.6616    2.8927   11.0154 H   0  0  0  0  0  0  0  0  0  0  0  0
   -0.5879    4.2227    8.9297 H   0  0  0  0  0  0  0  0  0  0  0  0
    0.9653    5.4343    7.4752 H   0  0  0  0  0  0  0  0  0  0  0  0
    1.9392    7.5830    8.2077 H   0  0  0  0  0  0  0  0  0  0  0  0
    1.3333    8.5120   10.4130 H   0  0  0  0  0  0  0  0  0  0  0  0
   -0.2373    7.3343   11.8736 H   0  0  0  0  0  0  0  0  0  0  0  0
   -2.8168    5.1286    9.2269 H   0  0  0  0  0  0  0  0  0  0  0  0
   -5.1906    5.5791    8.8361 H   0  0  0  0  0  0  0  0  0  0  0  0
   -6.6811    6.0478   10.7676 H   0  0  0  0  0  0  0  0  0  0  0  0
   -5.7281    6.1741   13.0189 H   0  0  0  0  0  0  0  0  0  0  0  0
  3 41  1  0  0  0  0
  4 10  1  0  0  0  0
  4  1  1  0  0  0  0
  5  6  1  0  0  0  0
  5  4  2  0  0  0  0
  6 22  1  6  0  0  0
  7 28  1  6  0  0  0
  7  6  1  0  0  0  0
  7  1  1  0  0  0  0
  8  3  1  0  0  0  0
  8 42  1  1  0  0  0
  8  9  1  0  0  0  0
  9 43  1  0  0  0  0
 10 11  1  0  0  0  0
 11 12  2  0  0  0  0
 11 46  1  0  0  0  0
 12 47  1  0  0  0  0
 13 48  1  0  0  0  0
 13 12  1  0  0  0  0
 14 13  2  0  0  0  0
 15 14  1  0  0  0  0
 15 10  2  0  0  0  0
 16  5  1  0  0  0  0
 17 16  1  0  0  0  0
 17 51  1  0  0  0  0
 18 17  2  0  0  0  0
 19 20  2  0  0  0  0
 19 18  1  0  0  0  0
 20 21  1  0  0  0  0
 21 55  1  0  0  0  0
 21 16  2  0  0  0  0
 22 23  1  0  0  0  0
 23 56  1  0  0  0  0
 23 24  2  0  0  0  0
 24 57  1  0  0  0  0
 25 58  1  0  0  0  0
 25 24  1  0  0  0  0
 26 25  2  0  0  0  0
 27 22  2  0  0  0  0
 27 26  1  0  0  0  0
 28 33  1  0  0  0  0
 29 28  2  0  0  0  0
 30 31  2  0  0  0  0
 30 29  1  0  0  0  0
 31 32  1  0  0  0  0
 32 64  1  0  0  0  0
 32 33  2  0  0  0  0
 33 65  1  0  0  0  0
 34  7  1  0  0  0  0
 34 39  1  0  0  0  0
 35 34  2  0  0  0  0
 36 35  1  0  0  0  0
 36 37  2  0  0  0  0
 37 38  1  0  0  0  0
 38 39  2  0  0  0  0
 38 69  1  0  0  0  0
 39  8  1  0  0  0  0
 40  3  1  0  0  0  0
 44  9  1  0  0  0  0
 45  9  1  0  0  0  0
 49 14  1  0  0  0  0
 50 15  1  0  0  0  0
 52 18  1  0  0  0  0
 53 19  1  0  0  0  0
 54 20  1  0  0  0  0
 59 26  1  0  0  0  0
 60 27  1  0  0  0  0
 61 29  1  0  0  0  0
 62 30  1  0  0  0  0
 63 31  1  0  0  0  0
 66 35  1  0  0  0  0
 67 36  1  0  0  0  0
 68 37  1  0  0  0  0
M  END
$$$$
