CSD_code = ZELCUQ | q = 0 | S = 0 | Stoichiometry = C16H31Cl3FeN4P2 | MND = 5
 OpenBabel04212202133D

 57 59  0  0  1  0  0  0  0  0999 V2000
    1.1054    3.9300   13.8793 Fe  0  0  0  0  0  0  0  0  0  0  0  0
    1.8163    2.2936   15.0325 Cl  0  0  0  0  0  0  0  0  0  0  0  0
   -0.8120    3.2322   13.1657 Cl  0  0  0  0  0  0  0  0  0  0  0  0
    0.6502    9.1899   10.4038 Cl  0  0  0  0  0  0  0  0  0  0  0  0
    2.0145    3.1406   12.0652 P   0  0  0  0  0  4  0  0  0  0  0  0
    0.2486    5.0682   15.5535 P   0  0  0  0  0  4  0  0  0  0  0  0
    0.9899    5.5650   12.9072 N   0  0  0  0  0  0  0  0  0  0  0  0
    1.2544    6.7164   10.8473 N   0  0  0  0  0  0  0  0  0  0  0  0
    1.8598    4.5116   11.0571 N   0  0  0  0  0  0  0  0  0  0  0  0
    2.0540    4.5469   10.0654 H   0  0  0  0  0  0  0  0  0  0  0  0
    0.2178    6.6131   14.7972 N   0  0  0  0  0  0  0  0  0  0  0  0
   -0.2297    7.4165   15.2183 H   0  0  0  0  0  0  0  0  0  0  0  0
    1.3430    5.6399   11.6050 C   0  0  1  0  0  3  0  0  0  0  0  0
    0.7720    7.8142   11.4119 C   0  0  0  0  0  0  0  0  0  0  0  0
    0.3932    7.8757   12.7398 C   0  0  0  0  0  0  0  0  0  0  0  0
    0.0129    8.7786   13.1837 H   0  0  0  0  0  0  0  0  0  0  0  0
    0.5184    6.6947   13.4725 C   0  0  0  0  0  0  0  0  0  0  0  0
    1.5366    1.7637   10.9203 C   0  0  0  0  0  0  0  0  0  0  0  0
    2.3365    1.6760   10.1731 H   0  0  0  0  0  0  0  0  0  0  0  0
    1.4643    0.4936   11.7642 C   0  0  0  0  0  0  0  0  0  0  0  0
    0.6791    0.5978   12.5108 H   0  0  0  0  0  0  0  0  0  0  0  0
    2.4047    0.3115   12.2833 H   0  0  0  0  0  0  0  0  0  0  0  0
    1.2379   -0.3696   11.1412 H   0  0  0  0  0  0  0  0  0  0  0  0
    0.2164    2.0295   10.2048 C   0  0  0  0  0  0  0  0  0  0  0  0
   -0.0150    1.1926    9.5480 H   0  0  0  0  0  0  0  0  0  0  0  0
    0.2626    2.9346    9.6018 H   0  0  0  0  0  0  0  0  0  0  0  0
   -0.5899    2.1393   10.9248 H   0  0  0  0  0  0  0  0  0  0  0  0
    3.8732    2.9926   12.2215 C   0  0  0  0  0  0  0  0  0  0  0  0
    4.0408    2.1427   12.8934 H   0  0  0  0  0  0  0  0  0  0  0  0
    4.3265    4.2674   12.9321 C   0  0  0  0  0  0  0  0  0  0  0  0
    5.3716    4.1988   13.2277 H   0  0  0  0  0  0  0  0  0  0  0  0
    3.7245    4.4272   13.8315 H   0  0  0  0  0  0  0  0  0  0  0  0
    4.2081    5.1333   12.2810 H   0  0  0  0  0  0  0  0  0  0  0  0
    4.6432    2.7859   10.9229 C   0  0  0  0  0  0  0  0  0  0  0  0
    4.3774    3.5431   10.1869 H   0  0  0  0  0  0  0  0  0  0  0  0
    4.4629    1.8009   10.4999 H   0  0  0  0  0  0  0  0  0  0  0  0
    5.7113    2.8699   11.1194 H   0  0  0  0  0  0  0  0  0  0  0  0
   -1.4377    5.0428   16.3587 C   0  0  0  0  0  0  0  0  0  0  0  0
   -1.5303    4.0345   16.7787 H   0  0  0  0  0  0  0  0  0  0  0  0
   -2.5111    5.2193   15.2854 C   0  0  0  0  0  0  0  0  0  0  0  0
   -3.4975    5.0604   15.7167 H   0  0  0  0  0  0  0  0  0  0  0  0
   -2.3694    4.5047   14.4781 H   0  0  0  0  0  0  0  0  0  0  0  0
   -2.4827    6.2241   14.8655 H   0  0  0  0  0  0  0  0  0  0  0  0
   -1.6258    6.0746   17.4707 C   0  0  0  0  0  0  0  0  0  0  0  0
   -1.4410    7.0865   17.1121 H   0  0  0  0  0  0  0  0  0  0  0  0
   -0.9825    5.8854   18.3253 H   0  0  0  0  0  0  0  0  0  0  0  0
   -2.6574    6.0332   17.8169 H   0  0  0  0  0  0  0  0  0  0  0  0
    1.4078    5.4372   16.9672 C   0  0  0  0  0  0  0  0  0  0  0  0
    1.0898    6.3678   17.4529 H   0  0  0  0  0  0  0  0  0  0  0  0
    2.8017    5.6289   16.3768 C   0  0  0  0  0  0  0  0  0  0  0  0
    3.5049    5.9477   17.1441 H   0  0  0  0  0  0  0  0  0  0  0  0
    2.7948    6.3787   15.5841 H   0  0  0  0  0  0  0  0  0  0  0  0
    3.1525    4.6805   15.9690 H   0  0  0  0  0  0  0  0  0  0  0  0
    1.4060    4.2771   17.9565 C   0  0  0  0  0  0  0  0  0  0  0  0
    1.6606    3.3538   17.4386 H   0  0  0  0  0  0  0  0  0  0  0  0
    0.4332    4.1476   18.4250 H   0  0  0  0  0  0  0  0  0  0  0  0
    2.1436    4.4480   18.7391 H   0  0  0  0  0  0  0  0  0  0  0  0
  1  2  1  0  0  0  0
  1  6  1  0  0  0  0
  3  1  1  0  0  0  0
  4 14  1  0  0  0  0
  5 28  1  0  0  0  0
  5  1  1  0  0  0  0
  6 38  1  0  0  0  0
  6 48  1  0  0  0  0
  7 17  1  0  0  0  0
  7  1  1  0  0  0  0
  8 14  2  0  0  0  0
  9 13  1  0  0  0  0
  9  5  1  0  0  0  0
 10  9  1  0  0  0  0
 11 12  1  0  0  0  0
 11  6  1  0  0  0  0
 13  8  1  1  0  0  0
 13  7  1  0  0  0  0
 14 15  1  0  0  0  0
 15 16  1  0  0  0  0
 15 17  2  0  0  0  0
 17 11  1  0  0  0  0
 18 20  1  0  0  0  0
 18  5  1  0  0  0  0
 19 18  1  0  0  0  0
 20 22  1  0  0  0  0
 20 21  1  0  0  0  0
 23 20  1  0  0  0  0
 24 18  1  0  0  0  0
 24 27  1  0  0  0  0
 25 24  1  0  0  0  0
 26 24  1  0  0  0  0
 28 29  1  0  0  0  0
 28 30  1  0  0  0  0
 30 31  1  0  0  0  0
 30 32  1  0  0  0  0
 33 30  1  0  0  0  0
 34 37  1  0  0  0  0
 34 28  1  0  0  0  0
 35 34  1  0  0  0  0
 36 34  1  0  0  0  0
 38 39  1  0  0  0  0
 38 44  1  0  0  0  0
 40 41  1  0  0  0  0
 40 38  1  0  0  0  0
 42 40  1  0  0  0  0
 43 40  1  0  0  0  0
 44 47  1  0  0  0  0
 44 46  1  0  0  0  0
 45 44  1  0  0  0  0
 48 49  1  0  0  0  0
 48 54  1  0  0  0  0
 50 48  1  0  0  0  0
 50 51  1  0  0  0  0
 52 50  1  0  0  0  0
 53 50  1  0  0  0  0
 54 56  1  0  0  0  0
 54 57  1  0  0  0  0
 55 54  1  0  0  0  0
M  END
$$$$
