CSD_code = ZELDOL | q = 0 | S = 0 | Stoichiometry = C25H34Cl2OSSiTi | MND = 8
 OpenBabel04212202133D

 65 68  0  0  1  0  0  0  0  0999 V2000
   22.2532    0.3565    9.6420 Ti  0  0  0  0  0  0  0  0  0  0  0  0
   21.6306   -1.5322   10.5478 Cl  0  0  0  0  0  0  0  0  0  0  0  0
   24.3807   -0.1396    9.5557 Cl  0  0  0  0  0  0  0  0  0  0  0  0
   23.8255    0.9085    6.4087 S   0  0  0  0  0  0  0  0  0  0  0  0
   22.4651    3.6013    8.8128 Si  0  0  0  0  0  0  0  0  0  0  0  0
   22.2407    1.4713   10.8753 O   0  0  0  0  0  0  0  0  0  0  0  0
   21.7247    1.9858    8.1845 C   0  0  2  0  0  3  0  0  0  0  0  0
   20.5180    1.3390    8.6234 C   0  0  1  0  0  0  0  0  0  0  0  0
   20.4949   -0.0071    8.1682 C   0  0  2  0  0  3  0  0  0  0  0  0
   21.6935   -0.2189    7.4242 C   0  0  0  0  0  0  0  0  0  0  0  0
   22.4237    1.0032    7.4294 C   0  0  0  0  0  0  0  0  0  0  0  0
   19.3924    2.0070    9.3593 C   0  0  0  0  0  0  0  0  0  0  0  0
   18.5677    2.2122    8.6726 H   0  0  0  0  0  0  0  0  0  0  0  0
   19.7198    2.9511    9.7936 H   0  0  0  0  0  0  0  0  0  0  0  0
   19.0128    1.3644   10.1573 H   0  0  0  0  0  0  0  0  0  0  0  0
   19.3449   -0.9602    8.2972 C   0  0  0  0  0  0  0  0  0  0  0  0
   18.5425   -0.6725    7.6129 H   0  0  0  0  0  0  0  0  0  0  0  0
   18.9454   -0.9599    9.3125 H   0  0  0  0  0  0  0  0  0  0  0  0
   19.6607   -1.9730    8.0538 H   0  0  0  0  0  0  0  0  0  0  0  0
   22.3303   -1.2208    6.6306 C   0  0  0  0  0  0  0  0  0  0  0  0
   21.9551   -2.2236    6.5053 H   0  0  0  0  0  0  0  0  0  0  0  0
   23.4658   -0.7755    6.0396 C   0  0  0  0  0  0  0  0  0  0  0  0
   22.1380    3.7994   10.6785 C   0  0  0  0  0  0  0  0  0  0  0  0
   22.1060    2.6445   11.4796 C   0  0  0  0  0  0  0  0  0  0  0  0
   21.9196    2.7288   12.8758 C   0  0  0  0  0  0  0  0  0  0  0  0
   21.7900    3.9937   13.4256 C   0  0  0  0  0  0  0  0  0  0  0  0
   21.6558    4.1047   14.4893 H   0  0  0  0  0  0  0  0  0  0  0  0
   21.8231    5.1528   12.6563 C   0  0  0  0  0  0  0  0  0  0  0  0
   21.9897    5.0376   11.2869 C   0  0  0  0  0  0  0  0  0  0  0  0
   22.0106    5.9247   10.6718 H   0  0  0  0  0  0  0  0  0  0  0  0
   21.6931    6.4925   13.3162 C   0  0  0  0  0  0  0  0  0  0  0  0
   20.8534    6.5007   14.0086 H   0  0  0  0  0  0  0  0  0  0  0  0
   21.5471    7.2758   12.5772 H   0  0  0  0  0  0  0  0  0  0  0  0
   22.5949    6.7203   13.8844 H   0  0  0  0  0  0  0  0  0  0  0  0
   21.8347    1.4549   13.7072 C   0  0  0  0  0  0  0  0  0  0  0  0
   21.6904    1.7447   15.2053 C   0  0  0  0  0  0  0  0  0  0  0  0
   20.7764    2.2952   15.4151 H   0  0  0  0  0  0  0  0  0  0  0  0
   22.5424    2.3072   15.5796 H   0  0  0  0  0  0  0  0  0  0  0  0
   21.6444    0.8032   15.7482 H   0  0  0  0  0  0  0  0  0  0  0  0
   20.5961    0.6643   13.2550 C   0  0  0  0  0  0  0  0  0  0  0  0
   19.6972    1.2620   13.4013 H   0  0  0  0  0  0  0  0  0  0  0  0
   20.5054   -0.2489   13.8391 H   0  0  0  0  0  0  0  0  0  0  0  0
   20.6667    0.3866   12.2001 H   0  0  0  0  0  0  0  0  0  0  0  0
   23.1052    0.6106   13.5147 C   0  0  0  0  0  0  0  0  0  0  0  0
   23.0622   -0.2676   14.1558 H   0  0  0  0  0  0  0  0  0  0  0  0
   23.9853    1.1928   13.7831 H   0  0  0  0  0  0  0  0  0  0  0  0
   23.2170    0.2680   12.4818 H   0  0  0  0  0  0  0  0  0  0  0  0
   21.7006    5.0658    7.8451 C   0  0  0  0  0  0  0  0  0  0  0  0
   20.6462    5.1885    8.0942 H   0  0  0  0  0  0  0  0  0  0  0  0
   22.1977    5.9885    8.1388 H   0  0  0  0  0  0  0  0  0  0  0  0
   21.8390    4.8857    6.3374 C   0  0  0  0  0  0  0  0  0  0  0  0
   21.3904    5.7216    5.8040 H   0  0  0  0  0  0  0  0  0  0  0  0
   21.3481    3.9706    6.0155 H   0  0  0  0  0  0  0  0  0  0  0  0
   22.8864    4.8242    6.0553 H   0  0  0  0  0  0  0  0  0  0  0  0
   24.3686    3.4914    8.5944 C   0  0  0  0  0  0  0  0  0  0  0  0
   24.7344    2.5938    9.1053 H   0  0  0  0  0  0  0  0  0  0  0  0
   24.6177    3.3702    7.5389 H   0  0  0  0  0  0  0  0  0  0  0  0
   25.1076    4.7115    9.1392 C   0  0  0  0  0  0  0  0  0  0  0  0
   24.8925    4.8502   10.1962 H   0  0  0  0  0  0  0  0  0  0  0  0
   24.8048    5.6112    8.6088 H   0  0  0  0  0  0  0  0  0  0  0  0
   26.1826    4.5926    9.0210 H   0  0  0  0  0  0  0  0  0  0  0  0
   24.4091   -1.5328    5.1760 C   0  0  0  0  0  0  0  0  0  0  0  0
   24.0068   -2.5185    4.9544 H   0  0  0  0  0  0  0  0  0  0  0  0
   25.3681   -1.6515    5.6812 H   0  0  0  0  0  0  0  0  0  0  0  0
   24.5873   -1.0016    4.2418 H   0  0  0  0  0  0  0  0  0  0  0  0
  1  2  1  0  0  0  0
  1  6  1  0  0  0  0
  3  1  1  0  0  0  0
  4 11  1  0  0  0  0
  5 23  1  0  0  0  0
  6 24  1  0  0  0  0
  7 11  1  1  0  0  0
  7  8  1  0  0  0  0
  7  5  1  0  0  0  0
  8 12  1  1  0  0  0
  8  1  1  0  0  0  0
  9 16  1  6  0  0  0
  9  8  1  0  0  0  0
 10 11  2  0  0  0  0
 10  9  1  0  0  0  0
 12 14  1  0  0  0  0
 12 15  1  0  0  0  0
 13 12  1  0  0  0  0
 16 18  1  0  0  0  0
 17 16  1  0  0  0  0
 19 16  1  0  0  0  0
 20 10  1  0  0  0  0
 21 20  1  0  0  0  0
 22  4  1  0  0  0  0
 22 20  2  0  0  0  0
 23 29  2  0  0  0  0
 23 24  1  0  0  0  0
 24 25  2  0  0  0  0
 25 26  1  0  0  0  0
 25 35  1  0  0  0  0
 26 27  1  0  0  0  0
 28 31  1  0  0  0  0
 28 26  2  0  0  0  0
 29 28  1  0  0  0  0
 30 29  1  0  0  0  0
 31 34  1  0  0  0  0
 31 32  1  0  0  0  0
 33 31  1  0  0  0  0
 35 36  1  0  0  0  0
 36 37  1  0  0  0  0
 36 38  1  0  0  0  0
 36 39  1  0  0  0  0
 40 41  1  0  0  0  0
 40 35  1  0  0  0  0
 40 42  1  0  0  0  0
 43 40  1  0  0  0  0
 44 35  1  0  0  0  0
 44 46  1  0  0  0  0
 44 45  1  0  0  0  0
 47 44  1  0  0  0  0
 48 49  1  0  0  0  0
 48 50  1  0  0  0  0
 48  5  1  0  0  0  0
 51 48  1  0  0  0  0
 52 51  1  0  0  0  0
 53 51  1  0  0  0  0
 54 51  1  0  0  0  0
 55  5  1  0  0  0  0
 55 56  1  0  0  0  0
 55 58  1  0  0  0  0
 57 55  1  0  0  0  0
 58 59  1  0  0  0  0
 60 58  1  0  0  0  0
 61 58  1  0  0  0  0
 62 64  1  0  0  0  0
 62 22  1  0  0  0  0
 63 62  1  0  0  0  0
 65 62  1  0  0  0  0
M  END
$$$$
