CSD_code = ZELDUR | q = 0 | S = 0 | Stoichiometry = C26H32Cl2OS2SiTi | MND = 8
 OpenBabel04212202133D

 65 69  0  0  0  0  0  0  0  0999 V2000
    5.0249    2.2872   22.1871 Ti  0  0  0  0  0  0  0  0  0  0  0  0
    6.4290    2.7325   23.7999 Cl  0  0  0  0  0  0  0  0  0  0  0  0
    6.4811    2.5951   20.5932 Cl  0  0  0  0  0  0  0  0  0  0  0  0
    5.2486   -0.4831   19.8935 S   0  0  0  0  0  0  0  0  0  0  0  0
    2.1890    1.7640   24.1449 S   0  0  0  0  0  0  0  0  0  0  0  0
    2.2424    1.9718   20.2974 Si  0  0  0  0  0  0  0  0  0  0  0  0
    4.0406    3.6129   22.0065 O   0  0  0  0  0  0  0  0  0  0  0  0
    3.2880    0.9928   21.5224 C   0  0  0  0  0  0  0  0  0  0  0  0
    3.2532    1.0891   22.9443 C   0  0  0  0  0  0  0  0  0  0  0  0
    4.3928    0.4727   23.5471 C   0  0  0  0  0  0  0  0  0  0  0  0
    5.1837   -0.0517   22.4755 C   0  0  0  0  0  0  0  0  0  0  0  0
    4.4845    0.2522   21.2681 C   0  0  0  0  0  0  0  0  0  0  0  0
    3.2630    1.2065   25.4316 C   0  0  0  0  0  0  0  0  0  0  0  0
    4.3545    0.5494   24.9695 C   0  0  0  0  0  0  0  0  0  0  0  0
    5.1155    0.1423   25.6143 H   0  0  0  0  0  0  0  0  0  0  0  0
    6.3517   -0.8313   22.2358 C   0  0  0  0  0  0  0  0  0  0  0  0
    7.0293   -1.1542   23.0092 H   0  0  0  0  0  0  0  0  0  0  0  0
    6.5232   -1.1276   20.9227 C   0  0  0  0  0  0  0  0  0  0  0  0
    1.8887    3.6699   21.0847 C   0  0  0  0  0  0  0  0  0  0  0  0
    2.8979    4.2728   21.8583 C   0  0  0  0  0  0  0  0  0  0  0  0
    2.6954    5.5238   22.4772 C   0  0  0  0  0  0  0  0  0  0  0  0
    1.4782    6.1508   22.2636 C   0  0  0  0  0  0  0  0  0  0  0  0
    1.2873    7.1135   22.7089 H   0  0  0  0  0  0  0  0  0  0  0  0
    0.4690    5.5843   21.4929 C   0  0  0  0  0  0  0  0  0  0  0  0
    0.6853    4.3405   20.9241 C   0  0  0  0  0  0  0  0  0  0  0  0
   -0.0961    3.8792   20.3400 H   0  0  0  0  0  0  0  0  0  0  0  0
   -0.8187    6.3191   21.2730 C   0  0  0  0  0  0  0  0  0  0  0  0
   -1.0846    6.9079   22.1479 H   0  0  0  0  0  0  0  0  0  0  0  0
   -1.6270    5.6259   21.0540 H   0  0  0  0  0  0  0  0  0  0  0  0
   -0.7190    7.0005   20.4274 H   0  0  0  0  0  0  0  0  0  0  0  0
    3.7719    6.1049   23.3856 C   0  0  0  0  0  0  0  0  0  0  0  0
    3.9196    5.1715   24.5985 C   0  0  0  0  0  0  0  0  0  0  0  0
    2.9728    5.1032   25.1328 H   0  0  0  0  0  0  0  0  0  0  0  0
    4.6776    5.5588   25.2761 H   0  0  0  0  0  0  0  0  0  0  0  0
    4.2202    4.1659   24.2921 H   0  0  0  0  0  0  0  0  0  0  0  0
    3.4060    7.5002   23.9041 C   0  0  0  0  0  0  0  0  0  0  0  0
    2.5007    7.4735   24.5057 H   0  0  0  0  0  0  0  0  0  0  0  0
    3.2715    8.2007   23.0832 H   0  0  0  0  0  0  0  0  0  0  0  0
    4.2126    7.8699   24.5334 H   0  0  0  0  0  0  0  0  0  0  0  0
    5.1077    6.2243   22.6334 C   0  0  0  0  0  0  0  0  0  0  0  0
    4.9802    6.8345   21.7404 H   0  0  0  0  0  0  0  0  0  0  0  0
    5.5024    5.2483   22.3345 H   0  0  0  0  0  0  0  0  0  0  0  0
    5.8468    6.7005   23.2747 H   0  0  0  0  0  0  0  0  0  0  0  0
    0.6214    0.9973   19.9945 C   0  0  0  0  0  0  0  0  0  0  0  0
    0.8341   -0.0719   20.0263 H   0  0  0  0  0  0  0  0  0  0  0  0
   -0.0858    1.1951   20.8009 H   0  0  0  0  0  0  0  0  0  0  0  0
   -0.0394    1.3164   18.6598 C   0  0  0  0  0  0  0  0  0  0  0  0
   -0.2828    2.3728   18.5865 H   0  0  0  0  0  0  0  0  0  0  0  0
   -0.9599    0.7477   18.5401 H   0  0  0  0  0  0  0  0  0  0  0  0
    0.6239    1.0641   17.8376 H   0  0  0  0  0  0  0  0  0  0  0  0
    3.3212    2.2396   18.7321 C   0  0  0  0  0  0  0  0  0  0  0  0
    4.3613    2.3990   19.0373 H   0  0  0  0  0  0  0  0  0  0  0  0
    3.3128    1.3399   18.1145 H   0  0  0  0  0  0  0  0  0  0  0  0
    2.8828    3.4336   17.8855 C   0  0  0  0  0  0  0  0  0  0  0  0
    2.9243    4.3495   18.4710 H   0  0  0  0  0  0  0  0  0  0  0  0
    1.8654    3.3058   17.5255 H   0  0  0  0  0  0  0  0  0  0  0  0
    3.5378    3.5487   17.0243 H   0  0  0  0  0  0  0  0  0  0  0  0
    7.6370   -1.8820   20.2908 C   0  0  0  0  0  0  0  0  0  0  0  0
    8.2917   -2.2944   21.0547 H   0  0  0  0  0  0  0  0  0  0  0  0
    8.2205   -1.2229   19.6475 H   0  0  0  0  0  0  0  0  0  0  0  0
    7.2515   -2.6939   19.6751 H   0  0  0  0  0  0  0  0  0  0  0  0
    2.9104    1.5216   26.8408 C   0  0  0  0  0  0  0  0  0  0  0  0
    3.0047    2.5928   27.0226 H   0  0  0  0  0  0  0  0  0  0  0  0
    3.5767    0.9942   27.5191 H   0  0  0  0  0  0  0  0  0  0  0  0
    1.8816    1.2345   27.0538 H   0  0  0  0  0  0  0  0  0  0  0  0
  1  2  1  0  0  0  0
  3  1  1  0  0  0  0
  4 18  1  0  0  0  0
  4 12  1  0  0  0  0
  5 13  1  0  0  0  0
  6 19  1  0  0  0  0
  6  8  1  0  0  0  0
  7  1  1  0  0  0  0
  8  1  1  0  0  0  0
  8  9  1  0  0  0  0
  9 10  2  0  0  0  0
  9  5  1  0  0  0  0
 10 14  1  0  0  0  0
 11 10  1  0  0  0  0
 12  8  1  0  0  0  0
 12 11  2  0  0  0  0
 13 62  1  0  0  0  0
 14 13  2  0  0  0  0
 14 15  1  0  0  0  0
 16 11  1  0  0  0  0
 16 17  1  0  0  0  0
 18 16  2  0  0  0  0
 19 20  1  0  0  0  0
 20  7  1  0  0  0  0
 20 21  2  0  0  0  0
 21 31  1  0  0  0  0
 22 21  1  0  0  0  0
 22 23  1  0  0  0  0
 24 22  2  0  0  0  0
 25 19  2  0  0  0  0
 25 24  1  0  0  0  0
 26 25  1  0  0  0  0
 27 24  1  0  0  0  0
 27 28  1  0  0  0  0
 29 27  1  0  0  0  0
 30 27  1  0  0  0  0
 31 36  1  0  0  0  0
 31 32  1  0  0  0  0
 32 33  1  0  0  0  0
 32 34  1  0  0  0  0
 35 32  1  0  0  0  0
 36 37  1  0  0  0  0
 36 39  1  0  0  0  0
 38 36  1  0  0  0  0
 40 43  1  0  0  0  0
 40 31  1  0  0  0  0
 41 40  1  0  0  0  0
 42 40  1  0  0  0  0
 44 45  1  0  0  0  0
 44  6  1  0  0  0  0
 44 46  1  0  0  0  0
 47 44  1  0  0  0  0
 48 47  1  0  0  0  0
 49 47  1  0  0  0  0
 50 47  1  0  0  0  0
 51 52  1  0  0  0  0
 51  6  1  0  0  0  0
 53 51  1  0  0  0  0
 54 55  1  0  0  0  0
 54 51  1  0  0  0  0
 56 54  1  0  0  0  0
 57 54  1  0  0  0  0
 58 18  1  0  0  0  0
 58 59  1  0  0  0  0
 60 58  1  0  0  0  0
 61 58  1  0  0  0  0
 62 63  1  0  0  0  0
 62 65  1  0  0  0  0
 62 64  1  0  0  0  0
M  END
$$$$
