CSD_code = ZELFUT | q = 0 | S = 0 | Stoichiometry = C14H18Cl2N2PdS | MND = 4
 OpenBabel04212202133D

 38 40  0  0  0  0  0  0  0  0999 V2000
    4.2781    0.5680    9.6494 Pd  0  0  0  0  0  0  0  0  0  0  0  0
    6.3285   -0.1950    9.2031 Cl  0  0  0  0  0  0  0  0  0  0  0  0
    4.9973    2.6960    9.6151 Cl  0  0  0  0  0  0  0  0  0  0  0  0
    2.1797    1.3015   10.5050 S   0  0  1  0  0  3  0  0  0  0  0  0
    2.1272   -1.3486    9.9847 N   0  0  0  0  0  0  0  0  0  0  0  0
    3.5517   -2.2329    8.6378 N   0  0  0  0  0  0  0  0  0  0  0  0
    1.4095    1.6367    8.8926 C   0  0  0  0  0  0  0  0  0  0  0  0
    0.3614    1.8856    9.0357 H   0  0  0  0  0  0  0  0  0  0  0  0
    1.5212    0.7809    8.2295 H   0  0  0  0  0  0  0  0  0  0  0  0
    1.9460    2.4915    8.4848 H   0  0  0  0  0  0  0  0  0  0  0  0
    1.5203   -0.3844   10.8517 C   0  0  0  0  0  0  0  0  0  0  0  0
    1.7682   -0.5717   11.9025 H   0  0  0  0  0  0  0  0  0  0  0  0
    0.4358   -0.3839   10.7207 H   0  0  0  0  0  0  0  0  0  0  0  0
    3.3791   -1.1995    9.4761 C   0  0  0  0  0  0  0  0  0  0  0  0
    2.4395   -3.0354    8.6330 C   0  0  0  0  0  0  0  0  0  0  0  0
    2.3731   -3.9128    8.0231 H   0  0  0  0  0  0  0  0  0  0  0  0
    1.5382   -2.4810    9.4758 C   0  0  0  0  0  0  0  0  0  0  0  0
    0.5522   -2.7916    9.7534 H   0  0  0  0  0  0  0  0  0  0  0  0
    4.6766   -2.4318    7.7874 C   0  0  0  0  0  0  0  0  0  0  0  0
    4.8497   -1.5939    6.6855 C   0  0  0  0  0  0  0  0  0  0  0  0
    5.9301   -1.8291    5.8499 C   0  0  0  0  0  0  0  0  0  0  0  0
    6.0849   -1.1817    4.9996 H   0  0  0  0  0  0  0  0  0  0  0  0
    6.8271   -2.8577    6.0954 C   0  0  0  0  0  0  0  0  0  0  0  0
    6.6354   -3.6625    7.2099 C   0  0  0  0  0  0  0  0  0  0  0  0
    7.3433   -4.4501    7.4226 H   0  0  0  0  0  0  0  0  0  0  0  0
    5.5694   -3.4631    8.0707 C   0  0  0  0  0  0  0  0  0  0  0  0
    3.9274   -0.4371    6.4357 C   0  0  0  0  0  0  0  0  0  0  0  0
    4.0912   -0.0294    5.4421 H   0  0  0  0  0  0  0  0  0  0  0  0
    4.1428    0.3680    7.1717 H   0  0  0  0  0  0  0  0  0  0  0  0
    2.8809   -0.7352    6.5235 H   0  0  0  0  0  0  0  0  0  0  0  0
    8.0088   -3.0734    5.2023 C   0  0  0  0  0  0  0  0  0  0  0  0
    7.8436   -2.6345    4.2216 H   0  0  0  0  0  0  0  0  0  0  0  0
    8.2210   -4.1343    5.0871 H   0  0  0  0  0  0  0  0  0  0  0  0
    8.8865   -2.6008    5.6426 H   0  0  0  0  0  0  0  0  0  0  0  0
    5.4044   -4.2880    9.3103 C   0  0  0  0  0  0  0  0  0  0  0  0
    6.2155   -5.0045    9.4001 H   0  0  0  0  0  0  0  0  0  0  0  0
    4.4602   -4.8323    9.3097 H   0  0  0  0  0  0  0  0  0  0  0  0
    5.4207   -3.6351   10.1825 H   0  0  0  0  0  0  0  0  0  0  0  0
  1  4  1  0  0  0  0
  2  1  1  0  0  0  0
  3  1  1  0  0  0  0
  4  7  1  6  0  0  0
  4 11  1  0  0  0  0
  5 11  1  0  0  0  0
  6 14  1  0  0  0  0
  7  8  1  0  0  0  0
  9  7  1  0  0  0  0
 10  7  1  0  0  0  0
 11 12  1  0  0  0  0
 13 11  1  0  0  0  0
 14  1  2  0  0  0  0
 14  5  1  0  0  0  0
 15  6  1  0  0  0  0
 15 17  2  0  0  0  0
 16 15  1  0  0  0  0
 17 18  1  0  0  0  0
 17  5  1  0  0  0  0
 19 26  1  0  0  0  0
 19  6  1  0  0  0  0
 20 19  2  0  0  0  0
 21 23  2  0  0  0  0
 21 20  1  0  0  0  0
 22 21  1  0  0  0  0
 23 24  1  0  0  0  0
 24 25  1  0  0  0  0
 24 26  2  0  0  0  0
 26 35  1  0  0  0  0
 27 30  1  0  0  0  0
 27 20  1  0  0  0  0
 27 29  1  0  0  0  0
 28 27  1  0  0  0  0
 31 34  1  0  0  0  0
 31 23  1  0  0  0  0
 32 31  1  0  0  0  0
 33 31  1  0  0  0  0
 35 36  1  0  0  0  0
 35 38  1  0  0  0  0
 37 35  1  0  0  0  0
M  END
$$$$
