CSD_code = ZELGEE | q = 0 | S = 0 | Stoichiometry = C23H22Cl2IN4ORh | MND = 4
 OpenBabel04212202133D

 54 57  0  0  1  0  0  0  0  0999 V2000
    7.5729    2.5822    8.5157 I   0  0  0  0  0  0  0  0  0  0  0  0
    5.6437    3.4535    6.9394 Rh  0  0  1  0  0  0  0  0  0  0  0  0
   10.0343    4.3941    3.3595 Cl  0  0  0  0  0  0  0  0  0  0  0  0
    8.7716    7.5411    4.3094 Cl  0  0  0  0  0  0  0  0  0  0  0  0
    3.3216    4.3358    5.2984 O   0  0  0  0  0  1  0  0  0  0  0  0
    7.9658    3.8237    5.0196 N   0  0  0  0  0  0  0  0  0  0  0  0
    7.1729    5.7511    5.5876 N   0  0  0  0  0  0  0  0  0  0  0  0
    4.2384    1.0393    8.0368 N   0  0  0  0  0  0  0  0  0  0  0  0
    3.6588    2.7560    9.1849 N   0  0  0  0  0  0  0  0  0  0  0  0
    4.2411    3.9992    5.9170 C   0  0  0  0  0  2  0  0  0  0  0  0
    7.0017    4.4174    5.7639 C   0  0  2  0  0  3  0  0  0  0  0  0
    8.7337    4.7704    4.3915 C   0  0  0  0  0  0  0  0  0  0  0  0
    8.2407    5.9856    4.7566 C   0  0  0  0  0  0  0  0  0  0  0  0
    8.1319    2.3986    4.8321 C   0  0  0  0  0  0  0  0  0  0  0  0
    7.5521    1.9626    3.5121 C   0  0  0  0  0  0  0  0  0  0  0  0
    6.1833    2.0785    3.3035 C   0  0  0  0  0  0  0  0  0  0  0  0
    5.6245    1.7116    2.0940 C   0  0  0  0  0  0  0  0  0  0  0  0
    6.4318    1.2198    1.0811 C   0  0  0  0  0  0  0  0  0  0  0  0
    7.7948    1.0936    1.2856 C   0  0  0  0  0  0  0  0  0  0  0  0
    8.3547    1.4656    2.4960 C   0  0  0  0  0  0  0  0  0  0  0  0
    6.3742    6.7918    6.2022 C   0  0  0  0  0  0  0  0  0  0  0  0
    6.8887    7.1113    7.5837 C   0  0  0  0  0  0  0  0  0  0  0  0
    7.6815    8.2243    7.8199 C   0  0  0  0  0  0  0  0  0  0  0  0
    8.1784    8.4634    9.0900 C   0  0  0  0  0  0  0  0  0  0  0  0
    7.8958    7.5879   10.1242 C   0  0  0  0  0  0  0  0  0  0  0  0
    7.1060    6.4738    9.8917 C   0  0  0  0  0  0  0  0  0  0  0  0
    6.5999    6.2430    8.6271 C   0  0  0  0  0  0  0  0  0  0  0  0
    4.3906    2.3774    8.1161 C   0  0  0  0  0  0  0  0  0  0  0  0
    3.4317    0.5857    9.0446 C   0  0  0  0  0  0  0  0  0  0  0  0
    3.0662    1.6677    9.7690 C   0  0  0  0  0  0  0  0  0  0  0  0
    4.8894    0.2011    7.0680 C   0  0  0  0  0  0  0  0  0  0  0  0
    3.5540    4.1020    9.6768 C   0  0  0  0  0  0  0  0  0  0  0  0
    7.6003    1.9053    5.6551 H   0  0  0  0  0  0  0  0  0  0  0  0
    9.1950    2.1562    4.8953 H   0  0  0  0  0  0  0  0  0  0  0  0
    5.5577    2.4633    4.1025 H   0  0  0  0  0  0  0  0  0  0  0  0
    4.5598    1.8082    1.9412 H   0  0  0  0  0  0  0  0  0  0  0  0
    5.9980    0.9339    0.1344 H   0  0  0  0  0  0  0  0  0  0  0  0
    8.4261    0.7078    0.4988 H   0  0  0  0  0  0  0  0  0  0  0  0
    9.4192    1.3670    2.6513 H   0  0  0  0  0  0  0  0  0  0  0  0
    5.3444    6.4212    6.2619 H   0  0  0  0  0  0  0  0  0  0  0  0
    6.4100    7.6727    5.5583 H   0  0  0  0  0  0  0  0  0  0  0  0
    7.9122    8.9036    7.0118 H   0  0  0  0  0  0  0  0  0  0  0  0
    8.7950    9.3317    9.2694 H   0  0  0  0  0  0  0  0  0  0  0  0
    8.2945    7.7711   11.1108 H   0  0  0  0  0  0  0  0  0  0  0  0
    6.8981    5.7813   10.6933 H   0  0  0  0  0  0  0  0  0  0  0  0
    5.9841    5.3627    8.4212 H   0  0  0  0  0  0  0  0  0  0  0  0
    3.1888   -0.4500    9.1629 H   0  0  0  0  0  0  0  0  0  0  0  0
    2.4445    1.7511   10.6364 H   0  0  0  0  0  0  0  0  0  0  0  0
    4.1918   -0.5397    6.6769 H   0  0  0  0  0  0  0  0  0  0  0  0
    5.7428   -0.3102    7.5207 H   0  0  0  0  0  0  0  0  0  0  0  0
    5.2485    0.8352    6.2483 H   0  0  0  0  0  0  0  0  0  0  0  0
    4.3656    4.3195   10.3762 H   0  0  0  0  0  0  0  0  0  0  0  0
    2.6010    4.2358   10.1871 H   0  0  0  0  0  0  0  0  0  0  0  0
    3.6145    4.7981    8.8367 H   0  0  0  0  0  0  0  0  0  0  0  0
  2 28  2  0  0  0  0
  2  1  1  1  0  0  0
  3 12  1  0  0  0  0
  4 13  1  0  0  0  0
  5 10  1  0  0  0  0
  6 11  1  0  0  0  0
  7 11  1  0  0  0  0
  7 21  1  0  0  0  0
  8 28  1  0  0  0  0
  8 29  1  0  0  0  0
  9 32  1  0  0  0  0
  9 30  1  0  0  0  0
 10  2  1  0  0  0  0
 11  2  1  1  0  0  0
 12 13  2  0  0  0  0
 12  6  1  0  0  0  0
 13  7  1  0  0  0  0
 14 34  1  0  0  0  0
 14  6  1  0  0  0  0
 14 33  1  0  0  0  0
 15 14  1  0  0  0  0
 16 15  1  0  0  0  0
 16 35  1  0  0  0  0
 17 16  2  0  0  0  0
 18 19  2  0  0  0  0
 18 17  1  0  0  0  0
 19 20  1  0  0  0  0
 20 39  1  0  0  0  0
 20 15  2  0  0  0  0
 21 40  1  0  0  0  0
 21 22  1  0  0  0  0
 22 23  2  0  0  0  0
 22 27  1  0  0  0  0
 23 24  1  0  0  0  0
 24 43  1  0  0  0  0
 24 25  2  0  0  0  0
 25 44  1  0  0  0  0
 26 25  1  0  0  0  0
 26 45  1  0  0  0  0
 27 26  2  0  0  0  0
 28  9  1  0  0  0  0
 29 47  1  0  0  0  0
 29 30  2  0  0  0  0
 30 48  1  0  0  0  0
 31 50  1  0  0  0  0
 31  8  1  0  0  0  0
 32 53  1  0  0  0  0
 32 52  1  0  0  0  0
 36 17  1  0  0  0  0
 37 18  1  0  0  0  0
 38 19  1  0  0  0  0
 41 21  1  0  0  0  0
 42 23  1  0  0  0  0
 46 27  1  0  0  0  0
 49 31  1  0  0  0  0
 51 31  1  0  0  0  0
 54 32  1  0  0  0  0
M  END
$$$$
