CSD_code = ZELGOO | q = 0 | S = 0 | Stoichiometry = C25H33ClTi | MND = 12
 OpenBabel04212202133D

 60 63  0  0  1  0  0  0  0  0999 V2000
    8.2915    3.8600    2.2760 Ti  0  0  0  0  0  0  0  0  0  0  0  0
    7.2747    3.6762    4.2472 Cl  0  0  0  0  0  0  0  0  0  0  0  0
    7.1583    5.2253    1.1996 C   0  0  1  0  0  0  0  0  0  0  0  0
    7.8131    4.4975    0.1380 C   0  0  0  0  0  0  0  0  0  0  0  0
    8.5518    4.9047   -0.5393 H   0  0  0  0  0  0  0  0  0  0  0  0
    7.1976    3.2528    0.0128 C   0  0  0  0  0  0  0  0  0  0  0  0
    7.4011    2.5145   -0.7499 H   0  0  0  0  0  0  0  0  0  0  0  0
    6.1701    3.1582    0.9773 C   0  0  0  0  0  0  0  0  0  0  0  0
    5.4768    2.3334    1.0780 H   0  0  0  0  0  0  0  0  0  0  0  0
    6.1071    4.3639    1.6734 C   0  0  0  0  0  0  0  0  0  0  0  0
    5.3474    4.6225    2.3990 H   0  0  0  0  0  0  0  0  0  0  0  0
    7.9136    6.0582    2.1052 C   0  0  1  0  0  3  0  0  0  0  0  0
    8.9236    7.0294    1.5174 C   0  0  1  0  0  0  0  0  0  0  0  0
    9.5153    6.5470    0.7287 H   0  0  0  0  0  0  0  0  0  0  0  0
    8.1599    8.2111    0.8973 C   0  0  0  0  0  0  0  0  0  0  0  0
    8.8680    8.9103    0.4440 H   0  0  0  0  0  0  0  0  0  0  0  0
    7.4941    7.8433    0.1125 H   0  0  0  0  0  0  0  0  0  0  0  0
    7.3478    8.9180    1.9799 C   0  0  1  0  0  0  0  0  0  0  0  0
    6.7994    9.7563    1.5340 H   0  0  0  0  0  0  0  0  0  0  0  0
    6.3606    7.9302    2.5951 C   0  0  0  0  0  0  0  0  0  0  0  0
    5.7670    8.4262    3.3669 H   0  0  0  0  0  0  0  0  0  0  0  0
    5.6777    7.5569    1.8278 H   0  0  0  0  0  0  0  0  0  0  0  0
    7.1313    6.7534    3.2128 C   0  0  2  0  0  0  0  0  0  0  0  0
    6.4167    6.0690    3.6786 H   0  0  0  0  0  0  0  0  0  0  0  0
    8.0751    7.2745    4.2968 C   0  0  0  0  0  0  0  0  0  0  0  0
    8.6179    6.4294    4.7314 H   0  0  0  0  0  0  0  0  0  0  0  0
    7.4949    7.7509    5.0902 H   0  0  0  0  0  0  0  0  0  0  0  0
    9.0512    8.2745    3.6842 C   0  0  1  0  0  0  0  0  0  0  0  0
    9.7286    8.6525    4.4591 H   0  0  0  0  0  0  0  0  0  0  0  0
    9.8596    7.5581    2.6070 C   0  0  0  0  0  0  0  0  0  0  0  0
   10.5933    8.2387    2.1671 H   0  0  0  0  0  0  0  0  0  0  0  0
   10.3891    6.7220    3.0645 H   0  0  0  0  0  0  0  0  0  0  0  0
    8.2848    9.4432    3.0668 C   0  0  0  0  0  0  0  0  0  0  0  0
    7.7069    9.9580    3.8377 H   0  0  0  0  0  0  0  0  0  0  0  0
    8.9867   10.1630    2.6383 H   0  0  0  0  0  0  0  0  0  0  0  0
   10.6464    3.9355    2.0906 C   0  0  0  0  0  0  0  0  0  0  0  0
   10.2862    3.4982    3.3993 C   0  0  1  0  0  3  0  0  0  0  0  0
    9.5914    2.2615    3.2691 C   0  0  0  0  0  0  0  0  0  0  0  0
    9.4840    1.9536    1.8886 C   0  0  0  0  0  0  0  0  0  0  0  0
   10.1442    2.9766    1.1595 C   0  0  0  0  0  0  0  0  0  0  0  0
   11.7528    4.8926    1.7428 C   0  0  0  0  0  0  0  0  0  0  0  0
   12.1156    5.4191    2.6217 H   0  0  0  0  0  0  0  0  0  0  0  0
   11.4624    5.6272    0.9931 H   0  0  0  0  0  0  0  0  0  0  0  0
   12.5881    4.3183    1.3337 H   0  0  0  0  0  0  0  0  0  0  0  0
   10.7046    4.0964    4.7106 C   0  0  0  0  0  0  0  0  0  0  0  0
   11.4785    3.4786    5.1723 H   0  0  0  0  0  0  0  0  0  0  0  0
   11.1017    5.1020    4.5838 H   0  0  0  0  0  0  0  0  0  0  0  0
    9.8557    4.1440    5.3952 H   0  0  0  0  0  0  0  0  0  0  0  0
    9.2280    1.3232    4.3807 C   0  0  0  0  0  0  0  0  0  0  0  0
    9.1613    1.8469    5.3314 H   0  0  0  0  0  0  0  0  0  0  0  0
    9.9953    0.5488    4.4653 H   0  0  0  0  0  0  0  0  0  0  0  0
    8.2718    0.8353    4.1902 H   0  0  0  0  0  0  0  0  0  0  0  0
    8.9214    0.6678    1.3563 C   0  0  0  0  0  0  0  0  0  0  0  0
    8.9230    0.6544    0.2686 H   0  0  0  0  0  0  0  0  0  0  0  0
    9.5269   -0.1717    1.7054 H   0  0  0  0  0  0  0  0  0  0  0  0
    7.8989    0.5073    1.7076 H   0  0  0  0  0  0  0  0  0  0  0  0
   10.5721    2.9028   -0.2772 C   0  0  0  0  0  0  0  0  0  0  0  0
   10.7641    3.8932   -0.6862 H   0  0  0  0  0  0  0  0  0  0  0  0
    9.8314    2.4080   -0.9020 H   0  0  0  0  0  0  0  0  0  0  0  0
   11.5015    2.3301   -0.3455 H   0  0  0  0  0  0  0  0  0  0  0  0
  1  2  1  0  0  0  0
  3 10  1  0  0  0  0
  3  1  1  1  0  0  0
  4  3  1  0  0  0  0
  5  4  1  0  0  0  0
  6  4  2  0  0  0  0
  6  8  1  0  0  0  0
  7  6  1  0  0  0  0
  8  9  1  0  0  0  0
  8 10  2  0  0  0  0
 10 11  1  0  0  0  0
 12  3  1  6  0  0  0
 12 23  1  0  0  0  0
 13 14  1  6  0  0  0
 13 12  1  0  0  0  0
 13 30  1  0  0  0  0
 15 13  1  0  0  0  0
 15 18  1  0  0  0  0
 16 15  1  0  0  0  0
 17 15  1  0  0  0  0
 18 19  1  6  0  0  0
 18 20  1  0  0  0  0
 18 33  1  0  0  0  0
 20 23  1  0  0  0  0
 20 21  1  0  0  0  0
 22 20  1  0  0  0  0
 23 24  1  1  0  0  0
 23 25  1  0  0  0  0
 25 26  1  0  0  0  0
 25 27  1  0  0  0  0
 28 25  1  0  0  0  0
 28 29  1  1  0  0  0
 30 32  1  0  0  0  0
 30 28  1  0  0  0  0
 31 30  1  0  0  0  0
 33 28  1  0  0  0  0
 33 34  1  0  0  0  0
 35 33  1  0  0  0  0
 36 37  1  0  0  0  0
 37 45  1  1  0  0  0
 38 37  1  0  0  0  0
 38 49  1  0  0  0  0
 39 38  2  0  0  0  0
 40 39  1  0  0  0  0
 40 36  2  0  0  0  0
 41 36  1  0  0  0  0
 41 42  1  0  0  0  0
 43 41  1  0  0  0  0
 44 41  1  0  0  0  0
 45 46  1  0  0  0  0
 45 48  1  0  0  0  0
 47 45  1  0  0  0  0
 49 51  1  0  0  0  0
 49 50  1  0  0  0  0
 52 49  1  0  0  0  0
 53 55  1  0  0  0  0
 53 56  1  0  0  0  0
 53 39  1  0  0  0  0
 54 53  1  0  0  0  0
 57 40  1  0  0  0  0
 58 57  1  0  0  0  0
 59 57  1  0  0  0  0
 60 57  1  0  0  0  0
M  END
$$$$
