CSD_code = ZELHIJ | q = 0 | S = 0 | Stoichiometry = C14H26Cl2N2SiTi | MND = 9
 OpenBabel04212202133D

 46 47  0  0  1  0  0  0  0  0999 V2000
    5.7308    3.9354    3.2558 Ti  0  0  0  0  0  0  0  0  0  0  0  0
    4.2878    5.1228    2.8551 N   0  0  0  0  0  0  0  0  0  0  0  0
    4.6822    3.1023    1.3314 N   0  0  0  0  0  0  0  0  0  0  0  0
    4.7129    6.6818    3.4723 Si  0  0  0  0  0  0  0  0  0  0  0  0
    7.3964    3.7120    1.7604 Cl  0  0  0  0  0  0  0  0  0  0  0  0
    5.1237    1.9034    3.9119 Cl  0  0  0  0  0  0  0  0  0  0  0  0
    6.0045    5.8066    4.5445 C   0  0  1  0  0  3  0  0  0  0  0  0
    5.6042    4.6844    5.3485 C   0  0  2  0  0  0  0  0  0  0  0  0
    6.7269    3.8230    5.4987 C   0  0  0  0  0  0  0  0  0  0  0  0
    7.7846    4.3519    4.7295 C   0  0  0  0  0  0  0  0  0  0  0  0
    7.3410    5.5654    4.1436 C   0  0  2  0  0  3  0  0  0  0  0  0
    3.2080    4.8645    1.9377 C   0  0  0  0  0  0  0  0  0  0  0  0
    3.3069    5.4847    1.0286 H   0  0  0  0  0  0  0  0  0  0  0  0
    2.2368    5.1027    2.3960 H   0  0  0  0  0  0  0  0  0  0  0  0
    3.2698    3.3874    1.5504 C   0  0  0  0  0  0  0  0  0  0  0  0
    2.9207    2.7630    2.3824 H   0  0  0  0  0  0  0  0  0  0  0  0
    2.6584    3.1795    0.6580 H   0  0  0  0  0  0  0  0  0  0  0  0
    4.9206    1.7596    0.8124 C   0  0  0  0  0  0  0  0  0  0  0  0
    5.9928    1.6143    0.6726 H   0  0  0  0  0  0  0  0  0  0  0  0
    4.4089    1.6048   -0.1466 H   0  0  0  0  0  0  0  0  0  0  0  0
    4.5560    1.0230    1.5291 H   0  0  0  0  0  0  0  0  0  0  0  0
    5.3598    7.8199    2.0714 C   0  0  0  0  0  0  0  0  0  0  0  0
    4.5323    8.1399    1.4445 H   0  0  0  0  0  0  0  0  0  0  0  0
    6.0765    7.3020    1.4390 H   0  0  0  0  0  0  0  0  0  0  0  0
    5.8317    8.7160    2.4591 H   0  0  0  0  0  0  0  0  0  0  0  0
    3.3263    7.6430    4.3822 C   0  0  0  0  0  0  0  0  0  0  0  0
    2.9734    8.4645    3.7684 H   0  0  0  0  0  0  0  0  0  0  0  0
    3.6752    8.0614    5.3201 H   0  0  0  0  0  0  0  0  0  0  0  0
    2.4727    7.0087    4.5993 H   0  0  0  0  0  0  0  0  0  0  0  0
    4.3161    4.5399    6.1057 C   0  0  0  0  0  0  0  0  0  0  0  0
    3.5848    5.2643    5.7565 H   0  0  0  0  0  0  0  0  0  0  0  0
    4.4835    4.7023    7.1731 H   0  0  0  0  0  0  0  0  0  0  0  0
    3.9026    3.5363    5.9756 H   0  0  0  0  0  0  0  0  0  0  0  0
    6.8278    2.6589    6.4380 C   0  0  0  0  0  0  0  0  0  0  0  0
    7.3743    1.8311    5.9856 H   0  0  0  0  0  0  0  0  0  0  0  0
    5.8410    2.3003    6.7238 H   0  0  0  0  0  0  0  0  0  0  0  0
    7.3610    2.9629    7.3423 H   0  0  0  0  0  0  0  0  0  0  0  0
    9.1736    3.8005    4.6310 C   0  0  0  0  0  0  0  0  0  0  0  0
    9.5803    3.9591    3.6325 H   0  0  0  0  0  0  0  0  0  0  0  0
    9.1844    2.7326    4.8440 H   0  0  0  0  0  0  0  0  0  0  0  0
    9.8295    4.2982    5.3496 H   0  0  0  0  0  0  0  0  0  0  0  0
    8.2235    6.5004    3.3754 C   0  0  0  0  0  0  0  0  0  0  0  0
    9.1919    6.5838    3.8702 H   0  0  0  0  0  0  0  0  0  0  0  0
    7.7749    7.4886    3.3220 H   0  0  0  0  0  0  0  0  0  0  0  0
    8.4020    6.1376    2.3607 H   0  0  0  0  0  0  0  0  0  0  0  0
    5.0385    3.7697    0.6382 H   0  0  0  0  0  0  0  0  0  0  0  0
  1  6  1  0  0  0  0
  1  8  1  0  0  0  0
  2  1  1  0  0  0  0
  2  4  1  0  0  0  0
  3 15  1  0  0  0  0
  4 26  1  0  0  0  0
  5  1  1  0  0  0  0
  7  4  1  6  0  0  0
  7  8  1  0  0  0  0
  8  9  1  0  0  0  0
  8 30  1  1  0  0  0
  9 34  1  0  0  0  0
 10  9  2  0  0  0  0
 11 42  1  1  0  0  0
 11  7  1  0  0  0  0
 11 10  1  0  0  0  0
 12 14  1  0  0  0  0
 12  2  1  0  0  0  0
 13 12  1  0  0  0  0
 15 12  1  0  0  0  0
 15 16  1  0  0  0  0
 17 15  1  0  0  0  0
 18  3  1  0  0  0  0
 18 21  1  0  0  0  0
 19 18  1  0  0  0  0
 20 18  1  0  0  0  0
 22 25  1  0  0  0  0
 22  4  1  0  0  0  0
 23 22  1  0  0  0  0
 24 22  1  0  0  0  0
 26 29  1  0  0  0  0
 26 28  1  0  0  0  0
 27 26  1  0  0  0  0
 30 32  1  0  0  0  0
 31 30  1  0  0  0  0
 33 30  1  0  0  0  0
 34 36  1  0  0  0  0
 34 37  1  0  0  0  0
 35 34  1  0  0  0  0
 38 10  1  0  0  0  0
 38 40  1  0  0  0  0
 38 41  1  0  0  0  0
 39 38  1  0  0  0  0
 42 43  1  0  0  0  0
 44 42  1  0  0  0  0
 45 42  1  0  0  0  0
 46  3  1  0  0  0  0
M  END
$$$$
