CSD_code = ZELJOR | q = 0 | S = 0 | Stoichiometry = C28H24ClN3P2Pt | MND = 4
 OpenBabel04212202133D

 59 65  0  0  0  0  0  0  0  0999 V2000
    4.4450    4.8679    4.8957 Pt  0  0  1  0  0  0  0  0  0  0  0  0
    4.6107    6.6647    6.3062 P   0  0  0  0  0  4  0  0  0  0  0  0
    3.7424    2.7775    4.2797 P   0  0  0  0  0  4  0  0  0  0  0  0
    4.5514    5.8867    2.8126 Cl  0  0  0  0  0  0  0  0  0  0  0  0
    3.9580    2.5282    8.2708 N   0  0  0  0  0  0  0  0  0  0  0  0
    4.2428    3.6537    8.8296 N   0  0  0  0  0  0  0  0  0  0  0  0
    4.4778    4.5558    7.8690 N   0  0  0  0  0  0  0  0  0  0  0  0
    4.4031    1.7524    2.9423 C   0  0  0  0  0  0  0  0  0  0  0  0
    3.9812    0.4367    2.7732 C   0  0  0  0  0  0  0  0  0  0  0  0
    3.2440    0.0169    3.4439 H   0  0  0  0  0  0  0  0  0  0  0  0
    4.5052   -0.3201    1.7423 C   0  0  0  0  0  0  0  0  0  0  0  0
    4.1821   -1.3418    1.6064 H   0  0  0  0  0  0  0  0  0  0  0  0
    5.4439    0.2308    0.8821 C   0  0  0  0  0  0  0  0  0  0  0  0
    5.8489   -0.3660    0.0782 H   0  0  0  0  0  0  0  0  0  0  0  0
    5.8618    1.5407    1.0495 C   0  0  0  0  0  0  0  0  0  0  0  0
    6.5902    1.9676    0.3765 H   0  0  0  0  0  0  0  0  0  0  0  0
    5.3445    2.3041    2.0816 C   0  0  0  0  0  0  0  0  0  0  0  0
    5.6531    3.3317    2.2241 H   0  0  0  0  0  0  0  0  0  0  0  0
    1.9731    2.9340    3.9097 C   0  0  0  0  0  0  0  0  0  0  0  0
    1.0912    3.2312    4.9475 C   0  0  0  0  0  0  0  0  0  0  0  0
    1.4558    3.2869    5.9650 H   0  0  0  0  0  0  0  0  0  0  0  0
   -0.2455    3.4538    4.6752 C   0  0  0  0  0  0  0  0  0  0  0  0
   -0.9272    3.6786    5.4826 H   0  0  0  0  0  0  0  0  0  0  0  0
   -0.7080    3.3928    3.3702 C   0  0  0  0  0  0  0  0  0  0  0  0
   -1.7524    3.5693    3.1588 H   0  0  0  0  0  0  0  0  0  0  0  0
    0.1697    3.1142    2.3351 C   0  0  0  0  0  0  0  0  0  0  0  0
   -0.1889    3.0768    1.3172 H   0  0  0  0  0  0  0  0  0  0  0  0
    1.5089    2.8904    2.5995 C   0  0  0  0  0  0  0  0  0  0  0  0
    2.1996    2.6857    1.7938 H   0  0  0  0  0  0  0  0  0  0  0  0
    2.9169    7.3143    6.4430 C   0  0  0  0  0  0  0  0  0  0  0  0
    2.5952    8.3741    7.2845 C   0  0  0  0  0  0  0  0  0  0  0  0
    3.3701    8.8637    7.8582 H   0  0  0  0  0  0  0  0  0  0  0  0
    1.2843    8.8050    7.3729 C   0  0  0  0  0  0  0  0  0  0  0  0
    1.0327    9.6284    8.0250 H   0  0  0  0  0  0  0  0  0  0  0  0
    0.2940    8.1848    6.6264 C   0  0  0  0  0  0  0  0  0  0  0  0
   -0.7279    8.5255    6.7024 H   0  0  0  0  0  0  0  0  0  0  0  0
    0.6137    7.1368    5.7787 C   0  0  0  0  0  0  0  0  0  0  0  0
   -0.1534    6.6583    5.1882 H   0  0  0  0  0  0  0  0  0  0  0  0
    1.9237    6.7048    5.6835 C   0  0  0  0  0  0  0  0  0  0  0  0
    2.1935    5.8955    5.0029 H   0  0  0  0  0  0  0  0  0  0  0  0
    5.6398    8.1562    6.2644 C   0  0  0  0  0  0  0  0  0  0  0  0
    5.9112    8.6654    4.9968 C   0  0  0  0  0  0  0  0  0  0  0  0
    5.5388    8.1406    4.1263 H   0  0  0  0  0  0  0  0  0  0  0  0
    6.6596    9.8198    4.8633 C   0  0  0  0  0  0  0  0  0  0  0  0
    6.8701   10.2146    3.8809 H   0  0  0  0  0  0  0  0  0  0  0  0
    7.1430   10.4642    5.9909 C   0  0  0  0  0  0  0  0  0  0  0  0
    7.7296   11.3651    5.8887 H   0  0  0  0  0  0  0  0  0  0  0  0
    6.8825    9.9524    7.2519 C   0  0  0  0  0  0  0  0  0  0  0  0
    7.2664   10.4537    8.1285 H   0  0  0  0  0  0  0  0  0  0  0  0
    6.1321    8.7989    7.3955 C   0  0  0  0  0  0  0  0  0  0  0  0
    5.9362    8.4033    8.3820 H   0  0  0  0  0  0  0  0  0  0  0  0
    4.3434    3.9863    6.6545 C   0  0  0  0  0  0  0  0  0  0  0  0
    4.0047    2.6727    6.9296 C   0  0  0  0  0  0  0  0  0  0  0  0
    3.7844    1.7074    5.8105 C   0  0  0  0  0  0  0  0  0  0  0  0
    2.8602    1.1350    5.9251 H   0  0  0  0  0  0  0  0  0  0  0  0
    4.6210    1.0057    5.7295 H   0  0  0  0  0  0  0  0  0  0  0  0
    4.8662    5.9280    8.0159 C   0  0  0  0  0  0  0  0  0  0  0  0
    5.9254    5.9924    8.2990 H   0  0  0  0  0  0  0  0  0  0  0  0
    4.2563    6.4215    8.7805 H   0  0  0  0  0  0  0  0  0  0  0  0
  1  4  1  6  0  0  0
  1  2  1  0  0  0  0
  1 52  1  0  0  0  0
  2 30  1  0  0  0  0
  2 57  1  0  0  0  0
  3  1  1  0  0  0  0
  3 54  1  0  0  0  0
  5  6  2  0  0  0  0
  7 57  1  0  0  0  0
  7  6  1  0  0  0  0
  8  3  1  0  0  0  0
  9  8  1  0  0  0  0
  9 10  1  0  0  0  0
 11  9  2  0  0  0  0
 12 11  1  0  0  0  0
 13 15  2  0  0  0  0
 13 11  1  0  0  0  0
 14 13  1  0  0  0  0
 15 17  1  0  0  0  0
 16 15  1  0  0  0  0
 17 18  1  0  0  0  0
 17  8  2  0  0  0  0
 19  3  1  0  0  0  0
 19 20  1  0  0  0  0
 20 21  1  0  0  0  0
 22 20  2  0  0  0  0
 22 23  1  0  0  0  0
 24 22  1  0  0  0  0
 25 24  1  0  0  0  0
 26 28  1  0  0  0  0
 26 24  2  0  0  0  0
 27 26  1  0  0  0  0
 28 19  2  0  0  0  0
 29 28  1  0  0  0  0
 30 31  1  0  0  0  0
 31 33  2  0  0  0  0
 31 32  1  0  0  0  0
 33 34  1  0  0  0  0
 35 36  1  0  0  0  0
 35 33  1  0  0  0  0
 37 35  2  0  0  0  0
 38 37  1  0  0  0  0
 39 37  1  0  0  0  0
 39 30  2  0  0  0  0
 40 39  1  0  0  0  0
 41  2  1  0  0  0  0
 41 50  1  0  0  0  0
 42 41  2  0  0  0  0
 43 42  1  0  0  0  0
 44 42  1  0  0  0  0
 44 46  2  0  0  0  0
 45 44  1  0  0  0  0
 46 48  1  0  0  0  0
 47 46  1  0  0  0  0
 48 50  2  0  0  0  0
 48 49  1  0  0  0  0
 50 51  1  0  0  0  0
 52 53  2  0  0  0  0
 52  7  1  0  0  0  0
 53  5  1  0  0  0  0
 54 55  1  0  0  0  0
 54 53  1  0  0  0  0
 56 54  1  0  0  0  0
 57 58  1  0  0  0  0
 57 59  1  0  0  0  0
M  END
$$$$
