CSD_code = ZELKAE | q = 0 | S = 0 | Stoichiometry = C16H24Cl2N3PPdS | MND = 4
 OpenBabel04212202133D

 48 50  0  0  0  0  0  0  0  0999 V2000
   -1.7487    6.7189    6.0596 Pd  0  0  0  0  0  0  0  0  0  0  0  0
   -3.8922    6.1289    6.3200 Cl  0  0  0  0  0  0  0  0  0  0  0  0
   -1.1872    4.6986    5.1877 Cl  0  0  0  0  0  0  0  0  0  0  0  0
   -1.9606    8.4106    7.5662 P   0  0  0  0  0  4  0  0  0  0  0  0
    0.9285    9.4138    2.1556 S   0  0  0  0  0  0  0  0  0  0  0  0
    0.0783    7.4508    5.8086 N   0  0  0  0  0  0  0  0  0  0  0  0
    0.7092    7.2713    4.7093 N   0  0  0  0  0  2  0  0  0  0  0  0
    1.5090    8.3105    4.5194 N   0  0  0  0  0  0  0  0  0  0  0  0
    1.3725    9.1950    5.5403 C   0  0  0  0  0  0  0  0  0  0  0  0
    1.9153   10.1154    5.5809 H   0  0  0  0  0  0  0  0  0  0  0  0
    0.4473    8.6292    6.3827 C   0  0  0  0  0  0  0  0  0  0  0  0
   -0.2066    9.0759    7.6387 C   0  0  0  0  0  0  0  0  0  0  0  0
   -0.1744   10.1625    7.7364 H   0  0  0  0  0  0  0  0  0  0  0  0
    0.3037    8.6347    8.5004 H   0  0  0  0  0  0  0  0  0  0  0  0
    2.1119    8.4972    3.2487 C   0  0  0  0  0  0  0  0  0  0  0  0
    2.3124    7.5199    2.8105 H   0  0  0  0  0  0  0  0  0  0  0  0
    3.0128    9.1043    3.3125 H   0  0  0  0  0  0  0  0  0  0  0  0
   -0.4930    8.3668    2.4581 C   0  0  0  0  0  0  0  0  0  0  0  0
   -1.5186    8.8412    3.2637 C   0  0  0  0  0  0  0  0  0  0  0  0
   -1.4837    9.8589    3.6289 H   0  0  0  0  0  0  0  0  0  0  0  0
   -2.5775    7.9987    3.5818 C   0  0  0  0  0  0  0  0  0  0  0  0
   -3.4199    8.3662    4.1626 H   0  0  0  0  0  0  0  0  0  0  0  0
   -2.6060    6.6988    3.0767 C   0  0  0  0  0  0  0  0  0  0  0  0
   -3.4402    6.0500    3.3103 H   0  0  0  0  0  0  0  0  0  0  0  0
   -1.5839    6.2497    2.2531 C   0  0  0  0  0  0  0  0  0  0  0  0
   -1.6054    5.2425    1.8680 H   0  0  0  0  0  0  0  0  0  0  0  0
   -0.5253    7.0827    1.9385 C   0  0  0  0  0  0  0  0  0  0  0  0
    0.2764    6.7378    1.3030 H   0  0  0  0  0  0  0  0  0  0  0  0
   -3.0058    9.9420    7.6885 C   0  0  0  0  0  0  0  0  0  0  0  0
   -2.6364   10.5472    8.5256 H   0  0  0  0  0  0  0  0  0  0  0  0
   -4.4561    9.5241    7.9168 C   0  0  0  0  0  0  0  0  0  0  0  0
   -5.1245   10.3634    7.7340 H   0  0  0  0  0  0  0  0  0  0  0  0
   -4.6143    9.1805    8.9361 H   0  0  0  0  0  0  0  0  0  0  0  0
   -4.7210    8.7119    7.2383 H   0  0  0  0  0  0  0  0  0  0  0  0
   -2.8670   10.7323    6.3905 C   0  0  0  0  0  0  0  0  0  0  0  0
   -3.2863   10.1592    5.5661 H   0  0  0  0  0  0  0  0  0  0  0  0
   -1.8232   10.9521    6.1653 H   0  0  0  0  0  0  0  0  0  0  0  0
   -3.4061   11.6754    6.4610 H   0  0  0  0  0  0  0  0  0  0  0  0
   -2.1845    7.5435    9.1963 C   0  0  0  0  0  0  0  0  0  0  0  0
   -3.2368    7.2289    9.1863 H   0  0  0  0  0  0  0  0  0  0  0  0
   -1.9195    8.4109   10.4241 C   0  0  0  0  0  0  0  0  0  0  0  0
   -2.0852    7.8227   11.3250 H   0  0  0  0  0  0  0  0  0  0  0  0
   -2.5860    9.2692   10.4593 H   0  0  0  0  0  0  0  0  0  0  0  0
   -0.8919    8.7701   10.4456 H   0  0  0  0  0  0  0  0  0  0  0  0
   -1.3195    6.2781    9.1996 C   0  0  0  0  0  0  0  0  0  0  0  0
   -0.2546    6.5194    9.1858 H   0  0  0  0  0  0  0  0  0  0  0  0
   -1.5523    5.6427    8.3268 H   0  0  0  0  0  0  0  0  0  0  0  0
   -1.5199    5.6943   10.0965 H   0  0  0  0  0  0  0  0  0  0  0  0
  1  2  1  0  0  0  0
  1  4  1  0  0  0  0
  3  1  1  0  0  0  0
  4 12  1  0  0  0  0
  4 29  1  0  0  0  0
  4 39  1  0  0  0  0
  5 18  1  0  0  0  0
  5 15  1  0  0  0  0
  6  1  1  0  0  0  0
  6 11  1  0  0  0  0
  7  6  1  0  0  0  0
  8  7  1  0  0  0  0
  8  9  1  0  0  0  0
  9 10  1  0  0  0  0
  9 11  2  0  0  0  0
 11 12  1  0  0  0  0
 12 13  1  0  0  0  0
 12 14  1  0  0  0  0
 15 17  1  0  0  0  0
 15  8  1  0  0  0  0
 16 15  1  0  0  0  0
 18 19  1  0  0  0  0
 19 21  2  0  0  0  0
 19 20  1  0  0  0  0
 21 22  1  0  0  0  0
 23 24  1  0  0  0  0
 23 21  1  0  0  0  0
 25 23  2  0  0  0  0
 26 25  1  0  0  0  0
 27 25  1  0  0  0  0
 27 18  2  0  0  0  0
 28 27  1  0  0  0  0
 29 31  1  0  0  0  0
 29 30  1  0  0  0  0
 31 33  1  0  0  0  0
 32 31  1  0  0  0  0
 34 31  1  0  0  0  0
 35 38  1  0  0  0  0
 35 29  1  0  0  0  0
 36 35  1  0  0  0  0
 37 35  1  0  0  0  0
 39 45  1  0  0  0  0
 39 41  1  0  0  0  0
 40 39  1  0  0  0  0
 41 44  1  0  0  0  0
 41 43  1  0  0  0  0
 41 42  1  0  0  0  0
 45 48  1  0  0  0  0
 46 45  1  0  0  0  0
 47 45  1  0  0  0  0
M  END
$$$$
