CSD_code = ZELLIN | q = 0 | S = 0 | Stoichiometry = C11H14AuClN2O2 | MND = 4
 OpenBabel04212202133D

 31 33  0  0  1  0  0  0  0  0999 V2000
   -1.0687   -4.7817    4.4387 Au  0  0  1  0  0  0  0  0  0  0  0  0
    0.3899   -3.9904    5.9290 Cl  0  0  0  0  0  0  0  0  0  0  0  0
   -3.6776   -4.7012    1.4102 O   0  0  0  0  0  0  0  0  0  0  0  0
   -1.3151   -6.5095    5.2073 O   0  0  0  0  0  0  0  0  0  0  0  0
   -1.1553   -3.1161    3.3551 N   0  0  0  0  0  0  0  0  0  0  0  0
   -2.3396   -5.4013    3.1352 N   0  0  0  0  0  0  0  0  0  0  0  0
   -2.0832   -3.2090    2.3867 C   0  0  1  0  0  3  0  0  0  0  0  0
   -2.3418   -2.1441    1.5382 C   0  0  0  0  0  0  0  0  0  0  0  0
   -1.6326   -0.9654    1.7007 C   0  0  0  0  0  0  0  0  0  0  0  0
   -0.6782   -0.8904    2.7065 C   0  0  0  0  0  0  0  0  0  0  0  0
   -0.4664   -1.9909    3.5171 C   0  0  0  0  0  0  0  0  0  0  0  0
   -2.8080   -4.5267    2.2415 C   0  0  0  0  0  0  0  0  0  0  0  0
   -2.7102   -6.8031    3.2564 C   0  0  2  0  0  0  0  0  0  0  0  0
   -2.5269   -7.0678    4.7572 C   0  0  0  0  0  0  0  0  0  0  0  0
   -1.7864   -7.7106    2.4162 C   0  0  0  0  0  0  0  0  0  0  0  0
   -2.3916   -9.1090    2.3186 C   0  0  0  0  0  0  0  0  0  0  0  0
   -1.5617   -7.1496    1.0136 C   0  0  0  0  0  0  0  0  0  0  0  0
   -3.0962   -2.2759    0.7777 H   0  0  0  0  0  0  0  0  0  0  0  0
   -1.8198   -0.1194    1.0568 H   0  0  0  0  0  0  0  0  0  0  0  0
   -0.1041    0.0077    2.8684 H   0  0  0  0  0  0  0  0  0  0  0  0
    0.2543   -1.9992    4.3243 H   0  0  0  0  0  0  0  0  0  0  0  0
   -3.7493   -6.9281    2.9303 H   0  0  0  0  0  0  0  0  0  0  0  0
   -3.3702   -6.6287    5.3101 H   0  0  0  0  0  0  0  0  0  0  0  0
   -2.4762   -8.1354    4.9907 H   0  0  0  0  0  0  0  0  0  0  0  0
   -0.8231   -7.7664    2.9362 H   0  0  0  0  0  0  0  0  0  0  0  0
   -2.5680   -9.5361    3.3022 H   0  0  0  0  0  0  0  0  0  0  0  0
   -3.3378   -9.0715    1.7829 H   0  0  0  0  0  0  0  0  0  0  0  0
   -1.7166   -9.7682    1.7784 H   0  0  0  0  0  0  0  0  0  0  0  0
   -1.0051   -7.8667    0.4146 H   0  0  0  0  0  0  0  0  0  0  0  0
   -2.5138   -6.9512    0.5269 H   0  0  0  0  0  0  0  0  0  0  0  0
   -0.9927   -6.2222    1.0451 H   0  0  0  0  0  0  0  0  0  0  0  0
  1  4  1  0  0  0  0
  1  2  1  6  0  0  0
  3 12  2  0  0  0  0
  5 11  1  0  0  0  0
  5  1  1  0  0  0  0
  6 13  1  0  0  0  0
  6  1  1  0  0  0  0
  7  8  1  6  0  0  0
  7  5  1  0  0  0  0
  8  9  2  0  0  0  0
  9 10  1  0  0  0  0
 10 20  1  0  0  0  0
 10 11  2  0  0  0  0
 11 21  1  0  0  0  0
 12  7  1  0  0  0  0
 12  6  1  0  0  0  0
 13 22  1  6  0  0  0
 13 14  1  0  0  0  0
 14 24  1  0  0  0  0
 14  4  1  0  0  0  0
 14 23  1  0  0  0  0
 15 25  1  0  0  0  0
 15 13  1  0  0  0  0
 16 15  1  0  0  0  0
 16 26  1  0  0  0  0
 17 31  1  0  0  0  0
 17 15  1  0  0  0  0
 18  8  1  0  0  0  0
 19  9  1  0  0  0  0
 27 16  1  0  0  0  0
 28 16  1  0  0  0  0
 29 17  1  0  0  0  0
 30 17  1  0  0  0  0
M  END
$$$$
