CSD_code = ZELLOT | q = 0 | S = 0 | Stoichiometry = C11H15AuCl2N2O2 | MND = 4
 OpenBabel04212202133D

 33 34  0  0  1  0  0  0  0  0999 V2000
   -0.1415    0.1245   -0.0255 Au  0  0  0  0  0  0  0  0  0  0  0  0
   -0.6664   -0.6989   -2.0613 Cl  0  0  0  0  0  0  0  0  0  0  0  0
   -1.9352   -0.8893    0.8099 Cl  0  0  0  0  0  0  0  0  0  0  0  0
    2.2202    2.1733    2.5499 O   0  0  0  0  0  0  0  0  0  0  0  0
   -1.1411    1.8060    4.9221 O   0  0  0  0  0  0  0  0  0  0  0  0
    1.4969    1.1003   -0.7304 N   0  0  0  0  0  0  0  0  0  0  0  0
    0.4752    0.9476    1.7088 N   0  0  0  0  0  0  0  0  0  0  0  0
    2.1457    1.7540    0.2319 C   0  0  2  0  0  3  0  0  0  0  0  0
    3.2855    2.4969   -0.0406 C   0  0  0  0  0  0  0  0  0  0  0  0
    3.7480    2.5569   -1.3435 C   0  0  0  0  0  0  0  0  0  0  0  0
    3.0570    1.8672   -2.3317 C   0  0  0  0  0  0  0  0  0  0  0  0
    1.9293    1.1449   -1.9860 C   0  0  0  0  0  0  0  0  0  0  0  0
    1.6162    1.6452    1.6329 C   0  0  0  0  0  0  0  0  0  0  0  0
   -0.1719    0.6806    2.9841 C   0  0  2  0  0  0  0  0  0  0  0  0
   -0.1954    1.9249    3.8965 C   0  0  0  0  0  0  0  0  0  0  0  0
    0.3910   -0.6097    3.6279 C   0  0  0  0  0  0  0  0  0  0  0  0
   -0.6750   -1.2765    4.4949 C   0  0  0  0  0  0  0  0  0  0  0  0
    1.6638   -0.3864    4.4405 C   0  0  0  0  0  0  0  0  0  0  0  0
   -2.0167    1.6847    4.5359 H   0  0  0  0  0  0  0  0  0  0  0  0
    3.7678    3.0000    0.7838 H   0  0  0  0  0  0  0  0  0  0  0  0
    4.6307    3.1284   -1.5872 H   0  0  0  0  0  0  0  0  0  0  0  0
    3.3827    1.8842   -3.3592 H   0  0  0  0  0  0  0  0  0  0  0  0
    1.3492    0.5864   -2.7083 H   0  0  0  0  0  0  0  0  0  0  0  0
   -1.2193    0.4745    2.7345 H   0  0  0  0  0  0  0  0  0  0  0  0
    0.7663    2.0775    4.3822 H   0  0  0  0  0  0  0  0  0  0  0  0
   -0.4068    2.8020    3.2666 H   0  0  0  0  0  0  0  0  0  0  0  0
    0.6229   -1.2842    2.7920 H   0  0  0  0  0  0  0  0  0  0  0  0
   -1.5536   -1.5217    3.9023 H   0  0  0  0  0  0  0  0  0  0  0  0
   -0.2815   -2.1963    4.9209 H   0  0  0  0  0  0  0  0  0  0  0  0
   -0.9653   -0.6150    5.3067 H   0  0  0  0  0  0  0  0  0  0  0  0
    2.3915    0.1990    3.8865 H   0  0  0  0  0  0  0  0  0  0  0  0
    1.4323    0.1308    5.3679 H   0  0  0  0  0  0  0  0  0  0  0  0
    2.1087   -1.3475    4.6897 H   0  0  0  0  0  0  0  0  0  0  0  0
  1  3  1  0  0  0  0
  1  7  1  0  0  0  0
  2  1  1  0  0  0  0
  6  1  1  0  0  0  0
  6  8  1  0  0  0  0
  7 14  1  0  0  0  0
  8  9  1  1  0  0  0
  8 13  1  0  0  0  0
  9 20  1  0  0  0  0
 10  9  2  0  0  0  0
 11 12  2  0  0  0  0
 11 10  1  0  0  0  0
 12  6  1  0  0  0  0
 13  7  1  0  0  0  0
 13  4  2  0  0  0  0
 14 24  1  6  0  0  0
 14 16  1  0  0  0  0
 14 15  1  0  0  0  0
 15 25  1  0  0  0  0
 15  5  1  0  0  0  0
 16 18  1  0  0  0  0
 16 17  1  0  0  0  0
 17 29  1  0  0  0  0
 17 30  1  0  0  0  0
 18 33  1  0  0  0  0
 18 32  1  0  0  0  0
 19  5  1  0  0  0  0
 21 10  1  0  0  0  0
 22 11  1  0  0  0  0
 23 12  1  0  0  0  0
 26 15  1  0  0  0  0
 27 16  1  0  0  0  0
 28 17  1  0  0  0  0
 31 18  1  0  0  0  0
M  END
$$$$
