CSD_code = ZEMQIU | q = 0 | S = 0 | Stoichiometry = C17H14Cl5MnN2O3 | MND = 6
 OpenBabel04212202133D

 42 45  0  0  1  0  0  0  0  0999 V2000
    2.0036    4.6077    7.4536 Mn  0  0  0  0  0  0  0  0  0  0  0  0
    2.9537    8.3337    4.7787 Cl  0  0  0  0  0  0  0  0  0  0  0  0
    0.7116    5.9477    0.5175 Cl  0  0  0  0  0  0  0  0  0  0  0  0
    1.7401    8.5212    9.9395 Cl  0  0  0  0  0  0  0  0  0  0  0  0
    1.2946    5.8488   14.5827 Cl  0  0  0  0  0  0  0  0  0  0  0  0
    4.0603    4.0306    7.4234 Cl  0  0  0  0  0  0  0  0  0  0  0  0
    1.6430    3.2780    8.7880 N   0  0  1  0  0  0  0  0  0  0  0  0
    1.4380    3.3005    6.2550 N   0  0  2  0  0  0  0  0  0  0  0  0
    2.3402    5.8411    6.1053 O   0  0  0  0  0  0  0  0  0  0  0  0
    1.7660    5.8564    8.7762 O   0  0  0  0  0  0  0  0  0  0  0  0
   -0.3155    5.3587    7.1897 O   0  0  0  0  0  0  0  0  0  0  0  0
   -0.3716    6.0589    7.8529 H   0  0  0  0  0  0  0  0  0  0  0  0
   -0.3480    5.8011    6.3340 H   0  0  0  0  0  0  0  0  0  0  0  0
    1.9751    5.8270    4.8853 C   0  0  0  0  0  0  0  0  0  0  0  0
    2.1987    6.9683    4.0530 C   0  0  0  0  0  0  0  0  0  0  0  0
    1.8137    7.0043    2.7399 C   0  0  0  0  0  0  0  0  0  0  0  0
    1.9921    7.8840    2.1433 H   0  0  0  0  0  0  0  0  0  0  0  0
    1.1873    5.8829    2.1762 C   0  0  0  0  0  0  0  0  0  0  0  0
    0.9526    4.7562    2.9161 C   0  0  0  0  0  0  0  0  0  0  0  0
    0.4751    3.9001    2.4652 H   0  0  0  0  0  0  0  0  0  0  0  0
    1.3317    4.6956    4.2738 C   0  0  0  0  0  0  0  0  0  0  0  0
    1.1075    3.5053    5.0057 C   0  0  0  0  0  3  0  0  0  0  0  0
    0.6236    2.7006    4.4553 H   0  0  0  0  0  0  0  0  0  0  0  0
    1.1923    1.9568    6.7812 C   0  0  2  0  0  0  0  0  0  0  0  0
    0.1087    1.7701    6.7589 H   0  0  0  0  0  0  0  0  0  0  0  0
    1.6917    1.9411    8.2312 C   0  0  0  0  0  0  0  0  0  0  0  0
    2.7499    1.6476    8.2303 H   0  0  0  0  0  0  0  0  0  0  0  0
    1.1210    1.2297    8.8377 H   0  0  0  0  0  0  0  0  0  0  0  0
    1.5342    3.3761   10.0729 C   0  0  0  0  0  3  0  0  0  0  0  0
    1.4020    2.4729   10.6694 H   0  0  0  0  0  0  0  0  0  0  0  0
    1.5598    4.6126   10.7914 C   0  0  0  0  0  0  0  0  0  0  0  0
    1.4341    4.6328   12.1854 C   0  0  0  0  0  0  0  0  0  0  0  0
    1.3497    3.7028   12.7256 H   0  0  0  0  0  0  0  0  0  0  0  0
    1.4313    5.8315   12.8632 C   0  0  0  0  0  0  0  0  0  0  0  0
    1.5289    7.0431   12.1807 C   0  0  0  0  0  0  0  0  0  0  0  0
    1.5199    7.9770   12.7191 H   0  0  0  0  0  0  0  0  0  0  0  0
    1.6311    7.0365   10.8075 C   0  0  0  0  0  0  0  0  0  0  0  0
    1.6777    5.8319   10.0643 C   0  0  0  0  0  0  0  0  0  0  0  0
    1.9299    0.8846    5.9745 C   0  0  0  0  0  0  0  0  0  0  0  0
    1.8640   -0.0695    6.4906 H   0  0  0  0  0  0  0  0  0  0  0  0
    1.5081    0.7640    4.9808 H   0  0  0  0  0  0  0  0  0  0  0  0
    2.9763    1.1670    5.8803 H   0  0  0  0  0  0  0  0  0  0  0  0
  1 10  1  0  0  0  0
  1  7  1  0  0  0  0
  3 18  1  0  0  0  0
  4 37  1  0  0  0  0
  6  1  1  0  0  0  0
  7 29  1  1  0  0  0
  8 22  1  1  0  0  0
  8 24  1  0  0  0  0
  8  1  1  0  0  0  0
  9  1  1  0  0  0  0
 10 38  1  0  0  0  0
 11 12  1  0  0  0  0
 13 11  1  0  0  0  0
 14  9  1  0  0  0  0
 15  2  1  0  0  0  0
 15 14  2  0  0  0  0
 16 15  1  0  0  0  0
 17 16  1  0  0  0  0
 18 16  2  0  0  0  0
 18 19  1  0  0  0  0
 19 21  2  0  0  0  0
 20 19  1  0  0  0  0
 21 14  1  0  0  0  0
 21 22  1  0  0  0  0
 23 22  1  0  0  0  0
 24 25  1  6  0  0  0
 24 26  1  0  0  0  0
 26  7  1  0  0  0  0
 26 28  1  0  0  0  0
 27 26  1  0  0  0  0
 29 30  1  0  0  0  0
 29 31  1  0  0  0  0
 31 32  1  0  0  0  0
 32 33  1  0  0  0  0
 32 34  2  0  0  0  0
 34  5  1  0  0  0  0
 35 36  1  0  0  0  0
 35 34  1  0  0  0  0
 37 35  2  0  0  0  0
 38 31  2  0  0  0  0
 38 37  1  0  0  0  0
 39 40  1  0  0  0  0
 39 24  1  0  0  0  0
 41 39  1  0  0  0  0
 42 39  1  0  0  0  0
M  END
$$$$
