CSD_code = ZENDAA | q = 0 | S = 0 | Stoichiometry = C11H14Cl2N2O2Pt | MND = 4
 OpenBabel04212202133D

 32 33  0  0  0  0  0  0  0  0999 V2000
   13.2471    0.6876    0.9862 C   0  0  0  0  0  0  0  0  0  0  0  0
   13.3254   -0.3457    0.6732 H   0  0  0  0  0  0  0  0  0  0  0  0
   14.2885    1.5817    0.8221 C   0  0  0  0  0  0  0  0  0  0  0  0
   15.2097    1.2539    0.3692 H   0  0  0  0  0  0  0  0  0  0  0  0
   14.1304    2.8978    1.2491 C   0  0  0  0  0  0  0  0  0  0  0  0
   14.9299    3.6129    1.1338 H   0  0  0  0  0  0  0  0  0  0  0  0
   12.9324    3.2701    1.8236 C   0  0  0  0  0  0  0  0  0  0  0  0
   12.7637    4.2773    2.1706 H   0  0  0  0  0  0  0  0  0  0  0  0
   11.9191    2.3178    1.9608 C   0  0  0  0  0  0  0  0  0  0  0  0
   10.6247    2.5843    2.5155 C   0  0  0  0  0  0  0  0  0  0  0  0
   10.3627    3.5883    2.8382 H   0  0  0  0  0  0  0  0  0  0  0  0
    8.4398    1.8444    3.0285 C   0  0  0  0  0  0  0  0  0  0  0  0
    8.3669    2.8172    3.5305 H   0  0  0  0  0  0  0  0  0  0  0  0
    8.1589    1.0430    3.7169 H   0  0  0  0  0  0  0  0  0  0  0  0
    7.4750    1.7934    1.8352 C   0  0  0  0  0  0  0  0  0  0  0  0
    6.4570    1.8723    2.2176 H   0  0  0  0  0  0  0  0  0  0  0  0
    7.5884    0.8259    1.3416 H   0  0  0  0  0  0  0  0  0  0  0  0
    7.7367    2.9183    0.8298 C   0  0  0  0  0  0  0  0  0  0  0  0
    7.6185    3.8936    1.3043 H   0  0  0  0  0  0  0  0  0  0  0  0
    8.7415    2.8222    0.4151 H   0  0  0  0  0  0  0  0  0  0  0  0
    6.7349    2.8124   -0.3010 C   0  0  0  0  0  0  0  0  0  0  0  0
    6.1672    1.5639   -2.2030 C   0  0  0  0  0  0  0  0  0  0  0  0
    5.1494    1.4507   -1.8253 H   0  0  0  0  0  0  0  0  0  0  0  0
    6.5089    0.6439   -2.6694 H   0  0  0  0  0  0  0  0  0  0  0  0
    6.1875    2.3876   -2.9195 H   0  0  0  0  0  0  0  0  0  0  0  0
   11.4494   -1.9950    1.2083 Cl  0  0  0  0  0  0  0  0  0  0  0  0
    8.7376   -1.3379    2.6001 Cl  0  0  0  0  0  0  0  0  0  0  0  0
   12.0906    1.0393    1.5414 N   0  0  0  0  0  0  0  0  0  0  0  0
    9.7855    1.6018    2.5903 N   0  0  0  0  0  0  0  0  0  0  0  0
    5.7609    3.5049   -0.4279 O   0  0  0  0  0  0  0  0  0  0  0  0
    7.0640    1.8222   -1.1308 O   0  0  0  0  0  0  0  0  0  0  0  0
   10.5069   -0.1237    1.9656 Pt  0  0  0  0  0  0  0  0  0  0  0  0
  1 28  1  0  0  0  0
  2  1  1  0  0  0  0
  3  1  2  0  0  0  0
  3  5  1  0  0  0  0
  4  3  1  0  0  0  0
  5  7  2  0  0  0  0
  6  5  1  0  0  0  0
  7  9  1  0  0  0  0
  7  8  1  0  0  0  0
  9 10  2  0  0  0  0
 10 29  1  0  0  0  0
 10 11  1  0  0  0  0
 12 13  1  0  0  0  0
 12 14  1  0  0  0  0
 15 16  1  0  0  0  0
 15 12  1  0  0  0  0
 17 15  1  0  0  0  0
 18 19  1  0  0  0  0
 18 15  1  0  0  0  0
 20 18  1  0  0  0  0
 21 18  1  0  0  0  0
 22 23  1  0  0  0  0
 22 31  1  0  0  0  0
 24 22  1  0  0  0  0
 25 22  1  0  0  0  0
 26 32  1  0  0  0  0
 28  9  1  0  0  0  0
 28 32  1  0  0  0  0
 29 12  1  0  0  0  0
 30 21  2  0  0  0  0
 31 21  1  0  0  0  0
 32 29  1  0  0  0  0
 32 27  1  0  0  0  0
M  END
$$$$
