CSD_code = ZENVOG | q = 0 | S = 0 | Stoichiometry = C15H16Cl2IN4OPPt | MND = 4
 OpenBabel04212202133D

 41 46  0  0  1  0  0  0  0  0999 V2000
    3.5009    3.1194   10.1311 Pt  0  0  1  0  0  0  0  0  0  0  0  0
    6.8572    6.8889    9.1371 I   0  0  0  0  0  0  0  0  0  0  0  0
    8.1243    5.4826   14.5541 Cl  0  0  0  0  0  0  0  0  0  0  0  0
    2.0299    1.4502   10.5221 Cl  0  0  0  0  0  0  0  0  0  0  0  0
    2.6128    3.2448    8.0592 P   0  0  1  0  0  4  0  0  0  0  0  0
    4.3838    3.0905   11.9469 N   0  0  0  0  0  0  0  0  0  0  0  0
    2.4910    4.4792    5.6212 N   0  0  2  0  0  0  0  0  0  0  0  0
    1.0464    4.5880    5.7387 C   0  0  0  0  0  0  0  0  0  0  0  0
    0.7987    5.5060    6.2774 H   0  0  0  0  0  0  0  0  0  0  0  0
    0.6276    4.6436    4.7291 H   0  0  0  0  0  0  0  0  0  0  0  0
    4.8480    4.6163    9.7859 O   0  0  0  0  0  0  0  0  0  0  0  0
    2.2524    2.0588    5.6167 N   0  0  2  0  0  0  0  0  0  0  0  0
    2.8194    3.2273    4.9603 C   0  0  0  0  0  0  0  0  0  0  0  0
    3.9061    3.1208    4.9147 H   0  0  0  0  0  0  0  0  0  0  0  0
    2.4221    3.2674    3.9413 H   0  0  0  0  0  0  0  0  0  0  0  0
    4.8551    2.4518   14.1866 C   0  0  0  0  0  0  0  0  0  0  0  0
    4.6114    1.8053   15.0142 H   0  0  0  0  0  0  0  0  0  0  0  0
    7.3543    5.9657   12.0228 C   0  0  0  0  0  0  0  0  0  0  0  0
    8.1243    6.7216   12.0182 H   0  0  0  0  0  0  0  0  0  0  0  0
    5.8550    3.3836   14.2886 C   0  0  0  0  0  0  0  0  0  0  0  0
    6.4255    3.4967   15.1977 H   0  0  0  0  0  0  0  0  0  0  0  0
    0.4331    3.4564    6.4168 N   0  0  2  0  0  0  0  0  0  0  0  0
    0.7758    3.4180    7.8236 C   0  0  0  0  0  0  0  0  0  0  0  0
    0.2709    2.5713    8.3009 H   0  0  0  0  0  0  0  0  0  0  0  0
    0.4305    4.3407    8.3030 H   0  0  0  0  0  0  0  0  0  0  0  0
    6.1467    4.2124   13.1864 C   0  0  0  0  0  0  0  0  0  0  0  0
    0.8134    2.2311    5.7334 C   0  0  0  0  0  0  0  0  0  0  0  0
    0.3929    1.3768    6.2696 H   0  0  0  0  0  0  0  0  0  0  0  0
    0.3931    2.2620    4.7234 H   0  0  0  0  0  0  0  0  0  0  0  0
    3.1476    4.5990    6.9081 C   0  0  0  0  0  0  0  0  0  0  0  0
    2.9063    5.5709    7.3505 H   0  0  0  0  0  0  0  0  0  0  0  0
    4.2328    4.5548    6.7724 H   0  0  0  0  0  0  0  0  0  0  0  0
    6.5797    5.7629   10.8901 C   0  0  0  0  0  0  0  0  0  0  0  0
    5.5716    4.8045   10.8380 C   0  0  0  0  0  0  0  0  0  0  0  0
    7.1442    5.2072   13.1532 C   0  0  0  0  0  0  0  0  0  0  0  0
    5.3670    4.0233   12.0155 C   0  0  1  0  0  3  0  0  0  0  0  0
    4.1340    2.3307   12.9920 C   0  0  0  0  0  0  0  0  0  0  0  0
    3.3412    1.6015   12.8884 H   0  0  0  0  0  0  0  0  0  0  0  0
    2.8696    1.8105    6.9032 C   0  0  0  0  0  0  0  0  0  0  0  0
    3.9434    1.6452    6.7609 H   0  0  0  0  0  0  0  0  0  0  0  0
    2.4357    0.9084    7.3486 H   0  0  0  0  0  0  0  0  0  0  0  0
  1  4  1  6  0  0  0
  1  6  1  0  0  0  0
  2 33  1  0  0  0  0
  5 39  1  6  0  0  0
  5  1  1  0  0  0  0
  6 36  1  0  0  0  0
  6 37  1  0  0  0  0
  7 13  1  1  0  0  0
  7  8  1  0  0  0  0
  7 30  1  0  0  0  0
  8  9  1  0  0  0  0
  8 22  1  0  0  0  0
 10  8  1  0  0  0  0
 11  1  1  0  0  0  0
 11 34  1  0  0  0  0
 12 13  1  1  0  0  0
 12 27  1  0  0  0  0
 12 39  1  0  0  0  0
 14 13  1  0  0  0  0
 15 13  1  0  0  0  0
 16 20  1  0  0  0  0
 16 17  1  0  0  0  0
 18 35  2  0  0  0  0
 19 18  1  0  0  0  0
 20 21  1  0  0  0  0
 22 27  1  6  0  0  0
 22 23  1  0  0  0  0
 23  5  1  0  0  0  0
 23 24  1  0  0  0  0
 23 25  1  0  0  0  0
 26 20  2  0  0  0  0
 27 28  1  0  0  0  0
 29 27  1  0  0  0  0
 30 31  1  0  0  0  0
 30  5  1  0  0  0  0
 32 30  1  0  0  0  0
 33 18  1  0  0  0  0
 34 33  2  0  0  0  0
 35 26  1  0  0  0  0
 35  3  1  0  0  0  0
 36 34  1  6  0  0  0
 36 26  1  0  0  0  0
 37 16  2  0  0  0  0
 38 37  1  0  0  0  0
 39 41  1  0  0  0  0
 40 39  1  0  0  0  0
M  END
$$$$
