CSD_code = ZENVUM | q = 0 | S = 0 | Stoichiometry = C15H16ClI2N4OPPt | MND = 4
 OpenBabel04212202133D

 41 46  0  0  1  0  0  0  0  0999 V2000
    4.4575    0.4856    3.4918 Pt  0  0  1  0  0  0  0  0  0  0  0  0
    7.7286   -1.6189    6.8601 I   0  0  0  0  0  0  0  0  0  0  0  0
    9.1785   -4.7055    1.8646 I   0  0  0  0  0  0  0  0  0  0  0  0
    3.6091    1.8886    5.0461 P   0  0  2  0  0  4  0  0  0  0  0  0
    3.0281    1.4562    2.0385 Cl  0  0  0  0  0  0  0  0  0  0  0  0
    6.2622   -1.5427    2.7857 C   0  0  1  0  0  3  0  0  0  0  0  0
    7.0181   -2.5196    2.0831 C   0  0  0  0  0  0  0  0  0  0  0  0
    5.3003   -0.7998    2.1824 N   0  0  0  0  0  0  0  0  0  0  0  0
    3.4956    2.7305    7.6464 N   0  0  1  0  0  0  0  0  0  0  0  0
    5.7672   -0.3906    4.7905 O   0  0  0  0  0  0  0  0  0  0  0  0
    3.8863    4.0700    7.2398 C   0  0  0  0  0  0  0  0  0  0  0  0
    3.5103    4.7746    7.9882 H   0  0  0  0  0  0  0  0  0  0  0  0
    4.9772    4.1312    7.2096 H   0  0  0  0  0  0  0  0  0  0  0  0
    1.7726    2.0102    5.3152 C   0  0  0  0  0  0  0  0  0  0  0  0
    1.2902    2.2983    4.3751 H   0  0  0  0  0  0  0  0  0  0  0  0
    1.3810    1.0330    5.6188 H   0  0  0  0  0  0  0  0  0  0  0  0
    1.4611    2.9862    6.3389 N   0  0  2  0  0  0  0  0  0  0  0  0
    3.3501    4.4624    5.9453 N   0  0  2  0  0  0  0  0  0  0  0  0
    1.9032    4.3202    5.9676 C   0  0  0  0  0  0  0  0  0  0  0  0
    1.5037    4.5683    4.9812 H   0  0  0  0  0  0  0  0  0  0  0  0
    1.5049    5.0262    6.7030 H   0  0  0  0  0  0  0  0  0  0  0  0
    6.4676   -1.2813    4.1750 C   0  0  0  0  0  0  0  0  0  0  0  0
    7.9917   -3.2291    2.8105 C   0  0  0  0  0  0  0  0  0  0  0  0
    5.7373   -1.9211    0.1368 C   0  0  0  0  0  0  0  0  0  0  0  0
    5.4913   -2.0335   -0.9067 H   0  0  0  0  0  0  0  0  0  0  0  0
    2.0455    2.6325    7.6234 C   0  0  0  0  0  0  0  0  0  0  0  0
    1.7509    1.6124    7.8824 H   0  0  0  0  0  0  0  0  0  0  0  0
    1.6475    3.3202    8.3760 H   0  0  0  0  0  0  0  0  0  0  0  0
    7.4503   -2.0309    4.8163 C   0  0  0  0  0  0  0  0  0  0  0  0
    5.0424   -0.9791    0.9045 C   0  0  0  0  0  0  0  0  0  0  0  0
    4.2665   -0.3635    0.4692 H   0  0  0  0  0  0  0  0  0  0  0  0
    6.7166   -2.6844    0.7162 C   0  0  0  0  0  0  0  0  0  0  0  0
    7.2613   -3.4134    0.1348 H   0  0  0  0  0  0  0  0  0  0  0  0
    8.2004   -2.9867    4.1491 C   0  0  0  0  0  0  0  0  0  0  0  0
    8.9511   -3.5417    4.6908 H   0  0  0  0  0  0  0  0  0  0  0  0
    3.9474    3.7085    4.8627 C   0  0  0  0  0  0  0  0  0  0  0  0
    5.0298    3.8799    4.8596 H   0  0  0  0  0  0  0  0  0  0  0  0
    3.5384    4.0550    3.9071 H   0  0  0  0  0  0  0  0  0  0  0  0
    4.1181    1.7130    6.8227 C   0  0  0  0  0  0  0  0  0  0  0  0
    3.8303    0.7222    7.1891 H   0  0  0  0  0  0  0  0  0  0  0  0
    5.2071    1.7940    6.8999 H   0  0  0  0  0  0  0  0  0  0  0  0
  1  5  1  1  0  0  0
  1 10  1  0  0  0  0
  1  4  1  0  0  0  0
  3 23  1  0  0  0  0
  4 36  1  6  0  0  0
  4 14  1  0  0  0  0
  4 39  1  0  0  0  0
  6  7  1  1  0  0  0
  6 22  1  0  0  0  0
  7 23  1  0  0  0  0
  8  6  1  0  0  0  0
  8  1  1  0  0  0  0
  9 39  1  6  0  0  0
 11  9  1  0  0  0  0
 11 12  1  0  0  0  0
 13 11  1  0  0  0  0
 14 16  1  0  0  0  0
 15 14  1  0  0  0  0
 17 14  1  6  0  0  0
 17 26  1  0  0  0  0
 18 36  1  6  0  0  0
 18 19  1  0  0  0  0
 18 11  1  0  0  0  0
 19 17  1  0  0  0  0
 19 21  1  0  0  0  0
 20 19  1  0  0  0  0
 22 10  1  0  0  0  0
 22 29  2  0  0  0  0
 23 34  2  0  0  0  0
 24 32  1  0  0  0  0
 24 30  2  0  0  0  0
 25 24  1  0  0  0  0
 26  9  1  0  0  0  0
 26 27  1  0  0  0  0
 26 28  1  0  0  0  0
 29  2  1  0  0  0  0
 30  8  1  0  0  0  0
 31 30  1  0  0  0  0
 32  7  2  0  0  0  0
 33 32  1  0  0  0  0
 34 35  1  0  0  0  0
 34 29  1  0  0  0  0
 37 36  1  0  0  0  0
 38 36  1  0  0  0  0
 39 41  1  0  0  0  0
 39 40  1  0  0  0  0
M  END
$$$$
