CSD_code = ZEPNEQ | q = 0 | S = 0 | Stoichiometry = C19H15Cl2N2PPdS | MND = 4
 OpenBabel04212202133D

 41 45  0  0  1  0  0  0  0  0999 V2000
    2.1379    4.7540    9.5461 Pd  0  0  0  0  0  0  0  0  0  0  0  0
    1.8338    4.8980   11.7612 Cl  0  0  0  0  0  0  0  0  0  0  0  0
    0.4509    6.1775    9.2350 Cl  0  0  0  0  0  0  0  0  0  0  0  0
    5.3988    1.7455    8.3609 S   0  0  0  0  0  0  0  0  0  0  0  0
    2.0944    4.2986    7.3522 P   0  0  0  0  0  4  0  0  0  0  0  0
    3.8297    3.4301    9.5528 N   0  0  0  0  0  0  0  0  0  0  0  0
    3.3859    3.1652    7.2602 N   0  0  0  0  0  0  0  0  0  0  0  0
    3.5839    2.5994    6.4441 H   0  0  0  0  0  0  0  0  0  0  0  0
    4.7236    3.0142   10.5176 C   0  0  0  0  0  0  0  0  0  0  0  0
    4.7766    3.4393   11.8406 C   0  0  0  0  0  0  0  0  0  0  0  0
    4.0477    4.1557   12.1927 H   0  0  0  0  0  0  0  0  0  0  0  0
    5.7507    2.9157   12.6666 C   0  0  0  0  0  0  0  0  0  0  0  0
    5.7975    3.2391   13.6947 H   0  0  0  0  0  0  0  0  0  0  0  0
    6.6715    1.9825   12.2005 C   0  0  0  0  0  0  0  0  0  0  0  0
    7.4227    1.5887   12.8676 H   0  0  0  0  0  0  0  0  0  0  0  0
    6.6402    1.5528   10.8866 C   0  0  0  0  0  0  0  0  0  0  0  0
    7.3514    0.8343   10.5112 H   0  0  0  0  0  0  0  0  0  0  0  0
    5.6665    2.0774   10.0580 C   0  0  0  0  0  0  0  0  0  0  0  0
    4.0659    2.8793    8.3988 C   0  0  1  0  0  3  0  0  0  0  0  0
    0.6540    3.2137    7.0664 C   0  0  0  0  0  0  0  0  0  0  0  0
   -0.0219    2.7473    8.1926 C   0  0  0  0  0  0  0  0  0  0  0  0
    0.2885    3.0842    9.1916 H   0  0  0  0  0  0  0  0  0  0  0  0
   -1.0933    1.8850    8.0462 C   0  0  0  0  0  0  0  0  0  0  0  0
   -1.6234    1.5314    8.9174 H   0  0  0  0  0  0  0  0  0  0  0  0
   -1.4898    1.4835    6.7799 C   0  0  0  0  0  0  0  0  0  0  0  0
   -2.3297    0.8148    6.6656 H   0  0  0  0  0  0  0  0  0  0  0  0
   -0.8155    1.9414    5.6592 C   0  0  0  0  0  0  0  0  0  0  0  0
   -1.1278    1.6274    4.6743 H   0  0  0  0  0  0  0  0  0  0  0  0
    0.2563    2.8052    5.7977 C   0  0  0  0  0  0  0  0  0  0  0  0
    0.7776    3.1725    4.9242 H   0  0  0  0  0  0  0  0  0  0  0  0
    2.2462    5.2234    5.8071 C   0  0  0  0  0  0  0  0  0  0  0  0
    1.1562    6.0239    5.4681 C   0  0  0  0  0  0  0  0  0  0  0  0
    0.2858    6.0241    6.1113 H   0  0  0  0  0  0  0  0  0  0  0  0
    1.2082    6.8111    4.3342 C   0  0  0  0  0  0  0  0  0  0  0  0
    0.3651    7.4309    4.0692 H   0  0  0  0  0  0  0  0  0  0  0  0
    2.3468    6.8098    3.5420 C   0  0  0  0  0  0  0  0  0  0  0  0
    2.3875    7.4248    2.6556 H   0  0  0  0  0  0  0  0  0  0  0  0
    3.4392    6.0333    3.8923 C   0  0  0  0  0  0  0  0  0  0  0  0
    4.3299    6.0460    3.2815 H   0  0  0  0  0  0  0  0  0  0  0  0
    3.3982    5.2459    5.0298 C   0  0  0  0  0  0  0  0  0  0  0  0
    4.2603    4.6584    5.3139 H   0  0  0  0  0  0  0  0  0  0  0  0
  1  6  1  0  0  0  0
  1  2  1  0  0  0  0
  3  1  1  0  0  0  0
  4 18  1  0  0  0  0
  5  1  1  0  0  0  0
  6  9  1  0  0  0  0
  7  5  1  0  0  0  0
  7 19  1  0  0  0  0
  8  7  1  0  0  0  0
  9 10  1  0  0  0  0
 10 11  1  0  0  0  0
 10 12  2  0  0  0  0
 12 13  1  0  0  0  0
 14 12  1  0  0  0  0
 14 15  1  0  0  0  0
 16 14  2  0  0  0  0
 17 16  1  0  0  0  0
 18  9  2  0  0  0  0
 18 16  1  0  0  0  0
 19  4  1  6  0  0  0
 19  6  1  0  0  0  0
 20  5  1  0  0  0  0
 20 21  1  0  0  0  0
 21 22  1  0  0  0  0
 23 21  2  0  0  0  0
 23 24  1  0  0  0  0
 25 23  1  0  0  0  0
 26 25  1  0  0  0  0
 27 29  1  0  0  0  0
 27 25  2  0  0  0  0
 28 27  1  0  0  0  0
 29 20  2  0  0  0  0
 30 29  1  0  0  0  0
 31  5  1  0  0  0  0
 32 31  1  0  0  0  0
 32 33  1  0  0  0  0
 34 32  2  0  0  0  0
 35 34  1  0  0  0  0
 36 38  2  0  0  0  0
 36 34  1  0  0  0  0
 37 36  1  0  0  0  0
 38 40  1  0  0  0  0
 39 38  1  0  0  0  0
 40 41  1  0  0  0  0
 40 31  2  0  0  0  0
M  END
$$$$
