CSD_code = ZEPXUQ | q = 0 | S = 0 | Stoichiometry = C20H26Cl2N2Zn | MND = 4
 OpenBabel04212202133D

 51 54  0  0  1  0  0  0  0  0999 V2000
    0.9057    3.0488    7.6563 Zn  0  0  0  0  0  0  0  0  0  0  0  0
    1.5701    2.4915    5.6191 Cl  0  0  0  0  0  0  0  0  0  0  0  0
    0.3843    2.1042    9.5901 Cl  0  0  0  0  0  0  0  0  0  0  0  0
   -0.4635    4.6896    7.0907 N   0  0  0  0  0  4  0  0  0  0  0  0
   -0.2404    4.8328    6.1050 H   0  0  0  0  0  0  0  0  0  0  0  0
    1.9564    4.8184    8.4614 N   0  0  0  0  0  4  0  0  0  0  0  0
    1.7216    4.7796    9.4540 H   0  0  0  0  0  0  0  0  0  0  0  0
   -1.9955    2.9770    6.3891 C   0  0  0  0  0  0  0  0  0  0  0  0
    1.3989    6.0482    7.8999 C   0  0  1  0  0  0  0  0  0  0  0  0
    1.7902    6.1405    6.8790 H   0  0  0  0  0  0  0  0  0  0  0  0
   -0.1339    5.9108    7.8242 C   0  0  1  0  0  0  0  0  0  0  0  0
   -0.5220    5.7873    8.8430 H   0  0  0  0  0  0  0  0  0  0  0  0
    3.7889    3.3399    8.9460 C   0  0  0  0  0  0  0  0  0  0  0  0
    1.7662    7.2982    8.7072 C   0  0  0  0  0  0  0  0  0  0  0  0
    1.3989    7.1820    9.7305 H   0  0  0  0  0  0  0  0  0  0  0  0
    2.8509    7.4085    8.7470 H   0  0  0  0  0  0  0  0  0  0  0  0
    1.1555    8.5498    8.0850 C   0  0  0  0  0  0  0  0  0  0  0  0
    1.4182    9.4232    8.6839 H   0  0  0  0  0  0  0  0  0  0  0  0
    1.5670    8.6945    7.0838 H   0  0  0  0  0  0  0  0  0  0  0  0
    3.4140    4.6684    8.3469 C   0  0  0  0  0  0  0  0  0  0  0  0
    3.9427    5.4786    8.8675 H   0  0  0  0  0  0  0  0  0  0  0  0
    3.6747    4.6947    7.2861 H   0  0  0  0  0  0  0  0  0  0  0  0
   -2.0075    1.7479    7.0376 C   0  0  0  0  0  0  0  0  0  0  0  0
   -2.0025    1.7080    8.1170 H   0  0  0  0  0  0  0  0  0  0  0  0
    4.1112    1.9647   10.8945 C   0  0  0  0  0  0  0  0  0  0  0  0
    4.1423    1.8624   11.9690 H   0  0  0  0  0  0  0  0  0  0  0  0
    3.8429    3.1965   10.3278 C   0  0  0  0  0  0  0  0  0  0  0  0
    3.6711    4.0541   10.9646 H   0  0  0  0  0  0  0  0  0  0  0  0
   -1.8665    4.2585    7.1673 C   0  0  0  0  0  0  0  0  0  0  0  0
   -2.5435    5.0196    6.7557 H   0  0  0  0  0  0  0  0  0  0  0  0
   -2.1126    4.0918    8.2188 H   0  0  0  0  0  0  0  0  0  0  0  0
    4.0192    2.2332    8.1378 C   0  0  0  0  0  0  0  0  0  0  0  0
    4.0038    2.3385    7.0629 H   0  0  0  0  0  0  0  0  0  0  0  0
   -0.7346    7.1722    7.1943 C   0  0  0  0  0  0  0  0  0  0  0  0
   -0.3614    7.2726    6.1715 H   0  0  0  0  0  0  0  0  0  0  0  0
   -1.8214    7.0843    7.1514 H   0  0  0  0  0  0  0  0  0  0  0  0
    4.3288    0.8630   10.0845 C   0  0  0  0  0  0  0  0  0  0  0  0
    4.5284   -0.1013   10.5276 H   0  0  0  0  0  0  0  0  0  0  0  0
   -0.3596    8.4130    7.9982 C   0  0  0  0  0  0  0  0  0  0  0  0
   -0.7880    9.2992    7.5278 H   0  0  0  0  0  0  0  0  0  0  0  0
   -0.7774    8.3329    9.0040 H   0  0  0  0  0  0  0  0  0  0  0  0
   -2.0720    0.6196    4.9195 C   0  0  0  0  0  0  0  0  0  0  0  0
   -2.0907   -0.2961    4.3476 H   0  0  0  0  0  0  0  0  0  0  0  0
   -2.0348    3.0141    4.9998 C   0  0  0  0  0  0  0  0  0  0  0  0
   -2.0336    3.9667    4.4869 H   0  0  0  0  0  0  0  0  0  0  0  0
   -2.0466    0.5743    6.3023 C   0  0  0  0  0  0  0  0  0  0  0  0
   -2.0498   -0.3763    6.8144 H   0  0  0  0  0  0  0  0  0  0  0  0
   -2.0727    1.8418    4.2685 C   0  0  0  0  0  0  0  0  0  0  0  0
   -2.0944    1.8817    3.1897 H   0  0  0  0  0  0  0  0  0  0  0  0
    4.2889    0.9999    8.7082 C   0  0  0  0  0  0  0  0  0  0  0  0
    4.4613    0.1442    8.0726 H   0  0  0  0  0  0  0  0  0  0  0  0
  1  6  1  0  0  0  0
  1  3  1  0  0  0  0
  2  1  1  0  0  0  0
  4 29  1  0  0  0  0
  4  1  1  0  0  0  0
  4 11  1  0  0  0  0
  5  4  1  0  0  0  0
  6  7  1  0  0  0  0
  8 23  1  0  0  0  0
  8 29  1  0  0  0  0
  9 10  1  6  0  0  0
  9  6  1  0  0  0  0
  9 14  1  0  0  0  0
 11  9  1  0  0  0  0
 11 12  1  1  0  0  0
 13 27  1  0  0  0  0
 14 16  1  0  0  0  0
 14 15  1  0  0  0  0
 17 18  1  0  0  0  0
 17 14  1  0  0  0  0
 19 17  1  0  0  0  0
 20  6  1  0  0  0  0
 20 21  1  0  0  0  0
 20 13  1  0  0  0  0
 22 20  1  0  0  0  0
 23 24  1  0  0  0  0
 25 26  1  0  0  0  0
 27 25  2  0  0  0  0
 27 28  1  0  0  0  0
 29 31  1  0  0  0  0
 30 29  1  0  0  0  0
 32 50  1  0  0  0  0
 32 13  2  0  0  0  0
 33 32  1  0  0  0  0
 34 11  1  0  0  0  0
 34 39  1  0  0  0  0
 35 34  1  0  0  0  0
 36 34  1  0  0  0  0
 37 38  1  0  0  0  0
 37 25  1  0  0  0  0
 39 17  1  0  0  0  0
 39 41  1  0  0  0  0
 40 39  1  0  0  0  0
 42 46  1  0  0  0  0
 43 42  1  0  0  0  0
 44  8  2  0  0  0  0
 45 44  1  0  0  0  0
 46 47  1  0  0  0  0
 46 23  2  0  0  0  0
 48 42  2  0  0  0  0
 48 44  1  0  0  0  0
 49 48  1  0  0  0  0
 50 37  2  0  0  0  0
 51 50  1  0  0  0  0
M  END
$$$$
