CSD_code = ZEQBAY | q = 0 | S = 0 | Stoichiometry = C14H22Cl2N4Zr | MND = 6
 OpenBabel04212202133D

 43 46  0  0  1  0  0  0  0  0999 V2000
    4.6315    9.0891    3.0207 Zr  0  0  0  0  0  0  0  0  0  0  0  0
    6.1670   10.8797    2.6166 Cl  0  0  0  0  0  0  0  0  0  0  0  0
    5.2872    8.2497    1.2173 N   0  0  2  0  0  0  0  0  0  0  0  0
    6.3252    7.9832    3.6454 N   0  0  0  0  0  0  0  0  0  0  0  0
    6.7241    8.0745    1.2303 C   0  0  0  0  0  0  0  0  0  0  0  0
    7.0962    7.3928    2.5709 C   0  0  0  0  0  0  0  0  0  0  0  0
    6.8431    8.5975    4.6883 C   0  0  0  0  0  0  0  0  0  0  0  0
    5.9927    9.1417    5.6754 C   0  0  0  0  0  0  0  0  0  0  0  0
    4.6660    8.9715    0.2991 C   0  0  1  0  0  3  0  0  0  0  0  0
    5.4237    9.5814   -0.8522 C   0  0  0  0  0  0  0  0  0  0  0  0
    8.3340    8.7310    4.8897 C   0  0  0  0  0  0  0  0  0  0  0  0
    7.2414    9.0459    1.1682 H   0  0  0  0  0  0  0  0  0  0  0  0
    7.0587    7.4410    0.3951 H   0  0  0  0  0  0  0  0  0  0  0  0
    6.8053    6.3340    2.5134 H   0  0  0  0  0  0  0  0  0  0  0  0
    8.1812    7.4564    2.7175 H   0  0  0  0  0  0  0  0  0  0  0  0
    6.4621    9.6777    6.4886 H   0  0  0  0  0  0  0  0  0  0  0  0
    4.7506   10.0421   -1.5690 H   0  0  0  0  0  0  0  0  0  0  0  0
    6.0236    8.8258   -1.3585 H   0  0  0  0  0  0  0  0  0  0  0  0
    6.0979   10.3462   -0.4610 H   0  0  0  0  0  0  0  0  0  0  0  0
    8.5503    9.2275    5.8304 H   0  0  0  0  0  0  0  0  0  0  0  0
    8.7549    9.3263    4.0793 H   0  0  0  0  0  0  0  0  0  0  0  0
    8.8114    7.7521    4.8942 H   0  0  0  0  0  0  0  0  0  0  0  0
    3.0960   10.8800    3.4242 Cl  0  0  0  0  0  0  0  0  0  0  0  0
    3.9758    8.2496    4.8241 N   0  0  2  0  0  0  0  0  0  0  0  0
    2.5389    8.0744    4.8110 C   0  0  0  0  0  0  0  0  0  0  0  0
    2.1669    7.3926    3.4704 C   0  0  0  0  0  0  0  0  0  0  0  0
    2.9378    7.9830    2.3958 N   0  0  0  0  0  0  0  0  0  0  0  0
    2.4199    8.5973    1.3529 C   0  0  0  0  0  0  0  0  0  0  0  0
    3.2703    9.1416    0.3659 C   0  0  0  0  0  0  0  0  0  0  0  0
    2.8009    9.6776   -0.4473 H   0  0  0  0  0  0  0  0  0  0  0  0
    0.9290    8.7310    1.1516 C   0  0  0  0  0  0  0  0  0  0  0  0
    0.7127    9.2274    0.2110 H   0  0  0  0  0  0  0  0  0  0  0  0
    0.5081    9.3261    1.9621 H   0  0  0  0  0  0  0  0  0  0  0  0
    0.4516    7.7520    1.1471 H   0  0  0  0  0  0  0  0  0  0  0  0
    2.4578    6.3339    3.5279 H   0  0  0  0  0  0  0  0  0  0  0  0
    1.0819    7.4561    3.3237 H   0  0  0  0  0  0  0  0  0  0  0  0
    2.0216    9.0458    4.8731 H   0  0  0  0  0  0  0  0  0  0  0  0
    2.2043    7.4409    5.6462 H   0  0  0  0  0  0  0  0  0  0  0  0
    4.5970    8.9714    5.7422 C   0  0  1  0  0  3  0  0  0  0  0  0
    3.8393    9.5816    6.8934 C   0  0  0  0  0  0  0  0  0  0  0  0
    4.5125   10.0422    7.6102 H   0  0  0  0  0  0  0  0  0  0  0  0
    3.2393    8.8261    7.3997 H   0  0  0  0  0  0  0  0  0  0  0  0
    3.1653   10.3465    6.5020 H   0  0  0  0  0  0  0  0  0  0  0  0
  1 23  1  0  0  0  0
  1  4  1  0  0  0  0
  1 24  1  0  0  0  0
  2  1  1  0  0  0  0
  3  5  1  6  0  0  0
  3  1  1  0  0  0  0
  4  7  1  0  0  0  0
  5  6  1  0  0  0  0
  6 15  1  0  0  0  0
  6  4  1  0  0  0  0
  7 11  1  0  0  0  0
  7  8  2  0  0  0  0
  8 39  1  0  0  0  0
  8 16  1  0  0  0  0
  9 10  1  6  0  0  0
  9 29  1  0  0  0  0
  9  3  1  0  0  0  0
 10 19  1  0  0  0  0
 11 22  1  0  0  0  0
 11 20  1  0  0  0  0
 12  5  1  0  0  0  0
 13  5  1  0  0  0  0
 14  6  1  0  0  0  0
 17 10  1  0  0  0  0
 18 10  1  0  0  0  0
 21 11  1  0  0  0  0
 24 25  1  1  0  0  0
 24 39  1  0  0  0  0
 25 37  1  0  0  0  0
 25 38  1  0  0  0  0
 26 35  1  0  0  0  0
 26 25  1  0  0  0  0
 27  1  1  0  0  0  0
 27 26  1  0  0  0  0
 28 27  1  0  0  0  0
 29 28  2  0  0  0  0
 30 29  1  0  0  0  0
 31 28  1  0  0  0  0
 31 33  1  0  0  0  0
 32 31  1  0  0  0  0
 34 31  1  0  0  0  0
 36 26  1  0  0  0  0
 39 40  1  1  0  0  0
 40 42  1  0  0  0  0
 40 41  1  0  0  0  0
 43 40  1  0  0  0  0
M  END
$$$$
