CSD_code = ZEQDUU | q = 0 | S = 0 | Stoichiometry = C16H23ClO3PdS2 | MND = 4
 OpenBabel04212202133D

 46 49  0  0  0  0  0  0  0  0999 V2000
    5.9266    6.3787    1.4517 Pd  0  0  1  0  0  0  0  0  0  0  0  0
    7.3217    6.4521   -0.4026 Cl  0  0  0  0  0  0  0  0  0  0  0  0
    4.0799    7.0169    0.2418 S   0  0  1  0  0  3  0  0  0  0  0  0
    7.3444    5.1762    2.7875 S   0  0  1  0  0  3  0  0  0  0  0  0
    5.1847   10.8221    0.6800 O   0  0  0  0  0  0  0  0  0  0  0  0
    7.9394   10.5818    2.2474 O   0  0  0  0  0  0  0  0  0  0  0  0
    9.8831    8.2493    3.0282 O   0  0  0  0  0  0  0  0  0  0  0  0
    4.7507    6.4779    3.0574 C   0  0  0  0  0  0  0  0  0  0  0  0
    5.2475    6.1438    4.3203 C   0  0  0  0  0  0  0  0  0  0  0  0
    4.4587    6.3052    5.4533 C   0  0  0  0  0  0  0  0  0  0  0  0
    3.1725    6.8012    5.3398 C   0  0  0  0  0  0  0  0  0  0  0  0
    2.6589    7.1141    4.0940 C   0  0  0  0  0  0  0  0  0  0  0  0
    3.4385    6.9497    2.9552 C   0  0  0  0  0  0  0  0  0  0  0  0
    2.8554    7.2385    1.6007 C   0  0  0  0  0  0  0  0  0  0  0  0
    4.4915    8.7365   -0.1470 C   0  0  0  0  0  0  0  0  0  0  0  0
    5.2361    9.4413    0.9785 C   0  0  0  0  0  0  0  0  0  0  0  0
    5.9044   11.6493    1.5569 C   0  0  0  0  0  0  0  0  0  0  0  0
    7.4228   11.5608    1.3748 C   0  0  0  0  0  0  0  0  0  0  0  0
    9.3483   10.5199    2.2349 C   0  0  0  0  0  0  0  0  0  0  0  0
    9.8149    9.6066    3.3709 C   0  0  0  0  0  0  0  0  0  0  0  0
    8.6435    7.6372    2.7306 C   0  0  0  0  0  0  0  0  0  0  0  0
    8.8805    6.1346    2.8006 C   0  0  0  0  0  0  0  0  0  0  0  0
    6.6373    5.5870    4.4428 C   0  0  0  0  0  0  0  0  0  0  0  0
    4.8545    6.0415    6.4240 H   0  0  0  0  0  0  0  0  0  0  0  0
    2.5650    6.9328    6.2224 H   0  0  0  0  0  0  0  0  0  0  0  0
    1.6469    7.4826    4.0015 H   0  0  0  0  0  0  0  0  0  0  0  0
    2.4575    8.2511    1.5229 H   0  0  0  0  0  0  0  0  0  0  0  0
    2.0495    6.5341    1.3780 H   0  0  0  0  0  0  0  0  0  0  0  0
    5.1132    8.6917   -1.0419 H   0  0  0  0  0  0  0  0  0  0  0  0
    3.5681    9.2700   -0.3769 H   0  0  0  0  0  0  0  0  0  0  0  0
    6.2781    9.0676    1.0291 H   0  0  0  0  0  0  0  0  0  0  0  0
    4.7492    9.2592    1.9543 H   0  0  0  0  0  0  0  0  0  0  0  0
    5.5667   12.6615    1.3256 H   0  0  0  0  0  0  0  0  0  0  0  0
    5.6643   11.4121    2.6027 H   0  0  0  0  0  0  0  0  0  0  0  0
    7.8795   12.5355    1.6054 H   0  0  0  0  0  0  0  0  0  0  0  0
    7.6519   11.3108    0.3288 H   0  0  0  0  0  0  0  0  0  0  0  0
    9.7135   10.1346    1.2725 H   0  0  0  0  0  0  0  0  0  0  0  0
    9.7624   11.5284    2.3857 H   0  0  0  0  0  0  0  0  0  0  0  0
    9.1390    9.7570    4.2265 H   0  0  0  0  0  0  0  0  0  0  0  0
   10.8338    9.8718    3.6602 H   0  0  0  0  0  0  0  0  0  0  0  0
    7.8829    7.9579    3.4647 H   0  0  0  0  0  0  0  0  0  0  0  0
    8.2911    7.9017    1.7168 H   0  0  0  0  0  0  0  0  0  0  0  0
    9.4407    5.8753    3.7001 H   0  0  0  0  0  0  0  0  0  0  0  0
    9.4368    5.8059    1.9225 H   0  0  0  0  0  0  0  0  0  0  0  0
    6.6377    4.6589    5.0191 H   0  0  0  0  0  0  0  0  0  0  0  0
    7.3163    6.2931    4.9222 H   0  0  0  0  0  0  0  0  0  0  0  0
  1  2  1  1  0  0  0
  1  4  1  0  0  0  0
  1  8  1  0  0  0  0
  3 15  1  1  0  0  0
  3  1  1  0  0  0  0
  3 14  1  0  0  0  0
  4 22  1  1  0  0  0
  4 23  1  0  0  0  0
  5 16  1  0  0  0  0
  5 17  1  0  0  0  0
  7 20  1  0  0  0  0
  8  9  1  0  0  0  0
  9 23  1  0  0  0  0
  9 10  2  0  0  0  0
 10 24  1  0  0  0  0
 11 10  1  0  0  0  0
 11 25  1  0  0  0  0
 12 11  2  0  0  0  0
 13  8  2  0  0  0  0
 13 12  1  0  0  0  0
 14 13  1  0  0  0  0
 15 16  1  0  0  0  0
 16 31  1  0  0  0  0
 16 32  1  0  0  0  0
 17 34  1  0  0  0  0
 18 17  1  0  0  0  0
 18 35  1  0  0  0  0
 18  6  1  0  0  0  0
 19  6  1  0  0  0  0
 19 38  1  0  0  0  0
 19 20  1  0  0  0  0
 20 40  1  0  0  0  0
 20 39  1  0  0  0  0
 21 22  1  0  0  0  0
 21  7  1  0  0  0  0
 21 41  1  0  0  0  0
 22 43  1  0  0  0  0
 23 46  1  0  0  0  0
 23 45  1  0  0  0  0
 26 12  1  0  0  0  0
 27 14  1  0  0  0  0
 28 14  1  0  0  0  0
 29 15  1  0  0  0  0
 30 15  1  0  0  0  0
 33 17  1  0  0  0  0
 36 18  1  0  0  0  0
 37 19  1  0  0  0  0
 42 21  1  0  0  0  0
 44 22  1  0  0  0  0
M  END
$$$$
