CSD_code = ZEQHIM | q = 0 | S = 0 | Stoichiometry = C6H12Cl2O4RuS2 | MND = 6
 OpenBabel04212202133D

 27 26  0  0  0  0  0  0  0  0999 V2000
    1.8555    6.6387    2.0502 Ru  0  0  0  0  0  0  0  0  0  0  0  0
    3.7692    5.5237    1.3310 Cl  0  0  0  0  0  0  0  0  0  0  0  0
    0.9601    4.6552    2.8787 Cl  0  0  0  0  0  0  0  0  0  0  0  0
    0.8417    5.9202    0.0505 S   0  0  0  0  0  0  0  0  0  0  0  0
    3.0557    6.7893    4.0700 S   0  0  0  0  0  0  0  0  0  0  0  0
   -0.6051    7.8847    3.2210 O   0  0  0  0  0  1  0  0  0  0  0  0
    3.1218    9.0243    0.7533 O   0  0  0  0  0  1  0  0  0  0  0  0
    0.9859    6.8196   -1.0733 O   0  0  0  0  0  1  0  0  0  0  0  0
    2.3822    7.4952    5.1381 O   0  0  0  0  0  1  0  0  0  0  0  0
    0.3317    7.4571    2.7454 C   0  0  0  0  0  2  0  0  0  0  0  0
    2.6118    8.1551    1.2736 C   0  0  0  0  0  2  0  0  0  0  0  0
   -0.9318    5.5940    0.2646 C   0  0  0  0  0  0  0  0  0  0  0  0
    1.3787    4.2702   -0.4654 C   0  0  0  0  0  0  0  0  0  0  0  0
    3.5945    5.1798    4.6998 C   0  0  0  0  0  0  0  0  0  0  0  0
    4.6798    7.5684    3.8399 C   0  0  0  0  0  0  0  0  0  0  0  0
   -1.0419    4.9113    1.1007 H   0  0  0  0  0  0  0  0  0  0  0  0
   -1.4149    6.5434    0.4742 H   0  0  0  0  0  0  0  0  0  0  0  0
   -1.3242    5.1698   -0.6529 H   0  0  0  0  0  0  0  0  0  0  0  0
    1.2204    3.6017    0.3747 H   0  0  0  0  0  0  0  0  0  0  0  0
    0.7987    3.9837   -1.3351 H   0  0  0  0  0  0  0  0  0  0  0  0
    2.4351    4.3269   -0.7105 H   0  0  0  0  0  0  0  0  0  0  0  0
    4.1428    4.6879    3.9028 H   0  0  0  0  0  0  0  0  0  0  0  0
    4.2069    5.3502    5.5777 H   0  0  0  0  0  0  0  0  0  0  0  0
    2.7064    4.6099    4.9563 H   0  0  0  0  0  0  0  0  0  0  0  0
    5.1931    7.0316    3.0489 H   0  0  0  0  0  0  0  0  0  0  0  0
    4.5083    8.6025    3.5573 H   0  0  0  0  0  0  0  0  0  0  0  0
    5.2268    7.5226    4.7751 H   0  0  0  0  0  0  0  0  0  0  0  0
  1 10  1  0  0  0  0
  1  3  1  0  0  0  0
  1  5  1  0  0  0  0
  2  1  1  0  0  0  0
  4 12  1  0  0  0  0
  4  1  1  0  0  0  0
  5 14  1  0  0  0  0
  5  9  1  0  0  0  0
  7 11  1  0  0  0  0
  8  4  1  0  0  0  0
 10  6  1  0  0  0  0
 11  1  1  0  0  0  0
 12 17  1  0  0  0  0
 12 16  1  0  0  0  0
 13  4  1  0  0  0  0
 13 19  1  0  0  0  0
 14 24  1  0  0  0  0
 14 23  1  0  0  0  0
 15  5  1  0  0  0  0
 15 27  1  0  0  0  0
 18 12  1  0  0  0  0
 20 13  1  0  0  0  0
 21 13  1  0  0  0  0
 22 14  1  0  0  0  0
 25 15  1  0  0  0  0
 26 15  1  0  0  0  0
M  END
$$$$
