CSD_code = ZEQJAG | q = 0 | S = 0 | Stoichiometry = C10H17Cl2NO3RuS2 | MND = 6
 OpenBabel04212202133D

 36 36  0  0  0  0  0  0  0  0999 V2000
    2.4004    2.4722    3.8494 Ru  0  0  0  0  0  0  0  0  0  0  0  0
    1.5306    3.6538    5.7091 Cl  0  0  0  0  0  0  0  0  0  0  0  0
    0.3249    1.5561    3.3291 Cl  0  0  0  0  0  0  0  0  0  0  0  0
    1.6564    4.2900    2.6658 S   0  0  0  0  0  0  0  0  0  0  0  0
    3.0468    1.3434    1.9115 S   0  0  0  0  0  0  0  0  0  0  0  0
    5.0987    3.6500    4.3189 O   0  0  0  0  0  1  0  0  0  0  0  0
    1.9375    4.2308    1.2329 O   0  0  0  0  0  1  0  0  0  0  0  0
    3.5979    0.0222    2.1782 O   0  0  0  0  0  1  0  0  0  0  0  0
    2.7724    0.8175    5.0325 N   0  0  0  0  0  0  0  0  0  0  0  0
    4.0598    3.1911    4.1691 C   0  0  0  0  0  2  0  0  0  0  0  0
    1.7930    0.4098    5.8390 C   0  0  0  0  0  3  0  0  0  0  0  0
    1.8980   -0.7321    6.6155 C   0  0  0  0  0  0  0  0  0  0  0  0
    3.0593   -1.4829    6.5562 C   0  0  0  0  0  0  0  0  0  0  0  0
    4.0820   -1.0439    5.7294 C   0  0  0  0  0  0  0  0  0  0  0  0
    3.9014    0.1104    4.9897 C   0  0  0  0  0  0  0  0  0  0  0  0
    2.3464    5.8604    3.2667 C   0  0  0  0  0  0  0  0  0  0  0  0
   -0.0931    4.7006    2.8687 C   0  0  0  0  0  0  0  0  0  0  0  0
    1.8495    1.1574    0.5636 C   0  0  0  0  0  0  0  0  0  0  0  0
    4.3204    2.2480    0.9739 C   0  0  0  0  0  0  0  0  0  0  0  0
    3.4189    5.8377    3.1012 H   0  0  0  0  0  0  0  0  0  0  0  0
    1.9001    6.6821    2.7184 H   0  0  0  0  0  0  0  0  0  0  0  0
    2.1276    5.9180    4.3282 H   0  0  0  0  0  0  0  0  0  0  0  0
   -0.6769    3.8691    2.4870 H   0  0  0  0  0  0  0  0  0  0  0  0
   -0.2652    4.8175    3.9338 H   0  0  0  0  0  0  0  0  0  0  0  0
   -0.2992    5.6082    2.3136 H   0  0  0  0  0  0  0  0  0  0  0  0
    0.9987    0.6048    0.9482 H   0  0  0  0  0  0  0  0  0  0  0  0
    1.5539    2.1540    0.2553 H   0  0  0  0  0  0  0  0  0  0  0  0
    2.3363    0.6074   -0.2332 H   0  0  0  0  0  0  0  0  0  0  0  0
    5.1741    2.3998    1.6260 H   0  0  0  0  0  0  0  0  0  0  0  0
    4.6101    1.6552    0.1140 H   0  0  0  0  0  0  0  0  0  0  0  0
    3.8866    3.1963    0.6768 H   0  0  0  0  0  0  0  0  0  0  0  0
    0.8933    1.0136    5.8687 H   0  0  0  0  0  0  0  0  0  0  0  0
    1.0750   -1.0210    7.2491 H   0  0  0  0  0  0  0  0  0  0  0  0
    3.1689   -2.3832    7.1413 H   0  0  0  0  0  0  0  0  0  0  0  0
    5.0103   -1.5864    5.6523 H   0  0  0  0  0  0  0  0  0  0  0  0
    4.6834    0.4716    4.3344 H   0  0  0  0  0  0  0  0  0  0  0  0
  1 10  1  0  0  0  0
  1  9  1  0  0  0  0
  1  2  1  0  0  0  0
  3  1  1  0  0  0  0
  4 17  1  0  0  0  0
  4 16  1  0  0  0  0
  4  1  1  0  0  0  0
  5  8  1  0  0  0  0
  5  1  1  0  0  0  0
  7  4  1  0  0  0  0
  9 11  1  0  0  0  0
 10  6  1  0  0  0  0
 11 32  1  0  0  0  0
 11 12  1  0  0  0  0
 12 33  1  0  0  0  0
 13 12  2  0  0  0  0
 13 34  1  0  0  0  0
 14 13  1  0  0  0  0
 15  9  1  0  0  0  0
 15 14  2  0  0  0  0
 16 22  1  0  0  0  0
 17 24  1  0  0  0  0
 18 26  1  0  0  0  0
 18  5  1  0  0  0  0
 19 29  1  0  0  0  0
 19  5  1  0  0  0  0
 20 16  1  0  0  0  0
 21 16  1  0  0  0  0
 23 17  1  0  0  0  0
 25 17  1  0  0  0  0
 27 18  1  0  0  0  0
 28 18  1  0  0  0  0
 30 19  1  0  0  0  0
 31 19  1  0  0  0  0
 35 14  1  0  0  0  0
 36 15  1  0  0  0  0
M  END
$$$$
