CSD_code = ZEQJEK | q = 0 | S = 0 | Stoichiometry = C9H11Cl2NO3RuS | MND = 6
 OpenBabel04212202133D

 28 28  0  0  0  0  0  0  0  0999 V2000
    0.0208    1.0913    9.4706 Ru  0  0  0  0  0  0  0  0  0  0  0  0
    0.2396    2.6673   11.1881 Cl  0  0  0  0  0  0  0  0  0  0  0  0
   -2.1234    0.5409   10.2462 Cl  0  0  0  0  0  0  0  0  0  0  0  0
   -1.1679    2.7758    8.3762 S   0  0  0  0  0  0  0  0  0  0  0  0
    0.8369   -0.3275   10.8165 N   0  0  0  0  0  0  0  0  0  0  0  0
   -0.2024   -0.1302    8.0937 C   0  0  0  0  0  2  0  0  0  0  0  0
    1.6626    1.7956    8.9314 C   0  0  0  0  0  2  0  0  0  0  0  0
   -0.3874   -0.8649    7.2401 O   0  0  0  0  0  1  0  0  0  0  0  0
    2.6145    2.3521    8.6644 O   0  0  0  0  0  1  0  0  0  0  0  0
   -0.3467    3.6255    7.5391 O   0  0  0  0  0  1  0  0  0  0  0  0
   -2.1775    3.8407    9.4377 C   0  0  0  0  0  0  0  0  0  0  0  0
   -2.4932    2.1094    7.3231 C   0  0  0  0  0  0  0  0  0  0  0  0
    1.8403    0.0107   11.6279 C   0  0  0  0  0  3  0  0  0  0  0  0
    2.2142   -0.7662   12.7110 C   0  0  0  0  0  0  0  0  0  0  0  0
    1.5265   -1.9410   12.9690 C   0  0  0  0  0  0  0  0  0  0  0  0
    0.4973   -2.2983   12.1130 C   0  0  0  0  0  0  0  0  0  0  0  0
    0.1852   -1.4681   11.0501 C   0  0  0  0  0  0  0  0  0  0  0  0
   -1.5067    4.3829   10.0970 H   0  0  0  0  0  0  0  0  0  0  0  0
   -2.7234    4.5245    8.7977 H   0  0  0  0  0  0  0  0  0  0  0  0
   -2.8382    3.2007   10.0131 H   0  0  0  0  0  0  0  0  0  0  0  0
   -3.1123    1.4651    7.9387 H   0  0  0  0  0  0  0  0  0  0  0  0
   -3.0611    2.9354    6.9101 H   0  0  0  0  0  0  0  0  0  0  0  0
   -2.0230    1.5441    6.5244 H   0  0  0  0  0  0  0  0  0  0  0  0
    2.3544    0.9408   11.4174 H   0  0  0  0  0  0  0  0  0  0  0  0
    3.0257   -0.4430   13.3428 H   0  0  0  0  0  0  0  0  0  0  0  0
    1.7853   -2.5607   13.8137 H   0  0  0  0  0  0  0  0  0  0  0  0
   -0.0686   -3.2032   12.2655 H   0  0  0  0  0  0  0  0  0  0  0  0
   -0.6246   -1.7216   10.3758 H   0  0  0  0  0  0  0  0  0  0  0  0
  1  3  1  0  0  0  0
  1  5  1  0  0  0  0
  1  2  1  0  0  0  0
  4 11  1  0  0  0  0
  4  1  1  0  0  0  0
  5 17  1  0  0  0  0
  5 13  1  0  0  0  0
  6  1  1  0  0  0  0
  7  1  1  0  0  0  0
  8  6  1  0  0  0  0
  9  7  1  0  0  0  0
 10  4  1  0  0  0  0
 11 20  1  0  0  0  0
 11 18  1  0  0  0  0
 12 21  1  0  0  0  0
 12  4  1  0  0  0  0
 13 14  1  0  0  0  0
 14 15  2  0  0  0  0
 14 25  1  0  0  0  0
 15 26  1  0  0  0  0
 16 27  1  0  0  0  0
 16 15  1  0  0  0  0
 17 16  2  0  0  0  0
 19 11  1  0  0  0  0
 22 12  1  0  0  0  0
 23 12  1  0  0  0  0
 24 13  1  0  0  0  0
 28 17  1  0  0  0  0
M  END
$$$$
