CSD_code = ZEQLAK | q = 1 | S = 0 | Stoichiometry = C17H20IN4Zn(1+) | MND = 5
 OpenBabel04212202133D

 43 47  0  0  1  0  0  0  0  0999 V2000
    3.1245    2.5417    3.2764 Zn  0  0  0  0  0  0  0  0  0  0  0  0
    5.1417    3.6240    2.3138 I   0  0  0  0  0  0  0  0  0  0  0  0
    3.0057    0.5958    2.3257 N   0  0  0  0  0  0  0  0  0  0  0  0
    1.6175    2.7934    1.8084 N   0  0  2  0  0  0  0  0  0  0  0  0
    1.7724    3.3581    4.6651 N   0  0  1  0  0  0  0  0  0  0  0  0
    3.8381    1.7893    5.1617 N   0  0  0  0  0  0  0  0  0  0  0  0
    2.4706    0.7306    1.1039 C   0  0  2  0  0  3  0  0  0  0  0  0
    2.7780   -0.1542    0.0734 C   0  0  0  0  0  0  0  0  0  0  0  0
    2.3928   -0.0009   -0.9210 H   0  0  0  0  0  0  0  0  0  0  0  0
    3.6225   -1.2228    0.3287 C   0  0  0  0  0  0  0  0  0  0  0  0
    3.8847   -1.9108   -0.4597 H   0  0  0  0  0  0  0  0  0  0  0  0
    4.1136   -1.3916    1.6124 C   0  0  0  0  0  0  0  0  0  0  0  0
    4.7513   -2.2228    1.8647 H   0  0  0  0  0  0  0  0  0  0  0  0
    3.7833   -0.4472    2.5721 C   0  0  0  0  0  0  0  0  0  0  0  0
    4.1561   -0.5355    3.5827 H   0  0  0  0  0  0  0  0  0  0  0  0
    1.5618    1.8769    0.9217 C   0  0  2  0  0  3  0  0  0  0  0  0
    0.6518    1.9134   -0.2585 C   0  0  0  0  0  0  0  0  0  0  0  0
   -0.3182    2.3219    0.0206 H   0  0  0  0  0  0  0  0  0  0  0  0
    0.5003    0.9301   -0.6904 H   0  0  0  0  0  0  0  0  0  0  0  0
    1.0732    2.5728   -1.0192 H   0  0  0  0  0  0  0  0  0  0  0  0
    0.7885    3.9653    1.7283 C   0  0  0  0  0  0  0  0  0  0  0  0
   -0.2698    3.6724    1.6942 H   0  0  0  0  0  0  0  0  0  0  0  0
    1.0077    4.5078    0.8005 H   0  0  0  0  0  0  0  0  0  0  0  0
    1.0224    4.8899    2.9180 C   0  0  0  0  0  0  0  0  0  0  0  0
    2.0612    5.2255    2.9259 H   0  0  0  0  0  0  0  0  0  0  0  0
    0.3883    5.7686    2.7961 H   0  0  0  0  0  0  0  0  0  0  0  0
    0.7015    4.2291    4.2563 C   0  0  0  0  0  0  0  0  0  0  0  0
    0.5565    5.0051    5.0174 H   0  0  0  0  0  0  0  0  0  0  0  0
   -0.2356    3.6618    4.1799 H   0  0  0  0  0  0  0  0  0  0  0  0
    1.8064    2.8412    5.8320 C   0  0  2  0  0  3  0  0  0  0  0  0
    0.7314    3.0045    6.8522 C   0  0  0  0  0  0  0  0  0  0  0  0
    0.8533    3.9584    7.3684 H   0  0  0  0  0  0  0  0  0  0  0  0
    0.7511    2.2064    7.5875 H   0  0  0  0  0  0  0  0  0  0  0  0
   -0.2469    3.0139    6.3751 H   0  0  0  0  0  0  0  0  0  0  0  0
    3.0402    2.1149    6.1841 C   0  0  2  0  0  3  0  0  0  0  0  0
    3.4203    1.8804    7.5031 C   0  0  0  0  0  0  0  0  0  0  0  0
    2.7866    2.1720    8.3240 H   0  0  0  0  0  0  0  0  0  0  0  0
    4.6534    1.2981    7.7554 C   0  0  0  0  0  0  0  0  0  0  0  0
    4.9688    1.1122    8.7703 H   0  0  0  0  0  0  0  0  0  0  0  0
    5.4761    0.9808    6.6876 C   0  0  0  0  0  0  0  0  0  0  0  0
    6.4498    0.5446    6.8387 H   0  0  0  0  0  0  0  0  0  0  0  0
    5.0232    1.2531    5.4050 C   0  0  0  0  0  0  0  0  0  0  0  0
    5.6465    1.0521    4.5438 H   0  0  0  0  0  0  0  0  0  0  0  0
  1  5  1  0  0  0  0
  1  6  1  0  0  0  0
  2  1  1  0  0  0  0
  3 14  1  0  0  0  0
  3  1  1  0  0  0  0
  4 21  1  6  0  0  0
  4  1  1  0  0  0  0
  5 27  1  6  0  0  0
  5 30  1  0  0  0  0
  6 42  1  0  0  0  0
  6 35  1  0  0  0  0
  7  8  1  6  0  0  0
  7  3  1  0  0  0  0
  8 10  2  0  0  0  0
  9  8  1  0  0  0  0
 10 12  1  0  0  0  0
 11 10  1  0  0  0  0
 12 13  1  0  0  0  0
 12 14  2  0  0  0  0
 14 15  1  0  0  0  0
 16 17  1  6  0  0  0
 16  7  1  0  0  0  0
 16  4  1  0  0  0  0
 17 18  1  0  0  0  0
 19 17  1  0  0  0  0
 20 17  1  0  0  0  0
 21 24  1  0  0  0  0
 22 21  1  0  0  0  0
 23 21  1  0  0  0  0
 24 25  1  0  0  0  0
 24 27  1  0  0  0  0
 26 24  1  0  0  0  0
 27 28  1  0  0  0  0
 29 27  1  0  0  0  0
 30 35  1  0  0  0  0
 30 31  1  1  0  0  0
 31 32  1  0  0  0  0
 31 33  1  0  0  0  0
 34 31  1  0  0  0  0
 35 36  1  1  0  0  0
 36 38  2  0  0  0  0
 36 37  1  0  0  0  0
 38 39  1  0  0  0  0
 40 41  1  0  0  0  0
 40 38  1  0  0  0  0
 42 40  2  0  0  0  0
 43 42  1  0  0  0  0
M  END
$$$$
