CSD_code = ZEQQAN | q = 0 | S = 0 | Stoichiometry = C12H28I3LaO4 | MND = 7
 OpenBabel04212202133D

 48 46  0  0  0  0  0  0  0  0999 V2000
    3.3828    1.7462   -0.9166 La  0  0  0  0  0  0  0  0  0  0  0  0
    6.2655    0.9492    0.9936 I   0  0  0  0  0  0  0  0  0  0  0  0
    3.5740   -1.0174    0.2506 I   0  0  0  0  0  0  0  0  0  0  0  0
    4.2925    4.5178   -1.6072 I   0  0  0  0  0  0  0  0  0  0  0  0
    4.8291    2.3433    1.1181 O   0  0  0  0  0  0  0  0  0  0  0  0
    4.4899    2.7871    2.4115 C   0  0  0  0  0  0  0  0  0  0  0  0
    3.8468    1.6731    3.2255 C   0  0  0  0  0  0  0  0  0  0  0  0
    5.6943    3.3987    3.1139 C   0  0  0  0  0  0  0  0  0  0  0  0
    3.1152    1.0283   -2.8124 O   0  0  0  0  0  0  0  0  0  0  0  0
    1.9211    0.9346   -3.4713 C   0  0  0  0  0  0  0  0  0  0  0  0
    1.2830    2.3213   -3.6927 C   0  0  0  0  0  0  0  0  0  0  0  0
    0.9359    0.0051   -2.7322 C   0  0  0  0  0  0  0  0  0  0  0  0
    1.8462    2.2636    0.3873 O   0  0  0  0  0  0  0  0  0  0  0  0
    0.6402    2.8744    0.5852 C   0  0  0  0  0  0  0  0  0  0  0  0
    0.2100    2.7791    2.0593 C   0  0  0  0  0  0  0  0  0  0  0  0
    0.6589    4.3514    0.1404 C   0  0  0  0  0  0  0  0  0  0  0  0
    5.8888    1.3370   -0.9777 O   0  0  0  0  0  0  0  0  0  0  0  0
    6.8791    0.9226   -1.8969 C   0  0  0  0  0  0  0  0  0  0  0  0
    6.4320    1.4111   -3.2776 C   0  0  0  0  0  0  0  0  0  0  0  0
    7.0456   -0.5917   -1.8608 C   0  0  0  0  0  0  0  0  0  0  0  0
    3.7441    3.5747    2.2223 H   0  0  0  0  0  0  0  0  0  0  0  0
    2.9721    1.2856    2.7049 H   0  0  0  0  0  0  0  0  0  0  0  0
    4.5733    0.8651    3.3506 H   0  0  0  0  0  0  0  0  0  0  0  0
    3.5416    2.0364    4.2030 H   0  0  0  0  0  0  0  0  0  0  0  0
    5.4039    3.8451    4.0607 H   0  0  0  0  0  0  0  0  0  0  0  0
    6.4255    2.6049    3.2942 H   0  0  0  0  0  0  0  0  0  0  0  0
    6.1528    4.1607    2.4874 H   0  0  0  0  0  0  0  0  0  0  0  0
    2.1156    0.4912   -4.4703 H   0  0  0  0  0  0  0  0  0  0  0  0
    1.9888    2.9756   -4.2047 H   0  0  0  0  0  0  0  0  0  0  0  0
    0.3821    2.2335   -4.2955 H   0  0  0  0  0  0  0  0  0  0  0  0
    1.0165    2.7672   -2.7294 H   0  0  0  0  0  0  0  0  0  0  0  0
    1.3747   -0.9859   -2.6200 H   0  0  0  0  0  0  0  0  0  0  0  0
    0.7167    0.4073   -1.7376 H   0  0  0  0  0  0  0  0  0  0  0  0
    0.0055   -0.0797   -3.2888 H   0  0  0  0  0  0  0  0  0  0  0  0
   -0.1392    2.3579   -0.0218 H   0  0  0  0  0  0  0  0  0  0  0  0
   -0.7868    3.1920    2.1868 H   0  0  0  0  0  0  0  0  0  0  0  0
    0.2077    1.7377    2.3739 H   0  0  0  0  0  0  0  0  0  0  0  0
    0.9090    3.3314    2.6847 H   0  0  0  0  0  0  0  0  0  0  0  0
    0.9230    4.4342   -0.9138 H   0  0  0  0  0  0  0  0  0  0  0  0
   -0.3212    4.7968    0.2899 H   0  0  0  0  0  0  0  0  0  0  0  0
    1.3939    4.9016    0.7267 H   0  0  0  0  0  0  0  0  0  0  0  0
    7.8371    1.4027   -1.6397 H   0  0  0  0  0  0  0  0  0  0  0  0
    6.4018    2.4987   -3.3017 H   0  0  0  0  0  0  0  0  0  0  0  0
    7.1341    1.0606   -4.0291 H   0  0  0  0  0  0  0  0  0  0  0  0
    5.4392    1.0239   -3.5062 H   0  0  0  0  0  0  0  0  0  0  0  0
    7.3503   -0.8843   -0.8492 H   0  0  0  0  0  0  0  0  0  0  0  0
    6.1026   -1.0836   -2.0946 H   0  0  0  0  0  0  0  0  0  0  0  0
    7.8019   -0.9148   -2.5705 H   0  0  0  0  0  0  0  0  0  0  0  0
  1  3  1  0  0  0  0
  1 13  1  0  0  0  0
  2  5  1  0  0  0  0
  4  1  1  0  0  0  0
  5  6  1  0  0  0  0
  6  8  1  0  0  0  0
  6  7  1  0  0  0  0
  7 23  1  0  0  0  0
  7 24  1  0  0  0  0
  8 26  1  0  0  0  0
  8 25  1  0  0  0  0
  9  1  1  0  0  0  0
 10  9  1  0  0  0  0
 10 12  1  0  0  0  0
 11 10  1  0  0  0  0
 11 31  1  0  0  0  0
 12 32  1  0  0  0  0
 12 33  1  0  0  0  0
 13 14  1  0  0  0  0
 14 15  1  0  0  0  0
 15 36  1  0  0  0  0
 15 37  1  0  0  0  0
 15 38  1  0  0  0  0
 16 40  1  0  0  0  0
 16 14  1  0  0  0  0
 16 41  1  0  0  0  0
 17  1  1  0  0  0  0
 18 20  1  0  0  0  0
 18 42  1  0  0  0  0
 18 17  1  0  0  0  0
 19 18  1  0  0  0  0
 20 46  1  0  0  0  0
 21  6  1  0  0  0  0
 22  7  1  0  0  0  0
 27  8  1  0  0  0  0
 28 10  1  0  0  0  0
 29 11  1  0  0  0  0
 30 11  1  0  0  0  0
 34 12  1  0  0  0  0
 35 14  1  0  0  0  0
 39 16  1  0  0  0  0
 43 19  1  0  0  0  0
 44 19  1  0  0  0  0
 45 19  1  0  0  0  0
 47 20  1  0  0  0  0
 48 20  1  0  0  0  0
M  END
$$$$
