CSD_code = ZERMAN | q = 0 | S = 0 | Stoichiometry = C26H28ClMnN2O3 | MND = 6
 OpenBabel04212202133D

 61 66  0  0  1  0  0  0  0  0999 V2000
    2.1562    5.6104    0.3338 Mn  0  0  0  0  0  0  0  0  0  0  0  0
    4.2403    6.1007   -0.2304 Cl  0  0  0  0  0  0  0  0  0  0  0  0
   -0.0558    5.0470    0.8161 O   0  0  0  0  0  0  0  0  0  0  0  0
    2.2961    6.0070    2.0792 O   0  0  0  0  0  0  0  0  0  0  0  0
    1.6091    5.4625   -1.4758 N   0  0  2  0  0  0  0  0  0  0  0  0
    2.6920    8.3410    2.0957 C   0  0  0  0  0  0  0  0  0  0  0  0
    2.7436    7.0513    2.6872 C   0  0  0  0  0  0  0  0  0  0  0  0
    3.6352    9.2930    4.1619 C   0  0  0  0  0  0  0  0  0  0  0  0
    1.6308    6.7242   -2.1928 C   0  0  1  0  0  0  0  0  0  0  0  0
    2.6963    6.9762   -2.3230 H   0  0  0  0  0  0  0  0  0  0  0  0
    4.1222   11.6507    4.3591 C   0  0  0  0  0  0  0  0  0  0  0  0
    4.4822   12.4921    4.9322 H   0  0  0  0  0  0  0  0  0  0  0  0
    3.2101    6.9161    4.0275 C   0  0  0  0  0  0  0  0  0  0  0  0
    3.2274    5.9205    4.4457 H   0  0  0  0  0  0  0  0  0  0  0  0
    3.6412    7.9927    4.7287 C   0  0  0  0  0  0  0  0  0  0  0  0
    4.0086    7.8755    5.7385 H   0  0  0  0  0  0  0  0  0  0  0  0
    1.1980    4.3670   -2.0448 C   0  0  0  0  0  3  0  0  0  0  0  0
    0.8071    4.3915   -3.0591 H   0  0  0  0  0  0  0  0  0  0  0  0
    1.0563    8.2031   -4.1127 C   0  0  0  0  0  0  0  0  0  0  0  0
    0.5488    8.2578   -5.0775 H   0  0  0  0  0  0  0  0  0  0  0  0
    2.1115    8.4309   -4.2736 H   0  0  0  0  0  0  0  0  0  0  0  0
    1.9521    2.8805   -0.2000 C   0  0  0  0  0  0  0  0  0  0  0  0
   -0.5167    4.8895    2.1533 C   0  0  0  0  0  0  0  0  0  0  0  0
   -0.2822    5.8285    2.6601 H   0  0  0  0  0  0  0  0  0  0  0  0
   -1.6081    4.7579    2.1329 H   0  0  0  0  0  0  0  0  0  0  0  0
    1.2530    3.0805   -1.4381 C   0  0  0  0  0  0  0  0  0  0  0  0
    2.5444    3.8468    0.4073 O   0  0  0  0  0  0  0  0  0  0  0  0
    1.7117    7.4999    0.0570 N   0  0  1  0  0  0  0  0  0  0  0  0
    0.9276    6.7915   -3.5465 C   0  0  0  0  0  0  0  0  0  0  0  0
   -0.1294    6.5370   -3.4308 H   0  0  0  0  0  0  0  0  0  0  0  0
    1.3864    6.0866   -4.2420 H   0  0  0  0  0  0  0  0  0  0  0  0
    2.0922    8.4828    0.8144 C   0  0  0  0  0  3  0  0  0  0  0  0
    1.8952    9.4976    0.4876 H   0  0  0  0  0  0  0  0  0  0  0  0
    1.0375    7.7582   -1.2080 C   0  0  1  0  0  0  0  0  0  0  0  0
   -0.0271    7.5107   -1.0647 H   0  0  0  0  0  0  0  0  0  0  0  0
    0.7441    0.7134   -1.5396 C   0  0  0  0  0  0  0  0  0  0  0  0
    0.2864   -0.1238   -2.0436 H   0  0  0  0  0  0  0  0  0  0  0  0
    0.6832    1.9690   -2.0856 C   0  0  0  0  0  0  0  0  0  0  0  0
    0.1763    2.1281   -3.0276 H   0  0  0  0  0  0  0  0  0  0  0  0
    1.4143    0.5159   -0.3269 C   0  0  0  0  0  0  0  0  0  0  0  0
    1.4654   -0.4758    0.0982 H   0  0  0  0  0  0  0  0  0  0  0  0
    0.4571    9.2234   -3.1534 C   0  0  0  0  0  0  0  0  0  0  0  0
    0.5593   10.2274   -3.5688 H   0  0  0  0  0  0  0  0  0  0  0  0
   -0.6094    9.0216   -3.0271 H   0  0  0  0  0  0  0  0  0  0  0  0
    2.0133    1.5643    0.3194 C   0  0  0  0  0  0  0  0  0  0  0  0
    2.5442    1.4213    1.2488 H   0  0  0  0  0  0  0  0  0  0  0  0
    3.1649    9.4767    2.8355 C   0  0  0  0  0  0  0  0  0  0  0  0
    3.6846   11.8368    3.0459 C   0  0  0  0  0  0  0  0  0  0  0  0
    3.7176   12.8241    2.6083 H   0  0  0  0  0  0  0  0  0  0  0  0
    4.1013   10.3933    4.9014 C   0  0  0  0  0  0  0  0  0  0  0  0
    4.4505   10.2256    5.9104 H   0  0  0  0  0  0  0  0  0  0  0  0
    3.2217   10.7793    2.3046 C   0  0  0  0  0  0  0  0  0  0  0  0
    2.9173   10.9640    1.2865 H   0  0  0  0  0  0  0  0  0  0  0  0
    1.1477    9.1677   -1.7923 C   0  0  0  0  0  0  0  0  0  0  0  0
    2.2024    9.4284   -1.9002 H   0  0  0  0  0  0  0  0  0  0  0  0
    0.6685    9.8931   -1.1315 H   0  0  0  0  0  0  0  0  0  0  0  0
    0.1529    3.7209    2.8591 C   0  0  0  0  0  0  0  0  0  0  0  0
   -0.1058    2.7788    2.3762 H   0  0  0  0  0  0  0  0  0  0  0  0
   -0.1621    3.6811    3.8981 H   0  0  0  0  0  0  0  0  0  0  0  0
    1.2338    3.8510    2.8214 H   0  0  0  0  0  0  0  0  0  0  0  0
   -0.1740    4.1938    0.3727 H   0  0  0  0  0  0  0  0  0  0  0  0
  1 27  1  0  0  0  0
  1  4  1  0  0  0  0
  2  1  1  0  0  0  0
  3 23  1  0  0  0  0
  4  7  1  0  0  0  0
  5 17  1  1  0  0  0
  5  1  1  0  0  0  0
  6  7  2  0  0  0  0
  6 47  1  0  0  0  0
  7 13  1  0  0  0  0
  8 15  1  0  0  0  0
  8 50  1  0  0  0  0
  9 10  1  6  0  0  0
  9  5  1  0  0  0  0
  9 34  1  0  0  0  0
 11 50  2  0  0  0  0
 11 12  1  0  0  0  0
 13 14  1  0  0  0  0
 13 15  2  0  0  0  0
 15 16  1  0  0  0  0
 17 26  1  0  0  0  0
 18 17  1  0  0  0  0
 19 29  1  0  0  0  0
 19 42  1  0  0  0  0
 20 19  1  0  0  0  0
 21 19  1  0  0  0  0
 22 45  1  0  0  0  0
 22 27  1  0  0  0  0
 23 24  1  0  0  0  0
 23 57  1  0  0  0  0
 25 23  1  0  0  0  0
 26 22  2  0  0  0  0
 28  1  1  0  0  0  0
 28 32  1  6  0  0  0
 29 30  1  0  0  0  0
 29  9  1  0  0  0  0
 31 29  1  0  0  0  0
 32  6  1  0  0  0  0
 33 32  1  0  0  0  0
 34 35  1  1  0  0  0
 34 28  1  0  0  0  0
 36 40  1  0  0  0  0
 37 36  1  0  0  0  0
 38 36  2  0  0  0  0
 38 26  1  0  0  0  0
 39 38  1  0  0  0  0
 40 41  1  0  0  0  0
 40 45  2  0  0  0  0
 42 44  1  0  0  0  0
 42 54  1  0  0  0  0
 43 42  1  0  0  0  0
 45 46  1  0  0  0  0
 47  8  2  0  0  0  0
 48 11  1  0  0  0  0
 49 48  1  0  0  0  0
 50 51  1  0  0  0  0
 52 47  1  0  0  0  0
 52 48  2  0  0  0  0
 53 52  1  0  0  0  0
 54 34  1  0  0  0  0
 54 56  1  0  0  0  0
 55 54  1  0  0  0  0
 57 59  1  0  0  0  0
 58 57  1  0  0  0  0
 60 57  1  0  0  0  0
 61  3  1  0  0  0  0
M  END
$$$$
