CSD_code = ZESRUK | q = 0 | S = 0 | Stoichiometry = C34H31Cl2PRu | MND = 9
 OpenBabel04212202133D

 69 71  0  0  1  0  0  0  0  0999 V2000
    2.6842    0.2716    1.5728 Ru  0  0  0  0  0  0  0  0  0  0  0  0
    2.9361    0.7467    3.7806 P   0  0  0  0  0  0  0  0  0  0  0  0
    3.8983   -1.6687    2.0872 Cl  0  0  0  0  0 15  0  0  0  0  0  0
    0.6949   -0.8940    2.0411 Cl  0  0  0  0  0 15  0  0  0  0  0  0
    2.2236    2.3166    0.4931 C   0  0  2  0  0  3  0  0  0  0  0  0
    3.5840    2.1313    0.8625 C   0  0  2  0  0  0  0  0  0  0  0  0
    4.3446    1.0681    0.3143 C   0  0  0  0  0  3  0  0  0  0  0  0
    3.7640    0.1970   -0.6420 C   0  0  1  0  0  3  0  0  0  0  0  0
    2.3705    0.1877   -0.7355 C   0  0  0  0  0  0  0  0  0  0  0  0
    1.5988    1.2302   -0.1438 C   0  0  0  0  0  0  0  0  0  0  0  0
    2.7722    3.7655   -1.6335 C   0  0  0  0  0  0  0  0  0  0  0  0
    4.1554    3.7600   -1.4929 C   0  0  0  0  0  0  0  0  0  0  0  0
    4.9105    2.7331   -2.0289 C   0  0  0  0  0  0  0  0  0  0  0  0
    4.2986    1.6921   -2.7184 C   0  0  0  0  0  0  0  0  0  0  0  0
    2.9616    1.8443   -3.0724 C   0  0  0  0  0  0  0  0  0  0  0  0
    2.2062    2.8688   -2.5340 C   0  0  0  0  0  0  0  0  0  0  0  0
    1.5703    3.6676    0.5885 C   0  0  0  0  0  0  0  0  0  0  0  0
    1.9069    4.5388   -0.6800 C   0  0  0  0  0  0  0  0  0  0  0  0
    4.6179   -0.5558   -1.6199 C   0  0  0  0  0  0  0  0  0  0  0  0
    4.9763    0.3586   -2.8509 C   0  0  0  0  0  0  0  0  0  0  0  0
    3.2104   -0.5762    4.9981 C   0  0  0  0  0  0  0  0  0  0  0  0
    2.3123   -1.6406    4.9882 C   0  0  0  0  0  0  0  0  0  0  0  0
    2.4439   -2.6607    5.9108 C   0  0  0  0  0  0  0  0  0  0  0  0
    3.4635   -2.6232    6.8488 C   0  0  0  0  0  0  0  0  0  0  0  0
    4.3515   -1.5612    6.8644 C   0  0  0  0  0  0  0  0  0  0  0  0
    4.2293   -0.5353    5.9435 C   0  0  0  0  0  0  0  0  0  0  0  0
    1.5754    1.6624    4.5660 C   0  0  0  0  0  0  0  0  0  0  0  0
    0.4765    2.0492    3.8105 C   0  0  0  0  0  0  0  0  0  0  0  0
   -0.5635    2.7414    4.4055 C   0  0  0  0  0  0  0  0  0  0  0  0
   -0.5070    3.0509    5.7541 C   0  0  0  0  0  0  0  0  0  0  0  0
    0.5874    2.6625    6.5121 C   0  0  0  0  0  0  0  0  0  0  0  0
    1.6265    1.9663    5.9241 C   0  0  0  0  0  0  0  0  0  0  0  0
    4.3874    1.8203    3.9804 C   0  0  0  0  0  0  0  0  0  0  0  0
    4.3238    3.1482    4.3826 C   0  0  0  0  0  0  0  0  0  0  0  0
    5.4808    3.9092    4.4255 C   0  0  0  0  0  0  0  0  0  0  0  0
    6.6961    3.3531    4.0634 C   0  0  0  0  0  0  0  0  0  0  0  0
    6.7603    2.0298    3.6499 C   0  0  0  0  0  0  0  0  0  0  0  0
    5.6102    1.2661    3.6013 C   0  0  0  0  0  0  0  0  0  0  0  0
    4.0997    2.9236    1.3982 H   0  0  0  0  0  0  0  0  0  0  0  0
    5.4175    1.0519    0.4681 H   0  0  0  0  0  0  0  0  0  0  0  0
    1.8752   -0.5197   -1.3913 H   0  0  0  0  0  0  0  0  0  0  0  0
    0.5384    1.2809   -0.3739 H   0  0  0  0  0  0  0  0  0  0  0  0
    4.6345    4.5127   -0.8826 H   0  0  0  0  0  0  0  0  0  0  0  0
    5.9724    2.6926   -1.8314 H   0  0  0  0  0  0  0  0  0  0  0  0
    2.4873    1.1034   -3.7000 H   0  0  0  0  0  0  0  0  0  0  0  0
    1.1473    2.9194   -2.7445 H   0  0  0  0  0  0  0  0  0  0  0  0
    1.9194    4.1862    1.4831 H   0  0  0  0  0  0  0  0  0  0  0  0
    0.4882    3.5533    0.6659 H   0  0  0  0  0  0  0  0  0  0  0  0
    0.9745    4.8271   -1.1658 H   0  0  0  0  0  0  0  0  0  0  0  0
    2.4194    5.4460   -0.3593 H   0  0  0  0  0  0  0  0  0  0  0  0
    4.0846   -1.4403   -1.9694 H   0  0  0  0  0  0  0  0  0  0  0  0
    5.5358   -0.8870   -1.1337 H   0  0  0  0  0  0  0  0  0  0  0  0
    6.0576    0.4898   -2.8927 H   0  0  0  0  0  0  0  0  0  0  0  0
    4.6570   -0.1426   -3.7648 H   0  0  0  0  0  0  0  0  0  0  0  0
    1.5301   -1.6662    4.2410 H   0  0  0  0  0  0  0  0  0  0  0  0
    1.7531   -3.4903    5.8946 H   0  0  0  0  0  0  0  0  0  0  0  0
    3.5692   -3.4240    7.5661 H   0  0  0  0  0  0  0  0  0  0  0  0
    5.1478   -1.5312    7.5944 H   0  0  0  0  0  0  0  0  0  0  0  0
    4.9306    0.2875    5.9577 H   0  0  0  0  0  0  0  0  0  0  0  0
    0.4359    1.7744    2.7639 H   0  0  0  0  0  0  0  0  0  0  0  0
   -1.4229    3.0327    3.8198 H   0  0  0  0  0  0  0  0  0  0  0  0
   -1.3202    3.5879    6.2198 H   0  0  0  0  0  0  0  0  0  0  0  0
    0.6259    2.8983    7.5656 H   0  0  0  0  0  0  0  0  0  0  0  0
    2.4784    1.6507    6.5110 H   0  0  0  0  0  0  0  0  0  0  0  0
    3.3742    3.5828    4.6624 H   0  0  0  0  0  0  0  0  0  0  0  0
    5.4318    4.9412    4.7422 H   0  0  0  0  0  0  0  0  0  0  0  0
    7.5946    3.9517    4.1000 H   0  0  0  0  0  0  0  0  0  0  0  0
    7.7089    1.5988    3.3649 H   0  0  0  0  0  0  0  0  0  0  0  0
    5.6316    0.2335    3.2722 H   0  0  0  0  0  0  0  0  0  0  0  0
  2 33  1  0  0  0  0
  2 27  1  0  0  0  0
  2 21  1  0  0  0  0
  5 10  1  6  0  0  0
  5 17  1  0  0  0  0
  5  6  1  0  0  0  0
  6 39  1  1  0  0  0
  6  1  1  0  0  0  0
  7 40  1  0  0  0  0
  7  6  1  0  0  0  0
  8  9  1  6  0  0  0
  8  7  1  0  0  0  0
  9 10  2  0  0  0  0
 11 12  1  0  0  0  0
 11 18  1  0  0  0  0
 12 43  1  0  0  0  0
 13 44  1  0  0  0  0
 13 12  2  0  0  0  0
 14 13  1  0  0  0  0
 15 14  2  0  0  0  0
 15 16  1  0  0  0  0
 16 11  2  0  0  0  0
 17 48  1  0  0  0  0
 17 47  1  0  0  0  0
 18 50  1  0  0  0  0
 18 17  1  0  0  0  0
 19 52  1  0  0  0  0
 19  8  1  0  0  0  0
 20 14  1  0  0  0  0
 20 19  1  0  0  0  0
 21 26  1  0  0  0  0
 22 21  2  0  0  0  0
 22 23  1  0  0  0  0
 23 24  2  0  0  0  0
 24 25  1  0  0  0  0
 24 57  1  0  0  0  0
 25 58  1  0  0  0  0
 26 59  1  0  0  0  0
 26 25  2  0  0  0  0
 27 32  1  0  0  0  0
 28 29  1  0  0  0  0
 28 27  2  0  0  0  0
 29 30  2  0  0  0  0
 30 62  1  0  0  0  0
 30 31  1  0  0  0  0
 31 63  1  0  0  0  0
 32 64  1  0  0  0  0
 32 31  2  0  0  0  0
 33 34  1  0  0  0  0
 34 35  2  0  0  0  0
 34 65  1  0  0  0  0
 35 66  1  0  0  0  0
 36 67  1  0  0  0  0
 36 35  1  0  0  0  0
 37 36  2  0  0  0  0
 38 37  1  0  0  0  0
 38 33  2  0  0  0  0
 41  9  1  0  0  0  0
 42 10  1  0  0  0  0
 45 15  1  0  0  0  0
 46 16  1  0  0  0  0
 49 18  1  0  0  0  0
 51 19  1  0  0  0  0
 53 20  1  0  0  0  0
 54 20  1  0  0  0  0
 55 22  1  0  0  0  0
 56 23  1  0  0  0  0
 60 28  1  0  0  0  0
 61 29  1  0  0  0  0
 68 37  1  0  0  0  0
 69 38  1  0  0  0  0
M  END
$$$$
