CSD_code = ZETBEI | q = 0 | S = 0 | Stoichiometry = C30H32Cl2NiP2 | MND = 4
 OpenBabel04212202133D

 67 72  0  0  0  0  0  0  0  0999 V2000
   11.2607    2.7566    6.9069 Ni  0  0  0  0  0  0  0  0  0  0  0  0
   10.3161    1.0837    7.7937 Cl  0  0  0  0  0  0  0  0  0  0  0  0
   13.0215    1.7321    6.4012 Cl  0  0  0  0  0  0  0  0  0  0  0  0
    9.5379    3.7555    7.6375 P   0  0  0  0  0  4  0  0  0  0  0  0
   12.1150    4.4727    5.9226 P   0  0  0  0  0  4  0  0  0  0  0  0
    8.9863    5.3630    6.9591 C   0  0  0  0  0  0  0  0  0  0  0  0
    7.6828    5.7420    7.2234 C   0  0  0  0  0  0  0  0  0  0  0  0
    7.0348    5.0439    7.7354 H   0  0  0  0  0  0  0  0  0  0  0  0
    7.1405    6.9831    6.8628 C   0  0  0  0  0  0  0  0  0  0  0  0
    6.1123    7.2110    7.1009 H   0  0  0  0  0  0  0  0  0  0  0  0
    7.9546    7.8764    6.2280 C   0  0  0  0  0  0  0  0  0  0  0  0
    9.2783    7.5025    5.9331 C   0  0  0  0  0  0  0  0  0  0  0  0
    9.9555    8.5419    5.2718 C   0  0  0  0  0  0  0  0  0  0  0  0
   11.2526    8.3446    4.8950 C   0  0  0  0  0  0  0  0  0  0  0  0
   11.8245    9.1057    4.3854 H   0  0  0  0  0  0  0  0  0  0  0  0
   11.8335    7.0981    5.1647 C   0  0  0  0  0  0  0  0  0  0  0  0
   12.8473    6.9537    4.8242 H   0  0  0  0  0  0  0  0  0  0  0  0
   11.1919    6.0588    5.8149 C   0  0  0  0  0  0  0  0  0  0  0  0
    9.8475    6.2509    6.2520 C   0  0  0  0  0  0  0  0  0  0  0  0
    7.7029    9.2722    5.7387 C   0  0  0  0  0  0  0  0  0  0  0  0
    7.4100    9.9232    6.5644 H   0  0  0  0  0  0  0  0  0  0  0  0
    6.8897    9.2838    5.0108 H   0  0  0  0  0  0  0  0  0  0  0  0
    9.0405    9.7188    5.1065 C   0  0  0  0  0  0  0  0  0  0  0  0
    8.9236    9.9721    4.0512 H   0  0  0  0  0  0  0  0  0  0  0  0
    9.4501   10.5971    5.6087 H   0  0  0  0  0  0  0  0  0  0  0  0
    7.9587    2.8683    7.7889 C   0  0  0  0  0  0  0  0  0  0  0  0
    7.2968    2.5411    6.6085 C   0  0  0  0  0  0  0  0  0  0  0  0
    7.7143    2.8584    5.6608 H   0  0  0  0  0  0  0  0  0  0  0  0
    6.1243    1.8125    6.6503 C   0  0  0  0  0  0  0  0  0  0  0  0
    5.6149    1.5563    5.7328 H   0  0  0  0  0  0  0  0  0  0  0  0
    5.6090    1.4024    7.8699 C   0  0  0  0  0  0  0  0  0  0  0  0
    4.6950    0.8279    7.9035 H   0  0  0  0  0  0  0  0  0  0  0  0
    6.2720    1.7171    9.0442 C   0  0  0  0  0  0  0  0  0  0  0  0
    5.8763    1.3870    9.9936 H   0  0  0  0  0  0  0  0  0  0  0  0
    7.4485    2.4444    9.0089 C   0  0  0  0  0  0  0  0  0  0  0  0
    7.9766    2.6726    9.9239 H   0  0  0  0  0  0  0  0  0  0  0  0
    9.9927    4.2393    9.3366 C   0  0  0  0  0  0  0  0  0  0  0  0
    9.2549    5.1502   10.0862 C   0  0  0  0  0  0  0  0  0  0  0  0
    8.3685    5.6060    9.6684 H   0  0  0  0  0  0  0  0  0  0  0  0
    9.6591    5.4734   11.3686 C   0  0  0  0  0  0  0  0  0  0  0  0
    9.0806    6.1761   11.9508 H   0  0  0  0  0  0  0  0  0  0  0  0
   10.8007    4.9011   11.9082 C   0  0  0  0  0  0  0  0  0  0  0  0
   11.1095    5.1583   12.9106 H   0  0  0  0  0  0  0  0  0  0  0  0
   11.5445    4.0024   11.1619 C   0  0  0  0  0  0  0  0  0  0  0  0
   12.4363    3.5572   11.5770 H   0  0  0  0  0  0  0  0  0  0  0  0
   11.1421    3.6736    9.8804 C   0  0  0  0  0  0  0  0  0  0  0  0
   11.7164    2.9570    9.2922 H   0  0  0  0  0  0  0  0  0  0  0  0
   13.8194    5.0416    6.4458 C   0  0  0  0  0  0  0  0  0  0  0  0
   13.8758    6.1243    6.2928 H   0  0  0  0  0  0  0  0  0  0  0  0
   13.9202    4.7730    7.9467 C   0  0  0  0  0  0  0  0  0  0  0  0
   14.8650    5.1449    8.3389 H   0  0  0  0  0  0  0  0  0  0  0  0
   13.8694    3.7004    8.1311 H   0  0  0  0  0  0  0  0  0  0  0  0
   13.1052    5.2650    8.4808 H   0  0  0  0  0  0  0  0  0  0  0  0
   14.9533    4.3603    5.6902 C   0  0  0  0  0  0  0  0  0  0  0  0
   14.8802    3.2813    5.7985 H   0  0  0  0  0  0  0  0  0  0  0  0
   15.9066    4.6870    6.1030 H   0  0  0  0  0  0  0  0  0  0  0  0
   14.9379    4.6123    4.6325 H   0  0  0  0  0  0  0  0  0  0  0  0
   12.1337    3.9156    4.1360 C   0  0  0  0  0  0  0  0  0  0  0  0
   12.9128    3.1444    4.1121 H   0  0  0  0  0  0  0  0  0  0  0  0
   12.4070    4.9478    3.0517 C   0  0  0  0  0  0  0  0  0  0  0  0
   11.6389    5.7187    3.0337 H   0  0  0  0  0  0  0  0  0  0  0  0
   12.4048    4.4470    2.0842 H   0  0  0  0  0  0  0  0  0  0  0  0
   13.3777    5.4214    3.1772 H   0  0  0  0  0  0  0  0  0  0  0  0
   10.7752    3.2445    3.9123 C   0  0  0  0  0  0  0  0  0  0  0  0
   10.7332    2.7737    2.9318 H   0  0  0  0  0  0  0  0  0  0  0  0
    9.9684    3.9765    3.9814 H   0  0  0  0  0  0  0  0  0  0  0  0
   10.6096    2.4596    4.6699 H   0  0  0  0  0  0  0  0  0  0  0  0
  1  4  1  0  0  0  0
  1  2  1  0  0  0  0
  3  1  1  0  0  0  0
  4 26  1  0  0  0  0
  4 37  1  0  0  0  0
  5 48  1  0  0  0  0
  5  1  1  0  0  0  0
  6  7  1  0  0  0  0
  6  4  1  0  0  0  0
  7  8  1  0  0  0  0
  9 10  1  0  0  0  0
  9  7  2  0  0  0  0
 11  9  1  0  0  0  0
 12 11  2  0  0  0  0
 12 19  1  0  0  0  0
 13 12  1  0  0  0  0
 14 16  1  0  0  0  0
 14 13  2  0  0  0  0
 15 14  1  0  0  0  0
 16 18  2  0  0  0  0
 17 16  1  0  0  0  0
 18  5  1  0  0  0  0
 18 19  1  0  0  0  0
 19  6  2  0  0  0  0
 20 11  1  0  0  0  0
 20 21  1  0  0  0  0
 22 20  1  0  0  0  0
 23 13  1  0  0  0  0
 23 25  1  0  0  0  0
 23 20  1  0  0  0  0
 24 23  1  0  0  0  0
 26 35  1  0  0  0  0
 27 29  1  0  0  0  0
 27 26  2  0  0  0  0
 28 27  1  0  0  0  0
 29 31  2  0  0  0  0
 30 29  1  0  0  0  0
 31 32  1  0  0  0  0
 31 33  1  0  0  0  0
 33 34  1  0  0  0  0
 35 33  2  0  0  0  0
 35 36  1  0  0  0  0
 37 46  2  0  0  0  0
 37 38  1  0  0  0  0
 38 40  2  0  0  0  0
 39 38  1  0  0  0  0
 40 42  1  0  0  0  0
 40 41  1  0  0  0  0
 42 43  1  0  0  0  0
 44 45  1  0  0  0  0
 44 42  2  0  0  0  0
 46 44  1  0  0  0  0
 47 46  1  0  0  0  0
 48 50  1  0  0  0  0
 49 48  1  0  0  0  0
 50 52  1  0  0  0  0
 50 51  1  0  0  0  0
 50 53  1  0  0  0  0
 54 55  1  0  0  0  0
 54 56  1  0  0  0  0
 54 48  1  0  0  0  0
 57 54  1  0  0  0  0
 58  5  1  0  0  0  0
 59 58  1  0  0  0  0
 60 63  1  0  0  0  0
 60 58  1  0  0  0  0
 61 60  1  0  0  0  0
 62 60  1  0  0  0  0
 64 66  1  0  0  0  0
 64 58  1  0  0  0  0
 64 67  1  0  0  0  0
 65 64  1  0  0  0  0
M  END
$$$$
