CSD_code = ZETTEZ | q = 0 | S = 0 | Stoichiometry = C25H27Cl2NOPd | MND = 4
 OpenBabel04212202133D

 57 60  0  0  1  0  0  0  0  0999 V2000
    4.4647   11.9256    0.3168 Pd  0  0  0  0  0  0  0  0  0  0  0  0
    5.1933   13.7530   -0.7056 Cl  0  0  0  0  0  0  0  0  0  0  0  0
    2.5965   11.8218   -0.8746 Cl  0  0  0  0  0  0  0  0  0  0  0  0
    3.7520   10.1863    1.6546 O   0  0  0  0  0  0  0  0  0  0  0  0
    5.9878   11.7657    1.5180 N   0  0  0  0  0  0  0  0  0  0  0  0
    5.7221   11.1015    2.5847 C   0  0  2  0  0  3  0  0  0  0  0  0
    7.2955   12.0558    1.0951 C   0  0  0  0  0  0  0  0  0  0  0  0
    4.3724    9.7444    4.0084 C   0  0  0  0  0  0  0  0  0  0  0  0
    9.1422   13.5686    1.0018 C   0  0  0  0  0  0  0  0  0  0  0  0
    9.6065   14.5042    1.2690 H   0  0  0  0  0  0  0  0  0  0  0  0
    6.5709   10.4518    3.5551 C   0  0  0  0  0  0  0  0  0  0  0  0
    5.7267    9.6547    4.3681 C   0  0  0  0  0  0  0  0  0  0  0  0
    4.2553   10.7444    2.8746 C   0  0  2  0  0  0  0  0  0  0  0  0
    9.2444   11.4706   -0.1556 C   0  0  0  0  0  0  0  0  0  0  0  0
    9.7869   10.7911   -0.7927 H   0  0  0  0  0  0  0  0  0  0  0  0
    7.9301   10.4297    3.7870 C   0  0  0  0  0  0  0  0  0  0  0  0
    8.6151   11.0096    3.1880 H   0  0  0  0  0  0  0  0  0  0  0  0
    3.4450   11.9804    3.2890 C   0  0  0  0  0  0  0  0  0  0  0  0
    3.4061   12.7078    2.4535 H   0  0  0  0  0  0  0  0  0  0  0  0
    3.9039   12.4542    4.1545 H   0  0  0  0  0  0  0  0  0  0  0  0
    2.4282   11.6873    3.5493 H   0  0  0  0  0  0  0  0  0  0  0  0
    9.8323   12.6665    0.2147 C   0  0  0  0  0  0  0  0  0  0  0  0
   10.8295   12.9019   -0.1256 H   0  0  0  0  0  0  0  0  0  0  0  0
    3.4505    8.9989    4.6894 C   0  0  0  0  0  0  0  0  0  0  0  0
    2.3986    9.0252    4.4465 H   0  0  0  0  0  0  0  0  0  0  0  0
    7.9715   11.1357    0.2808 C   0  0  0  0  0  0  0  0  0  0  0  0
    7.0675   14.2759    2.2709 C   0  0  0  0  0  0  0  0  0  0  0  0
    6.0069   13.9961    2.2116 H   0  0  0  0  0  0  0  0  0  0  0  0
    5.2228    8.0845    6.0934 C   0  0  0  0  0  0  0  0  0  0  0  0
    5.5274    7.4370    6.9021 H   0  0  0  0  0  0  0  0  0  0  0  0
    3.9011    8.1691    5.7354 C   0  0  0  0  0  0  0  0  0  0  0  0
    3.1695    7.5813    6.2699 H   0  0  0  0  0  0  0  0  0  0  0  0
    7.1843   15.6977    1.7238 C   0  0  0  0  0  0  0  0  0  0  0  0
    6.4975   16.3523    2.2554 H   0  0  0  0  0  0  0  0  0  0  0  0
    6.9210   15.7041    0.6696 H   0  0  0  0  0  0  0  0  0  0  0  0
    8.1893   16.0930    1.8444 H   0  0  0  0  0  0  0  0  0  0  0  0
    8.4132    9.6259    4.8315 C   0  0  0  0  0  0  0  0  0  0  0  0
    9.4779    9.6155    5.0131 H   0  0  0  0  0  0  0  0  0  0  0  0
    6.1979    8.8364    5.4022 C   0  0  0  0  0  0  0  0  0  0  0  0
    7.8566   13.2899    1.4407 C   0  0  0  0  0  0  0  0  0  0  0  0
    7.2961    9.8510   -0.1496 C   0  0  0  0  0  0  0  0  0  0  0  0
    6.5458    9.5716    0.6024 H   0  0  0  0  0  0  0  0  0  0  0  0
    7.5933    8.8518    5.6199 C   0  0  0  0  0  0  0  0  0  0  0  0
    8.0135    8.2441    6.4076 H   0  0  0  0  0  0  0  0  0  0  0  0
    6.5716   10.0785   -1.4862 C   0  0  0  0  0  0  0  0  0  0  0  0
    5.7824   10.8504   -1.3888 H   0  0  0  0  0  0  0  0  0  0  0  0
    6.1076    9.1522   -1.8196 H   0  0  0  0  0  0  0  0  0  0  0  0
    7.2784   10.4105   -2.2437 H   0  0  0  0  0  0  0  0  0  0  0  0
    7.5112   14.2131    3.7352 C   0  0  0  0  0  0  0  0  0  0  0  0
    7.3560   13.2179    4.1490 H   0  0  0  0  0  0  0  0  0  0  0  0
    6.9449   14.9266    4.3297 H   0  0  0  0  0  0  0  0  0  0  0  0
    8.5679   14.4579    3.8196 H   0  0  0  0  0  0  0  0  0  0  0  0
    8.2748    8.6817   -0.2678 C   0  0  0  0  0  0  0  0  0  0  0  0
    7.7223    7.7521   -0.3848 H   0  0  0  0  0  0  0  0  0  0  0  0
    8.8916    8.6046    0.6253 H   0  0  0  0  0  0  0  0  0  0  0  0
    8.9224    8.7953   -1.1329 H   0  0  0  0  0  0  0  0  0  0  0  0
    2.7823   10.1705    1.6654 H   0  0  0  0  0  0  0  0  0  0  0  0
  1  5  1  0  0  0  0
  2  1  1  0  0  0  0
  3  1  1  0  0  0  0
  4 57  1  0  0  0  0
  6  5  1  6  0  0  0
  6 13  1  0  0  0  0
  6 11  1  0  0  0  0
  7 40  1  0  0  0  0
  7  5  1  0  0  0  0
  8 12  2  0  0  0  0
  8 24  1  0  0  0  0
  9 10  1  0  0  0  0
  9 40  2  0  0  0  0
 11 16  2  0  0  0  0
 11 12  1  0  0  0  0
 12 39  1  0  0  0  0
 13  4  1  6  0  0  0
 13 18  1  0  0  0  0
 13  8  1  0  0  0  0
 14 22  2  0  0  0  0
 14 26  1  0  0  0  0
 15 14  1  0  0  0  0
 16 37  1  0  0  0  0
 17 16  1  0  0  0  0
 18 21  1  0  0  0  0
 18 20  1  0  0  0  0
 19 18  1  0  0  0  0
 22  9  1  0  0  0  0
 23 22  1  0  0  0  0
 24 31  2  0  0  0  0
 25 24  1  0  0  0  0
 26  7  2  0  0  0  0
 27 49  1  0  0  0  0
 28 27  1  0  0  0  0
 29 30  1  0  0  0  0
 31 29  1  0  0  0  0
 31 32  1  0  0  0  0
 33 36  1  0  0  0  0
 33 34  1  0  0  0  0
 33 27  1  0  0  0  0
 35 33  1  0  0  0  0
 37 38  1  0  0  0  0
 37 43  2  0  0  0  0
 39 43  1  0  0  0  0
 39 29  2  0  0  0  0
 40 27  1  0  0  0  0
 41 26  1  0  0  0  0
 41 42  1  0  0  0  0
 43 44  1  0  0  0  0
 45 46  1  0  0  0  0
 45 41  1  0  0  0  0
 47 45  1  0  0  0  0
 48 45  1  0  0  0  0
 49 52  1  0  0  0  0
 49 50  1  0  0  0  0
 49 51  1  0  0  0  0
 53 41  1  0  0  0  0
 53 55  1  0  0  0  0
 54 53  1  0  0  0  0
 56 53  1  0  0  0  0
M  END
$$$$
