CSD_code = ZEVMEU | q = 0 | S = 0 | Stoichiometry = C9H8Br2HgN2 | MND = 4
 OpenBabel04212202133D

 22 22  0  0  0  0  0  0  0  0999 V2000
   -1.0084   -2.3382    0.9771 Hg  0  0  0  0  0  0  0  0  0  0  0  0
   -1.0639   -0.6551   -0.7909 Br  0  0  0  0  0  0  0  0  0  0  0  0
   -0.6766   -4.3482    2.3274 Br  0  0  0  0  0  0  0  0  0  0  0  0
   -1.3395   -0.8581    3.0290 N   0  0  0  0  0  0  0  0  0  0  0  0
   -3.5340   -1.8032    1.6844 N   0  0  0  0  0  0  0  0  0  0  0  0
   -3.4534   -0.8492    1.3362 H   0  0  0  0  0  0  0  0  0  0  0  0
   -4.3786   -2.2274    1.3122 H   0  0  0  0  0  0  0  0  0  0  0  0
   -0.3186   -0.3153    3.6512 C   0  0  0  0  0  0  0  0  0  0  0  0
    0.4878    0.0442    3.0238 H   0  0  0  0  0  0  0  0  0  0  0  0
   -0.2373   -0.1906    5.0444 C   0  0  0  0  0  0  0  0  0  0  0  0
    0.6286    0.2757    5.4865 H   0  0  0  0  0  0  0  0  0  0  0  0
   -1.2477   -0.7019    5.8135 C   0  0  0  0  0  0  0  0  0  0  0  0
   -1.2037   -0.6684    6.8924 H   0  0  0  0  0  0  0  0  0  0  0  0
   -2.3648   -1.2906    5.1875 C   0  0  0  0  0  0  0  0  0  0  0  0
   -3.4333   -1.8696    5.9011 C   0  0  0  0  0  0  0  0  0  0  0  0
   -3.4052   -1.8582    6.9799 H   0  0  0  0  0  0  0  0  0  0  0  0
   -4.4742   -2.4458    5.2286 C   0  0  0  0  0  0  0  0  0  0  0  0
   -5.2838   -2.9095    5.7709 H   0  0  0  0  0  0  0  0  0  0  0  0
   -4.5230   -2.4233    3.8284 C   0  0  0  0  0  0  0  0  0  0  0  0
   -5.3673   -2.8658    3.3192 H   0  0  0  0  0  0  0  0  0  0  0  0
   -3.5155   -1.8452    3.0953 C   0  0  0  0  0  0  0  0  0  0  0  0
   -2.3839   -1.3079    3.7686 C   0  0  0  0  0  0  0  0  0  0  0  0
  1  3  1  0  0  0  0
  2  1  1  0  0  0  0
  4  8  2  0  0  0  0
  4 22  1  0  0  0  0
  5 21  1  0  0  0  0
  6  5  1  0  0  0  0
  7  5  1  0  0  0  0
  8 10  1  0  0  0  0
  9  8  1  0  0  0  0
 10 11  1  0  0  0  0
 10 12  2  0  0  0  0
 12 13  1  0  0  0  0
 14 12  1  0  0  0  0
 14 15  1  0  0  0  0
 15 16  1  0  0  0  0
 17 18  1  0  0  0  0
 17 15  2  0  0  0  0
 19 17  1  0  0  0  0
 20 19  1  0  0  0  0
 21 22  1  0  0  0  0
 21 19  2  0  0  0  0
 22 14  2  0  0  0  0
M  END
$$$$
