CSD_code = ZEVNIX | q = 0 | S = 0 | Stoichiometry = C12H38Cl2P4W | MND = 8
 OpenBabel04212202133D

 57 54  0  0  0  0  0  0  0  0999 V2000
   -0.0003   10.2149   -0.4439 W   0  0  0  0  0  0  0  0  0  0  0  0
   -0.0015   10.8983    1.9373 Cl  0  0  0  0  0  0  0  0  0  0  0  0
   -0.0006    8.0407    0.9044 Cl  0  0  0  0  0 15  0  0  0  0  0  0
   -0.0000    8.1078   -1.7254 P   0  0  0  0  0  4  0  0  0  0  0  0
    0.0002   12.6856   -0.6122 P   0  0  0  0  0  4  0  0  0  0  0  0
    2.3414   10.1525    0.4210 P   0  0  0  0  0  0  0  0  0  0  0  0
   -0.0001    8.3974   -3.5514 C   0  0  0  0  0  0  0  0  0  0  0  0
   -1.3995    6.9100   -1.6627 C   0  0  0  0  0  0  0  0  0  0  0  0
    0.0001   13.8602    0.7996 C   0  0  0  0  0  0  0  0  0  0  0  0
   -1.3713   13.3984   -1.6222 C   0  0  0  0  0  0  0  0  0  0  0  0
    3.6687   10.0589   -0.8531 C   0  0  0  0  0  0  0  0  0  0  0  0
    3.0244   11.5762    1.3805 C   0  0  0  0  0  0  0  0  0  0  0  0
    2.9076    8.8196    1.5487 C   0  0  0  0  0  0  0  0  0  0  0  0
   -0.0001    7.4628   -4.1126 H   0  0  0  0  0  0  0  0  0  0  0  0
   -0.8821    8.9811   -3.8106 H   0  0  0  0  0  0  0  0  0  0  0  0
    0.8818    8.9811   -3.8107 H   0  0  0  0  0  0  0  0  0  0  0  0
   -1.2412    6.1330   -2.4103 H   0  0  0  0  0  0  0  0  0  0  0  0
   -1.4640    6.4572   -0.6767 H   0  0  0  0  0  0  0  0  0  0  0  0
   -2.3282    7.4332   -1.8833 H   0  0  0  0  0  0  0  0  0  0  0  0
    0.0001   14.8845    0.4279 H   0  0  0  0  0  0  0  0  0  0  0  0
   -0.8796   13.6896    1.4158 H   0  0  0  0  0  0  0  0  0  0  0  0
    0.8798   13.6897    1.4158 H   0  0  0  0  0  0  0  0  0  0  0  0
   -1.2521   14.4759   -1.7375 H   0  0  0  0  0  0  0  0  0  0  0  0
   -1.3448   12.9156   -2.5982 H   0  0  0  0  0  0  0  0  0  0  0  0
   -2.3327   13.1859   -1.1598 H   0  0  0  0  0  0  0  0  0  0  0  0
    4.6543   10.0028   -0.3905 H   0  0  0  0  0  0  0  0  0  0  0  0
    3.6104   10.9411   -1.4881 H   0  0  0  0  0  0  0  0  0  0  0  0
    3.5135    9.1829   -1.4782 H   0  0  0  0  0  0  0  0  0  0  0  0
    4.0976   11.4389    1.5123 H   0  0  0  0  0  0  0  0  0  0  0  0
    2.5432   11.6219    2.3550 H   0  0  0  0  0  0  0  0  0  0  0  0
    2.8458   12.5105    0.8521 H   0  0  0  0  0  0  0  0  0  0  0  0
    3.9438    8.9993    1.8364 H   0  0  0  0  0  0  0  0  0  0  0  0
    2.8226    7.8556    1.0505 H   0  0  0  0  0  0  0  0  0  0  0  0
    2.2728    8.8124    2.4339 H   0  0  0  0  0  0  0  0  0  0  0  0
   -0.9765   10.5117   -1.7635 H   0  0  0  0  0  0  0  0  0  0  0  0
    1.3995    6.9101   -1.6628 C   0  0  0  0  0  0  0  0  0  0  0  0
    1.2412    6.1331   -2.4104 H   0  0  0  0  0  0  0  0  0  0  0  0
    1.4640    6.4571   -0.6769 H   0  0  0  0  0  0  0  0  0  0  0  0
    2.3282    7.4333   -1.8834 H   0  0  0  0  0  0  0  0  0  0  0  0
    1.3715   13.3985   -1.6222 C   0  0  0  0  0  0  0  0  0  0  0  0
    1.2523   14.4760   -1.7375 H   0  0  0  0  0  0  0  0  0  0  0  0
    1.3450   12.9156   -2.5982 H   0  0  0  0  0  0  0  0  0  0  0  0
    2.3329   13.1860   -1.1598 H   0  0  0  0  0  0  0  0  0  0  0  0
   -2.3413   10.1523    0.4212 P   0  0  0  0  0  4  0  0  0  0  0  0
   -3.6685   10.0588   -0.8530 C   0  0  0  0  0  0  0  0  0  0  0  0
   -4.6541   10.0027   -0.3903 H   0  0  0  0  0  0  0  0  0  0  0  0
   -3.6103   10.9411   -1.4880 H   0  0  0  0  0  0  0  0  0  0  0  0
   -3.5134    9.1829   -1.4782 H   0  0  0  0  0  0  0  0  0  0  0  0
   -3.0239   11.5762    1.3806 C   0  0  0  0  0  0  0  0  0  0  0  0
   -4.0972   11.4390    1.5126 H   0  0  0  0  0  0  0  0  0  0  0  0
   -2.5425   11.6219    2.3550 H   0  0  0  0  0  0  0  0  0  0  0  0
   -2.8455   12.5105    0.8521 H   0  0  0  0  0  0  0  0  0  0  0  0
   -2.9076    8.8195    1.5489 C   0  0  0  0  0  0  0  0  0  0  0  0
   -3.9437    8.9992    1.8366 H   0  0  0  0  0  0  0  0  0  0  0  0
   -2.8226    7.8555    1.0507 H   0  0  0  0  0  0  0  0  0  0  0  0
   -2.2728    8.8124    2.4341 H   0  0  0  0  0  0  0  0  0  0  0  0
    0.9768   10.5123   -1.7627 H   0  0  0  0  0  0  0  0  0  0  0  0
  1 44  1  0  0  0  0
  1  2  1  0  0  0  0
  4 36  1  0  0  0  0
  4  8  1  0  0  0  0
  4  1  1  0  0  0  0
  5  1  1  0  0  0  0
  5  9  1  0  0  0  0
  6 12  1  0  0  0  0
  6 13  1  0  0  0  0
  7  4  1  0  0  0  0
  8 18  1  0  0  0  0
  9 22  1  0  0  0  0
  9 21  1  0  0  0  0
 10 25  1  0  0  0  0
 10  5  1  0  0  0  0
 11 26  1  0  0  0  0
 11  6  1  0  0  0  0
 12 29  1  0  0  0  0
 12 30  1  0  0  0  0
 13 32  1  0  0  0  0
 13 34  1  0  0  0  0
 14  7  1  0  0  0  0
 15  7  1  0  0  0  0
 16  7  1  0  0  0  0
 17  8  1  0  0  0  0
 19  8  1  0  0  0  0
 20  9  1  0  0  0  0
 23 10  1  0  0  0  0
 24 10  1  0  0  0  0
 27 11  1  0  0  0  0
 28 11  1  0  0  0  0
 31 12  1  0  0  0  0
 33 13  1  0  0  0  0
 35  1  1  0  0  0  0
 36 38  1  0  0  0  0
 37 36  1  0  0  0  0
 39 36  1  0  0  0  0
 40 43  1  0  0  0  0
 40  5  1  0  0  0  0
 41 40  1  0  0  0  0
 42 40  1  0  0  0  0
 44 49  1  0  0  0  0
 44 53  1  0  0  0  0
 45 46  1  0  0  0  0
 45 44  1  0  0  0  0
 47 45  1  0  0  0  0
 48 45  1  0  0  0  0
 49 50  1  0  0  0  0
 49 51  1  0  0  0  0
 52 49  1  0  0  0  0
 53 54  1  0  0  0  0
 53 56  1  0  0  0  0
 55 53  1  0  0  0  0
 57  1  1  0  0  0  0
M  END
$$$$
