CSD_code = ZEWSAV | q = 0 | S = 0 | Stoichiometry = C22H36Cl2OSi2Zr | MND = 12
 OpenBabel04212202133D

 64 65  0  0  1  0  0  0  0  0999 V2000
    0.6900    3.1733    5.0895 Zr  0  0  0  0  0  0  0  0  0  0  0  0
    1.8433    3.8802    3.1665 Cl  0  0  0  0  0  0  0  0  0  0  0  0
   -0.4253    1.4814    3.8976 Cl  0  0  0  0  0  0  0  0  0  0  0  0
    1.1221    6.7813    5.8431 Si  0  0  0  0  0  0  0  0  0  0  0  0
    3.3413    4.9684    7.0594 Si  0  0  0  0  0  0  0  0  0  0  0  0
    2.1993    6.1323    6.9040 O   0  0  0  0  0  0  0  0  0  0  0  0
    1.4225    1.3221    6.6622 C   0  0  0  0  0  0  0  0  0  0  0  0
    1.5592    2.5828    7.2879 C   0  0  0  0  0  3  0  0  0  0  0  0
    2.5692    3.3215    6.6026 C   0  0  0  0  0  0  0  0  0  0  0  0
    3.0456    2.4760    5.5643 C   0  0  0  0  0  0  0  0  0  0  0  0
    2.3505    1.2503    5.5908 C   0  0  0  0  0  0  0  0  0  0  0  0
    2.7157    0.0433    4.7502 C   0  0  0  0  0  0  0  0  0  0  0  0
    1.6868   -1.0803    4.9060 C   0  0  0  0  0  0  0  0  0  0  0  0
    2.8139    0.4448    3.2717 C   0  0  0  0  0  0  0  0  0  0  0  0
    4.0860   -0.4647    5.2299 C   0  0  0  0  0  0  0  0  0  0  0  0
   -0.7212    4.5581    6.4657 C   0  0  0  0  0  0  0  0  0  0  0  0
   -0.0931    5.4015    5.4933 C   0  0  2  0  0  0  0  0  0  0  0  0
   -0.7285    5.1244    4.2527 C   0  0  0  0  0  0  0  0  0  0  0  0
   -1.7101    4.1469    4.4530 C   0  0  0  0  0  0  0  0  0  0  0  0
   -1.7180    3.7840    5.8218 C   0  0  0  0  0  0  0  0  0  0  0  0
   -2.6926    2.8476    6.5087 C   0  0  0  0  0  0  0  0  0  0  0  0
   -3.4565    3.6225    7.5928 C   0  0  0  0  0  0  0  0  0  0  0  0
   -1.9206    1.6842    7.1491 C   0  0  0  0  0  0  0  0  0  0  0  0
   -3.6928    2.2680    5.5043 C   0  0  0  0  0  0  0  0  0  0  0  0
    3.8494    5.0278    8.8912 C   0  0  0  0  0  0  0  0  0  0  0  0
    4.7747    5.3365    5.8651 C   0  0  0  0  0  0  0  0  0  0  0  0
    1.9936    7.3498    4.2523 C   0  0  0  0  0  0  0  0  0  0  0  0
    0.3261    8.2235    6.7961 C   0  0  0  0  0  0  0  0  0  0  0  0
    0.8297    0.4971    7.0340 H   0  0  0  0  0  0  0  0  0  0  0  0
    1.1193    2.8664    8.2373 H   0  0  0  0  0  0  0  0  0  0  0  0
    3.8854    2.7110    4.9245 H   0  0  0  0  0  0  0  0  0  0  0  0
    0.6953   -0.7330    4.6253 H   0  0  0  0  0  0  0  0  0  0  0  0
    1.6622   -1.4427    5.9313 H   0  0  0  0  0  0  0  0  0  0  0  0
    1.9530   -1.9143    4.2605 H   0  0  0  0  0  0  0  0  0  0  0  0
    3.5702    1.2126    3.1214 H   0  0  0  0  0  0  0  0  0  0  0  0
    1.8582    0.8277    2.9138 H   0  0  0  0  0  0  0  0  0  0  0  0
    3.0831   -0.4197    2.6680 H   0  0  0  0  0  0  0  0  0  0  0  0
    4.3782   -1.3467    4.6646 H   0  0  0  0  0  0  0  0  0  0  0  0
    4.0440   -0.7266    6.2849 H   0  0  0  0  0  0  0  0  0  0  0  0
    4.8480    0.2992    5.0977 H   0  0  0  0  0  0  0  0  0  0  0  0
   -0.5793    4.6597    7.5357 H   0  0  0  0  0  0  0  0  0  0  0  0
   -0.5405    5.6480    3.3234 H   0  0  0  0  0  0  0  0  0  0  0  0
   -2.3818    3.7782    3.6907 H   0  0  0  0  0  0  0  0  0  0  0  0
   -4.1946    2.9791    8.0666 H   0  0  0  0  0  0  0  0  0  0  0  0
   -3.9706    4.4738    7.1533 H   0  0  0  0  0  0  0  0  0  0  0  0
   -2.7802    3.9909    8.3602 H   0  0  0  0  0  0  0  0  0  0  0  0
   -1.2198    2.0474    7.9008 H   0  0  0  0  0  0  0  0  0  0  0  0
   -1.3831    1.1339    6.3727 H   0  0  0  0  0  0  0  0  0  0  0  0
   -2.6137    1.0004    7.6370 H   0  0  0  0  0  0  0  0  0  0  0  0
   -4.2776    3.0594    5.0422 H   0  0  0  0  0  0  0  0  0  0  0  0
   -4.3774    1.5911    6.0111 H   0  0  0  0  0  0  0  0  0  0  0  0
   -3.1712    1.7106    4.7291 H   0  0  0  0  0  0  0  0  0  0  0  0
    4.5838    4.2629    9.1169 H   0  0  0  0  0  0  0  0  0  0  0  0
    2.9997    4.8772    9.5489 H   0  0  0  0  0  0  0  0  0  0  0  0
    4.2844    5.9904    9.1359 H   0  0  0  0  0  0  0  0  0  0  0  0
    5.6049    4.6531    6.0083 H   0  0  0  0  0  0  0  0  0  0  0  0
    5.1497    6.3437    6.0150 H   0  0  0  0  0  0  0  0  0  0  0  0
    4.4486    5.2580    4.8313 H   0  0  0  0  0  0  0  0  0  0  0  0
    1.3439    7.9748    3.6490 H   0  0  0  0  0  0  0  0  0  0  0  0
    2.2948    6.5018    3.6423 H   0  0  0  0  0  0  0  0  0  0  0  0
    2.8828    7.9275    4.4826 H   0  0  0  0  0  0  0  0  0  0  0  0
   -0.4536    8.6948    6.2083 H   0  0  0  0  0  0  0  0  0  0  0  0
    1.0659    8.9796    7.0356 H   0  0  0  0  0  0  0  0  0  0  0  0
   -0.1170    7.8904    7.7287 H   0  0  0  0  0  0  0  0  0  0  0  0
  2  1  1  0  0  0  0
  3  1  1  0  0  0  0
  4 28  1  0  0  0  0
  4  6  1  0  0  0  0
  5 25  1  0  0  0  0
  6  5  1  0  0  0  0
  7 29  1  0  0  0  0
  7  8  1  0  0  0  0
  8 30  1  0  0  0  0
  9  5  1  0  0  0  0
  9  8  1  0  0  0  0
 10 11  1  0  0  0  0
 10  9  2  0  0  0  0
 11  7  2  0  0  0  0
 12 13  1  0  0  0  0
 12 15  1  0  0  0  0
 12 11  1  0  0  0  0
 13 33  1  0  0  0  0
 14 12  1  0  0  0  0
 15 39  1  0  0  0  0
 16 41  1  0  0  0  0
 17  1  1  6  0  0  0
 17  4  1  0  0  0  0
 17 16  1  0  0  0  0
 18 19  2  0  0  0  0
 18 17  1  0  0  0  0
 19 20  1  0  0  0  0
 20 16  2  0  0  0  0
 20 21  1  0  0  0  0
 21 23  1  0  0  0  0
 21 22  1  0  0  0  0
 22 44  1  0  0  0  0
 22 46  1  0  0  0  0
 23 49  1  0  0  0  0
 23 47  1  0  0  0  0
 24 51  1  0  0  0  0
 24 21  1  0  0  0  0
 25 53  1  0  0  0  0
 25 55  1  0  0  0  0
 25 54  1  0  0  0  0
 26 56  1  0  0  0  0
 26 57  1  0  0  0  0
 26  5  1  0  0  0  0
 27 61  1  0  0  0  0
 27  4  1  0  0  0  0
 28 63  1  0  0  0  0
 28 64  1  0  0  0  0
 31 10  1  0  0  0  0
 32 13  1  0  0  0  0
 34 13  1  0  0  0  0
 35 14  1  0  0  0  0
 36 14  1  0  0  0  0
 37 14  1  0  0  0  0
 38 15  1  0  0  0  0
 40 15  1  0  0  0  0
 42 18  1  0  0  0  0
 43 19  1  0  0  0  0
 45 22  1  0  0  0  0
 48 23  1  0  0  0  0
 50 24  1  0  0  0  0
 52 24  1  0  0  0  0
 58 26  1  0  0  0  0
 59 27  1  0  0  0  0
 60 27  1  0  0  0  0
 62 28  1  0  0  0  0
M  END
$$$$
