CSD_code = ZEYWOP | q = 0 | S = 0 | Stoichiometry = C14H11ClN6Pd | MND = 4
 OpenBabel04212202133D

 33 37  0  0  1  0  0  0  0  0999 V2000
    3.8037    1.0591    1.3907 Pd  0  0  1  0  0  0  0  0  0  0  0  0
    1.9284    0.0544    1.9767 Cl  0  0  0  0  0  0  0  0  0  0  0  0
    2.9758    1.5741   -0.5358 N   0  0  0  0  0  0  0  0  0  0  0  0
    1.7807    1.3206   -1.0546 C   0  0  0  0  0  0  0  0  0  0  0  0
    1.4224    1.7347   -2.3286 C   0  0  0  0  0  0  0  0  0  0  0  0
    2.3435    2.4406   -3.0916 C   0  0  0  0  0  0  0  0  0  0  0  0
    3.5892    2.7069   -2.5538 C   0  0  0  0  0  0  0  0  0  0  0  0
    3.8730    2.2562   -1.2667 C   0  0  0  0  0  0  0  0  0  0  0  0
    5.1740    2.4999   -0.6379 C   0  0  0  0  0  0  0  0  0  0  0  0
    5.3581    2.0205    0.6031 N   0  0  0  0  0  0  0  0  0  0  0  0
    6.5719    2.2547    1.1478 C   0  0  2  0  0  3  0  0  0  0  0  0
    7.5420    2.9211    0.5157 N   0  0  0  0  0  0  0  0  0  0  0  0
    7.2564    3.3602   -0.7055 C   0  0  0  0  0  0  0  0  0  0  0  0
    6.0825    3.1699   -1.3254 N   0  0  0  0  0  2  0  0  0  0  0  0
    8.1994    4.0416   -1.3692 N   0  0  0  0  0  0  0  0  0  0  0  0
    6.8735    1.8223    2.3726 N   0  0  0  0  0  0  0  0  0  0  0  0
    4.7884    0.6868    3.1225 C   0  0  0  0  0  0  0  0  0  0  0  0
    4.2002   -0.0029    4.1902 C   0  0  0  0  0  0  0  0  0  0  0  0
    4.8714   -0.2625    5.3740 C   0  0  0  0  0  0  0  0  0  0  0  0
    6.1772    0.1626    5.5405 C   0  0  0  0  0  0  0  0  0  0  0  0
    6.7934    0.8473    4.5147 C   0  0  0  0  0  0  0  0  0  0  0  0
    6.1164    1.1105    3.3220 C   0  0  2  0  0  3  0  0  0  0  0  0
    1.0970    0.7673   -0.4195 H   0  0  0  0  0  0  0  0  0  0  0  0
    0.4409    1.5071   -2.7126 H   0  0  0  0  0  0  0  0  0  0  0  0
    2.0931    2.7756   -4.0870 H   0  0  0  0  0  0  0  0  0  0  0  0
    4.3495    3.2491   -3.0916 H   0  0  0  0  0  0  0  0  0  0  0  0
    9.0928    4.1917   -0.9387 H   0  0  0  0  0  0  0  0  0  0  0  0
    8.0032    4.3720   -2.2957 H   0  0  0  0  0  0  0  0  0  0  0  0
    7.8148    2.0618    2.6598 H   0  0  0  0  0  0  0  0  0  0  0  0
    3.1814   -0.3534    4.0999 H   0  0  0  0  0  0  0  0  0  0  0  0
    4.3699   -0.7989    6.1657 H   0  0  0  0  0  0  0  0  0  0  0  0
    6.7120   -0.0345    6.4577 H   0  0  0  0  0  0  0  0  0  0  0  0
    7.8144    1.1885    4.6286 H   0  0  0  0  0  0  0  0  0  0  0  0
  1  2  1  1  0  0  0
  1 17  2  0  0  0  0
  3  1  1  0  0  0  0
  4  3  1  0  0  0  0
  4 23  1  0  0  0  0
  5  4  2  0  0  0  0
  6  7  2  0  0  0  0
  6  5  1  0  0  0  0
  7  8  1  0  0  0  0
  8  9  2  0  0  0  0
  8  3  1  0  0  0  0
  9 10  1  0  0  0  0
 10 11  1  0  0  0  0
 10  1  1  0  0  0  0
 11 12  1  6  0  0  0
 11 16  1  0  0  0  0
 13 12  2  0  0  0  0
 14 13  1  0  0  0  0
 14  9  1  0  0  0  0
 15 27  1  0  0  0  0
 15 13  1  0  0  0  0
 16 29  1  0  0  0  0
 16 22  1  0  0  0  0
 17 18  1  0  0  0  0
 18 19  2  0  0  0  0
 19 20  1  0  0  0  0
 19 31  1  0  0  0  0
 20 32  1  0  0  0  0
 21 33  1  0  0  0  0
 21 20  2  0  0  0  0
 22 17  1  1  0  0  0
 22 21  1  0  0  0  0
 24  5  1  0  0  0  0
 25  6  1  0  0  0  0
 26  7  1  0  0  0  0
 28 15  1  0  0  0  0
 30 18  1  0  0  0  0
M  END
$$$$
