CSD_code = ZEZTAZ | q = 0 | S = 0 | Stoichiometry = C10H16I2N4Pd | MND = 4
 OpenBabel04212202133D

 33 34  0  0  1  0  0  0  0  0999 V2000
    0.8769    3.1667    4.1463 I   0  0  0  0  0  0  0  0  0  0  0  0
    2.3504   -0.2582    2.9859 I   0  0  0  0  0  0  0  0  0  0  0  0
    3.2205    2.1250    3.6242 Pd  0  0  0  0  0  0  0  0  0  0  0  0
    4.1972    5.0030    3.8758 N   0  0  0  0  0  0  0  0  0  0  0  0
    4.0803    3.9568    5.7526 N   0  0  0  0  0  0  0  0  0  0  0  0
    5.2579    1.5082    1.6032 N   0  0  0  0  0  0  0  0  0  0  0  0
    5.9660    0.8027    3.5089 N   0  0  0  0  0  0  0  0  0  0  0  0
    3.9450    3.8032    4.4232 C   0  0  0  0  0  0  0  0  0  0  0  0
    4.0578    5.2943    2.4748 C   0  0  0  0  0  0  0  0  0  0  0  0
    4.5005    5.9100    4.8595 C   0  0  0  0  0  0  0  0  0  0  0  0
    4.4246    5.2526    6.0395 C   0  0  0  0  0  0  0  0  0  0  0  0
    3.7602    2.9417    6.7236 C   0  0  0  0  0  0  0  0  0  0  0  0
    4.9725    1.4850    2.9174 C   0  0  2  0  0  3  0  0  0  0  0  0
    4.3727    2.0223    0.5894 C   0  0  0  0  0  0  0  0  0  0  0  0
    6.4362    0.8469    1.3705 C   0  0  0  0  0  0  0  0  0  0  0  0
    6.8828    0.4053    2.5687 C   0  0  0  0  0  0  0  0  0  0  0  0
    5.9884    0.4607    4.9052 C   0  0  0  0  0  0  0  0  0  0  0  0
    3.7041    6.3160    2.3439 H   0  0  0  0  0  0  0  0  0  0  0  0
    5.0104    5.1739    1.9507 H   0  0  0  0  0  0  0  0  0  0  0  0
    3.3155    4.6070    2.0486 H   0  0  0  0  0  0  0  0  0  0  0  0
    4.7302    6.9327    4.6434 H   0  0  0  0  0  0  0  0  0  0  0  0
    4.5736    5.5973    7.0417 H   0  0  0  0  0  0  0  0  0  0  0  0
    3.0260    3.3267    7.4334 H   0  0  0  0  0  0  0  0  0  0  0  0
    4.6520    2.6205    7.2669 H   0  0  0  0  0  0  0  0  0  0  0  0
    3.3129    2.0777    6.1974 H   0  0  0  0  0  0  0  0  0  0  0  0
    4.8016    2.8998    0.0998 H   0  0  0  0  0  0  0  0  0  0  0  0
    3.4110    2.2932    1.0638 H   0  0  0  0  0  0  0  0  0  0  0  0
    4.1793    1.2519   -0.1590 H   0  0  0  0  0  0  0  0  0  0  0  0
    6.8467    0.7367    0.3883 H   0  0  0  0  0  0  0  0  0  0  0  0
    7.7556   -0.1592    2.8238 H   0  0  0  0  0  0  0  0  0  0  0  0
    6.4602   -0.5116    5.0393 H   0  0  0  0  0  0  0  0  0  0  0  0
    6.5364    1.2091    5.4850 H   0  0  0  0  0  0  0  0  0  0  0  0
    4.9534    0.4032    5.2666 H   0  0  0  0  0  0  0  0  0  0  0  0
  2  3  1  0  0  0  0
  3  1  1  0  0  0  0
  3  8  2  0  0  0  0
  4  8  1  0  0  0  0
  4 10  1  0  0  0  0
  5 11  1  0  0  0  0
  5 12  1  0  0  0  0
  6 13  1  0  0  0  0
  7 17  1  0  0  0  0
  8  5  1  0  0  0  0
  9  4  1  0  0  0  0
 10 11  2  0  0  0  0
 11 22  1  0  0  0  0
 12 24  1  0  0  0  0
 12 23  1  0  0  0  0
 13  7  1  0  0  0  0
 13  3  1  6  0  0  0
 14 27  1  0  0  0  0
 14  6  1  0  0  0  0
 15  6  1  0  0  0  0
 15 16  2  0  0  0  0
 16 30  1  0  0  0  0
 16  7  1  0  0  0  0
 17 31  1  0  0  0  0
 17 33  1  0  0  0  0
 17 32  1  0  0  0  0
 18  9  1  0  0  0  0
 19  9  1  0  0  0  0
 20  9  1  0  0  0  0
 21 10  1  0  0  0  0
 25 12  1  0  0  0  0
 26 14  1  0  0  0  0
 28 14  1  0  0  0  0
 29 15  1  0  0  0  0
M  END
$$$$
