CSD_code = ZEZXAF | q = 0 | S = 0 | Stoichiometry = C9H27Cl3IrP3 | MND = 6
 OpenBabel04212202133D

 43 42  0  0  0  0  0  0  0  0999 V2000
    4.1476    2.4706    6.2900 Ir  0  0  0  0  0  0  0  0  0  0  0  0
    4.3344    0.8697    8.0217 Cl  0  0  0  0  0  0  0  0  0  0  0  0
    6.2876    3.3344    6.8137 Cl  0  0  0  0  0  0  0  0  0  0  0  0
    3.1254    4.0033    7.7751 Cl  0  0  0  0  0  0  0  0  0  0  0  0
    5.5378    1.1408    4.9530 P   0  0  0  0  0  4  0  0  0  0  0  0
    3.7780    4.3013    4.8762 P   0  0  0  0  0  4  0  0  0  0  0  0
    2.1030    1.3478    6.0849 P   0  0  0  0  0  4  0  0  0  0  0  0
    6.9390    1.9214    4.0687 C   0  0  0  0  0  0  0  0  0  0  0  0
    6.5934    2.7314    3.4315 H   0  0  0  0  0  0  0  0  0  0  0  0
    7.4395    1.1676    3.4613 H   0  0  0  0  0  0  0  0  0  0  0  0
    7.6268    2.3298    4.8049 H   0  0  0  0  0  0  0  0  0  0  0  0
    6.4129   -0.1767    5.8523 C   0  0  0  0  0  0  0  0  0  0  0  0
    6.9865    0.2901    6.6517 H   0  0  0  0  0  0  0  0  0  0  0  0
    7.0773   -0.7123    5.1738 H   0  0  0  0  0  0  0  0  0  0  0  0
    5.6922   -0.8560    6.3029 H   0  0  0  0  0  0  0  0  0  0  0  0
    4.7795    0.2051    3.5588 C   0  0  0  0  0  0  0  0  0  0  0  0
    3.9880   -0.4408    3.9292 H   0  0  0  0  0  0  0  0  0  0  0  0
    5.5351   -0.4046    3.0658 H   0  0  0  0  0  0  0  0  0  0  0  0
    4.3561    0.9036    2.8400 H   0  0  0  0  0  0  0  0  0  0  0  0
    2.2099    5.2351    5.0284 C   0  0  0  0  0  0  0  0  0  0  0  0
    1.3535    4.5704    4.9456 H   0  0  0  0  0  0  0  0  0  0  0  0
    2.1656    5.9897    4.2434 H   0  0  0  0  0  0  0  0  0  0  0  0
    2.1848    5.7069    6.0076 H   0  0  0  0  0  0  0  0  0  0  0  0
    4.9840    5.6515    5.0580 C   0  0  0  0  0  0  0  0  0  0  0  0
    4.9809    5.9620    6.1018 H   0  0  0  0  0  0  0  0  0  0  0  0
    4.7077    6.4871    4.4145 H   0  0  0  0  0  0  0  0  0  0  0  0
    5.9807    5.2896    4.8140 H   0  0  0  0  0  0  0  0  0  0  0  0
    3.7954    4.0255    3.0544 C   0  0  0  0  0  0  0  0  0  0  0  0
    4.7387    3.5789    2.7523 H   0  0  0  0  0  0  0  0  0  0  0  0
    3.6685    4.9742    2.5351 H   0  0  0  0  0  0  0  0  0  0  0  0
    2.9854    3.3537    2.7788 H   0  0  0  0  0  0  0  0  0  0  0  0
    0.8339    1.8574    7.2856 C   0  0  0  0  0  0  0  0  0  0  0  0
    1.2456    1.7180    8.2840 H   0  0  0  0  0  0  0  0  0  0  0  0
   -0.0629    1.2505    7.1588 H   0  0  0  0  0  0  0  0  0  0  0  0
    0.6066    2.9136    7.1570 H   0  0  0  0  0  0  0  0  0  0  0  0
    2.0577   -0.4686    6.3122 C   0  0  0  0  0  0  0  0  0  0  0  0
    2.7811   -0.9582    5.6651 H   0  0  0  0  0  0  0  0  0  0  0  0
    1.0560   -0.8324    6.0845 H   0  0  0  0  0  0  0  0  0  0  0  0
    2.3155   -0.6923    7.3444 H   0  0  0  0  0  0  0  0  0  0  0  0
    1.1882    1.4821    4.4911 C   0  0  0  0  0  0  0  0  0  0  0  0
    1.0146    2.5264    4.2456 H   0  0  0  0  0  0  0  0  0  0  0  0
    0.2301    0.9707    4.5693 H   0  0  0  0  0  0  0  0  0  0  0  0
    1.7747    1.0269    3.6960 H   0  0  0  0  0  0  0  0  0  0  0  0
  1  3  1  0  0  0  0
  1  4  1  0  0  0  0
  1  2  1  0  0  0  0
  5 12  1  0  0  0  0
  5  1  1  0  0  0  0
  6 20  1  0  0  0  0
  6 24  1  0  0  0  0
  6  1  1  0  0  0  0
  7  1  1  0  0  0  0
  7 36  1  0  0  0  0
  7 32  1  0  0  0  0
  8 11  1  0  0  0  0
  8  5  1  0  0  0  0
  9  8  1  0  0  0  0
 10  8  1  0  0  0  0
 12 15  1  0  0  0  0
 12 13  1  0  0  0  0
 14 12  1  0  0  0  0
 16 17  1  0  0  0  0
 16  5  1  0  0  0  0
 18 16  1  0  0  0  0
 19 16  1  0  0  0  0
 20 23  1  0  0  0  0
 21 20  1  0  0  0  0
 22 20  1  0  0  0  0
 24 25  1  0  0  0  0
 26 24  1  0  0  0  0
 27 24  1  0  0  0  0
 28  6  1  0  0  0  0
 29 28  1  0  0  0  0
 30 28  1  0  0  0  0
 31 28  1  0  0  0  0
 32 33  1  0  0  0  0
 34 32  1  0  0  0  0
 35 32  1  0  0  0  0
 36 39  1  0  0  0  0
 37 36  1  0  0  0  0
 38 36  1  0  0  0  0
 40 42  1  0  0  0  0
 40  7  1  0  0  0  0
 41 40  1  0  0  0  0
 43 40  1  0  0  0  0
M  END
$$$$
