CSD_code = ZIBLUR | q = 0 | S = 0 | Stoichiometry = C15H17Br2N5Zn | MND = 4
 OpenBabel04212202133D

 40 43  0  0  1  0  0  0  0  0999 V2000
    8.1182    3.7402    1.4750 Zn  0  0  0  0  0  0  0  0  0  0  0  0
    8.0514    5.9180    2.3355 Br  0  0  0  0  0  0  0  0  0  0  0  0
    6.9853    2.2957   -0.0659 Br  0  0  0  0  0  0  0  0  0  0  0  0
    7.6304    2.6491    3.3005 N   0  0  2  0  0  0  0  0  0  0  0  0
    8.0325    1.3939    3.4857 N   0  0  0  0  0  0  0  0  0  0  0  0
   10.0156    3.8666    0.4054 N   0  0  1  0  0  0  0  0  0  0  0  0
   10.7602    2.7859    0.1836 N   0  0  0  0  0  0  0  0  0  0  0  0
    9.8376    1.7204    2.0436 N   0  0  0  0  0  0  0  0  0  0  0  0
    6.8979    2.9787    4.3503 C   0  0  0  0  0  3  0  0  0  0  0  0
    6.8209    1.9030    5.2368 C   0  0  0  0  0  0  0  0  0  0  0  0
    7.5647    0.9057    4.6458 C   0  0  0  0  0  0  0  0  0  0  0  0
   10.6273    4.8832   -0.1775 C   0  0  0  0  0  3  0  0  0  0  0  0
   11.7984    4.4449   -0.7978 C   0  0  0  0  0  0  0  0  0  0  0  0
   11.8484    3.0927   -0.5406 C   0  0  0  0  0  0  0  0  0  0  0  0
    8.8634    0.7544    2.4968 C   0  0  0  0  0  0  0  0  0  0  0  0
   10.3443    1.5092    0.7071 C   0  0  0  0  0  0  0  0  0  0  0  0
   10.8793    2.0286    3.0355 C   0  0  0  0  0  0  0  0  0  0  0  0
   11.8095    0.8776    3.3146 C   0  0  0  0  0  0  0  0  0  0  0  0
   11.5123   -0.0481    4.3088 C   0  0  0  0  0  0  0  0  0  0  0  0
   12.3346   -1.1404    4.5238 C   0  0  0  0  0  0  0  0  0  0  0  0
   13.4678   -1.3192    3.7491 C   0  0  0  0  0  0  0  0  0  0  0  0
   13.7868   -0.3905    2.7734 C   0  0  0  0  0  0  0  0  0  0  0  0
   12.9635    0.7011    2.5590 C   0  0  0  0  0  0  0  0  0  0  0  0
    6.4690    3.9582    4.4336 H   0  0  0  0  0  0  0  0  0  0  0  0
    6.2996    1.8636    6.1699 H   0  0  0  0  0  0  0  0  0  0  0  0
    7.7766   -0.0957    4.9632 H   0  0  0  0  0  0  0  0  0  0  0  0
   10.2176    5.8728   -0.1243 H   0  0  0  0  0  0  0  0  0  0  0  0
   12.5019    5.0313   -1.3502 H   0  0  0  0  0  0  0  0  0  0  0  0
   12.5641    2.3483   -0.8268 H   0  0  0  0  0  0  0  0  0  0  0  0
    8.2402    0.4583    1.6433 H   0  0  0  0  0  0  0  0  0  0  0  0
    9.3082   -0.1464    2.9464 H   0  0  0  0  0  0  0  0  0  0  0  0
   11.2009    0.8195    0.6618 H   0  0  0  0  0  0  0  0  0  0  0  0
    9.5326    1.1139    0.0831 H   0  0  0  0  0  0  0  0  0  0  0  0
   11.4410    2.8876    2.6612 H   0  0  0  0  0  0  0  0  0  0  0  0
   10.3736    2.3383    3.9529 H   0  0  0  0  0  0  0  0  0  0  0  0
   10.6460    0.1015    4.9386 H   0  0  0  0  0  0  0  0  0  0  0  0
   12.0927   -1.8499    5.3009 H   0  0  0  0  0  0  0  0  0  0  0  0
   14.1087   -2.1716    3.9156 H   0  0  0  0  0  0  0  0  0  0  0  0
   14.6813   -0.5130    2.1812 H   0  0  0  0  0  0  0  0  0  0  0  0
   13.2353    1.4385    1.8160 H   0  0  0  0  0  0  0  0  0  0  0  0
  1  2  1  0  0  0  0
  1  4  1  0  0  0  0
  3  1  1  0  0  0  0
  4  5  1  0  0  0  0
  4  9  1  6  0  0  0
  5 11  1  0  0  0  0
  6 12  1  6  0  0  0
  6  1  1  0  0  0  0
  7  6  1  0  0  0  0
  7 16  1  0  0  0  0
  8 15  1  0  0  0  0
  8 17  1  0  0  0  0
  9 24  1  0  0  0  0
  9 10  1  0  0  0  0
 10 25  1  0  0  0  0
 11 26  1  0  0  0  0
 11 10  2  0  0  0  0
 12 27  1  0  0  0  0
 13 14  2  0  0  0  0
 13 12  1  0  0  0  0
 14  7  1  0  0  0  0
 15 31  1  0  0  0  0
 15  5  1  0  0  0  0
 16  8  1  0  0  0  0
 17 18  1  0  0  0  0
 17 35  1  0  0  0  0
 18 19  1  0  0  0  0
 19 20  2  0  0  0  0
 19 36  1  0  0  0  0
 20 37  1  0  0  0  0
 21 38  1  0  0  0  0
 21 20  1  0  0  0  0
 22 21  2  0  0  0  0
 23 22  1  0  0  0  0
 23 18  2  0  0  0  0
 28 13  1  0  0  0  0
 29 14  1  0  0  0  0
 30 15  1  0  0  0  0
 32 16  1  0  0  0  0
 33 16  1  0  0  0  0
 34 17  1  0  0  0  0
 39 22  1  0  0  0  0
 40 23  1  0  0  0  0
M  END
$$$$
