CSD_code = ZIBTAI | q = 0 | S = 0 | Stoichiometry = C32H26ClN2PPd | MND = 4
 OpenBabel04212202133D

 63 69  0  0  1  0  0  0  0  0999 V2000
    5.3509    5.3928    3.2219 Pd  0  0  2  0  0  0  0  0  0  0  0  0
    3.2799    5.8125    2.2093 Cl  0  0  0  0  0  0  0  0  0  0  0  0
    5.8198    4.1124    1.4839 P   0  0  0  0  0  4  0  0  0  0  0  0
    5.0034    5.9430    6.0514 N   0  0  2  0  0  0  0  0  0  0  0  0
    4.7982    6.4774    4.8413 N   0  0  0  0  0  0  0  0  0  0  0  0
    4.2103    7.6430    4.9742 C   0  0  0  0  0  0  0  0  0  0  0  0
    3.9340    8.2287    4.1161 H   0  0  0  0  0  0  0  0  0  0  0  0
    3.4573    8.9609    7.0871 C   0  0  0  0  0  0  0  0  0  0  0  0
    3.0428    9.8215    6.5854 H   0  0  0  0  0  0  0  0  0  0  0  0
    3.4524    8.8542    8.4555 C   0  0  0  0  0  0  0  0  0  0  0  0
    3.0274    9.6456    9.0542 H   0  0  0  0  0  0  0  0  0  0  0  0
    3.9892    7.7324    9.1051 C   0  0  0  0  0  0  0  0  0  0  0  0
    3.9631    7.6945   10.1839 H   0  0  0  0  0  0  0  0  0  0  0  0
    4.5430    6.6858    8.4073 C   0  0  0  0  0  0  0  0  0  0  0  0
    4.9523    5.8274    8.9175 H   0  0  0  0  0  0  0  0  0  0  0  0
    4.5549    6.7824    7.0166 C   0  0  2  0  0  3  0  0  0  0  0  0
    4.0159    7.9135    6.3483 C   0  0  0  0  0  0  0  0  0  0  0  0
    5.6832    4.6694    6.1559 C   0  0  0  0  0  0  0  0  0  0  0  0
    5.0840    3.9094    5.6174 H   0  0  0  0  0  0  0  0  0  0  0  0
    5.7498    4.3962    7.2099 H   0  0  0  0  0  0  0  0  0  0  0  0
    7.0549    4.7972    5.5189 C   0  0  0  0  0  0  0  0  0  0  0  0
    8.2118    4.6573    6.2690 C   0  0  0  0  0  0  0  0  0  0  0  0
    8.1503    4.3950    7.3171 H   0  0  0  0  0  0  0  0  0  0  0  0
    9.4466    4.8497    5.6729 C   0  0  0  0  0  0  0  0  0  0  0  0
   10.3501    4.7304    6.2528 H   0  0  0  0  0  0  0  0  0  0  0  0
    9.5156    5.2108    4.3389 C   0  0  0  0  0  0  0  0  0  0  0  0
   10.4770    5.3804    3.8748 H   0  0  0  0  0  0  0  0  0  0  0  0
    8.3557    5.3529    3.5925 C   0  0  0  0  0  0  0  0  0  0  0  0
    8.4335    5.6351    2.5463 H   0  0  0  0  0  0  0  0  0  0  0  0
    7.1064    5.1325    4.1625 C   0  0  0  0  0  0  0  0  0  0  0  0
    7.4562    3.3728    1.1806 C   0  0  0  0  0  0  0  0  0  0  0  0
    7.9394    2.5165    2.1665 C   0  0  0  0  0  0  0  0  0  0  0  0
    7.3264    2.3252    3.0397 H   0  0  0  0  0  0  0  0  0  0  0  0
    9.1844    1.9357    2.0337 C   0  0  0  0  0  0  0  0  0  0  0  0
    9.5578    1.2737    2.8009 H   0  0  0  0  0  0  0  0  0  0  0  0
    9.9584    2.2113    0.9161 C   0  0  0  0  0  0  0  0  0  0  0  0
   10.9345    1.7609    0.8118 H   0  0  0  0  0  0  0  0  0  0  0  0
    9.4842    3.0669   -0.0634 C   0  0  0  0  0  0  0  0  0  0  0  0
   10.0899    3.2835   -0.9314 H   0  0  0  0  0  0  0  0  0  0  0  0
    8.2356    3.6519    0.0665 C   0  0  0  0  0  0  0  0  0  0  0  0
    7.8675    4.3264   -0.6947 H   0  0  0  0  0  0  0  0  0  0  0  0
    5.5055    5.1100    0.0009 C   0  0  0  0  0  0  0  0  0  0  0  0
    5.0129    4.6404   -1.2082 C   0  0  0  0  0  0  0  0  0  0  0  0
    4.7725    3.5940   -1.3282 H   0  0  0  0  0  0  0  0  0  0  0  0
    4.8037    5.5278   -2.2510 C   0  0  0  0  0  0  0  0  0  0  0  0
    4.4094    5.1670   -3.1900 H   0  0  0  0  0  0  0  0  0  0  0  0
    5.0863    6.8736   -2.0911 C   0  0  0  0  0  0  0  0  0  0  0  0
    4.9138    7.5603   -2.9069 H   0  0  0  0  0  0  0  0  0  0  0  0
    5.5712    7.3467   -0.8806 C   0  0  0  0  0  0  0  0  0  0  0  0
    5.7727    8.4004   -0.7537 H   0  0  0  0  0  0  0  0  0  0  0  0
    5.7756    6.4691    0.1658 C   0  0  0  0  0  0  0  0  0  0  0  0
    6.1208    6.8285    1.1444 H   0  0  0  0  0  0  0  0  0  0  0  0
    4.7796    2.6255    1.4639 C   0  0  0  0  0  0  0  0  0  0  0  0
    3.8522    2.4830    2.4915 C   0  0  0  0  0  0  0  0  0  0  0  0
    3.7596    3.2784    3.2359 H   0  0  0  0  0  0  0  0  0  0  0  0
    3.0474    1.3598    2.5480 C   0  0  0  0  0  0  0  0  0  0  0  0
    2.3205    1.2531    3.3397 H   0  0  0  0  0  0  0  0  0  0  0  0
    3.1735    0.3717    1.5849 C   0  0  0  0  0  0  0  0  0  0  0  0
    2.5415   -0.5033    1.6240 H   0  0  0  0  0  0  0  0  0  0  0  0
    4.1160    0.4971    0.5762 C   0  0  0  0  0  0  0  0  0  0  0  0
    4.2217   -0.2833   -0.1635 H   0  0  0  0  0  0  0  0  0  0  0  0
    4.9261    1.6164    0.5169 C   0  0  0  0  0  0  0  0  0  0  0  0
    5.6825    1.7029   -0.2516 H   0  0  0  0  0  0  0  0  0  0  0  0
  1  2  1  6  0  0  0
  1 30  1  0  0  0  0
  1  5  1  0  0  0  0
  3  1  1  0  0  0  0
  4  5  1  1  0  0  0
  4 18  1  0  0  0  0
  4 16  1  0  0  0  0
  5  6  1  0  0  0  0
  6 17  2  0  0  0  0
  7  6  1  0  0  0  0
  8 10  2  0  0  0  0
  9  8  1  0  0  0  0
 10 11  1  0  0  0  0
 10 12  1  0  0  0  0
 12 13  1  0  0  0  0
 14 15  1  0  0  0  0
 14 12  2  0  0  0  0
 16 17  1  6  0  0  0
 16 14  1  0  0  0  0
 17  8  1  0  0  0  0
 18 20  1  0  0  0  0
 19 18  1  0  0  0  0
 21 18  1  0  0  0  0
 21 22  1  0  0  0  0
 22 23  1  0  0  0  0
 24 25  1  0  0  0  0
 24 22  2  0  0  0  0
 26 24  1  0  0  0  0
 27 26  1  0  0  0  0
 28 30  1  0  0  0  0
 28 26  2  0  0  0  0
 29 28  1  0  0  0  0
 30 21  2  0  0  0  0
 31  3  1  0  0  0  0
 31 32  1  0  0  0  0
 32 33  1  0  0  0  0
 34 32  2  0  0  0  0
 34 35  1  0  0  0  0
 36 34  1  0  0  0  0
 37 36  1  0  0  0  0
 38 40  1  0  0  0  0
 38 36  2  0  0  0  0
 39 38  1  0  0  0  0
 40 31  2  0  0  0  0
 41 40  1  0  0  0  0
 42 51  1  0  0  0  0
 42  3  1  0  0  0  0
 43 42  2  0  0  0  0
 44 43  1  0  0  0  0
 45 47  2  0  0  0  0
 45 43  1  0  0  0  0
 46 45  1  0  0  0  0
 47 49  1  0  0  0  0
 48 47  1  0  0  0  0
 49 50  1  0  0  0  0
 49 51  2  0  0  0  0
 51 52  1  0  0  0  0
 53  3  1  0  0  0  0
 53 54  1  0  0  0  0
 54 56  2  0  0  0  0
 54 55  1  0  0  0  0
 56 57  1  0  0  0  0
 58 59  1  0  0  0  0
 58 56  1  0  0  0  0
 60 58  2  0  0  0  0
 61 60  1  0  0  0  0
 62 60  1  0  0  0  0
 62 53  2  0  0  0  0
 63 62  1  0  0  0  0
M  END
$$$$
