CSD_code = ZIFLEF | q = 0 | S = 0 | Stoichiometry = C13H15Cl2N3O2Ru | MND = 7
 OpenBabel04212202133D

 36 38  0  0  1  0  0  0  0  0999 V2000
    3.6980    0.8396   -2.5418 Ru  0  0  2  0  0  0  0  0  0  0  0  0
    2.3671   -0.1463   -4.2320 Cl  0  0  0  0  0 15  0  0  0  0  0  0
    5.0274    1.8533   -0.8657 Cl  0  0  0  0  0 15  0  0  0  0  0  0
    6.5368    1.7573   -5.3331 O   0  0  0  0  0  0  0  0  0  0  0  0
    0.6713    3.4522   -1.7003 O   0  0  0  0  0  0  0  0  0  0  0  0
    3.6150    2.4972   -3.4488 N   0  0  0  0  0  0  0  0  0  0  0  0
    5.3409    0.6935   -3.7589 N   0  0  0  0  0  0  0  0  0  0  0  0
    2.0162    1.6545   -1.6988 N   0  0  1  0  0  0  0  0  0  0  0  0
    4.5469    2.8184   -4.3662 C   0  0  0  0  0  0  0  0  0  0  0  0
    4.5217    4.0320   -5.0476 C   0  0  0  0  0  0  0  0  0  0  0  0
    3.5024    4.9309   -4.7660 C   0  0  0  0  0  0  0  0  0  0  0  0
    2.5395    4.6038   -3.8212 C   0  0  0  0  0  0  0  0  0  0  0  0
    2.6276    3.3720   -3.1789 C   0  0  0  0  0  0  0  0  0  0  0  0
    5.4947    1.7462   -4.4939 C   0  0  0  0  0  0  0  0  0  0  0  0
    6.4066   -0.2348   -4.0770 C   0  0  0  0  0  0  0  0  0  0  0  0
    7.2187    0.5123   -5.1583 C   0  0  0  0  0  0  0  0  0  0  0  0
    1.7535    2.8266   -2.1776 C   0  0  1  0  0  3  0  0  0  0  0  0
    0.9981    1.3321   -0.7198 C   0  0  0  0  0  0  0  0  0  0  0  0
    0.0814    2.5756   -0.7362 C   0  0  0  0  0  0  0  0  0  0  0  0
    4.3650   -1.1775   -1.8650 C   0  0  0  0  0  3  0  0  0  0  0  0
    3.2302   -0.8517   -1.1661 C   0  0  0  0  0  0  0  0  0  0  0  0
    5.2888    4.2458   -5.7734 H   0  0  0  0  0  0  0  0  0  0  0  0
    3.4584    5.8786   -5.2783 H   0  0  0  0  0  0  0  0  0  0  0  0
    1.7318    5.2723   -3.5727 H   0  0  0  0  0  0  0  0  0  0  0  0
    5.9795   -1.1709   -4.4466 H   0  0  0  0  0  0  0  0  0  0  0  0
    6.9952   -0.4419   -3.1795 H   0  0  0  0  0  0  0  0  0  0  0  0
    7.2289   -0.0090   -6.1188 H   0  0  0  0  0  0  0  0  0  0  0  0
    8.2449    0.7254   -4.8487 H   0  0  0  0  0  0  0  0  0  0  0  0
    0.4739    0.4214   -1.0208 H   0  0  0  0  0  0  0  0  0  0  0  0
    1.4645    1.1687    0.2554 H   0  0  0  0  0  0  0  0  0  0  0  0
   -0.9375    2.3487   -1.0597 H   0  0  0  0  0  0  0  0  0  0  0  0
    0.0513    3.0954    0.2245 H   0  0  0  0  0  0  0  0  0  0  0  0
    4.2984   -1.8791   -2.6930 H   0  0  0  0  0  0  0  0  0  0  0  0
    5.3337   -1.0929   -1.3782 H   0  0  0  0  0  0  0  0  0  0  0  0
    2.2813   -1.2997   -1.4510 H   0  0  0  0  0  0  0  0  0  0  0  0
    3.3169   -0.5144   -0.1359 H   0  0  0  0  0  0  0  0  0  0  0  0
  1  8  1  0  0  0  0
  1 21  1  1  0  0  0
  4 16  1  0  0  0  0
  4 14  1  0  0  0  0
  5 19  1  0  0  0  0
  6 13  1  0  0  0  0
  6  1  1  0  0  0  0
  7  1  1  0  0  0  0
  8 18  1  6  0  0  0
  9  6  1  0  0  0  0
 10 11  2  0  0  0  0
 10  9  1  0  0  0  0
 11 12  1  0  0  0  0
 12 24  1  0  0  0  0
 12 13  2  0  0  0  0
 14  9  2  0  0  0  0
 14  7  1  0  0  0  0
 15  7  1  0  0  0  0
 15 26  1  0  0  0  0
 16 28  1  0  0  0  0
 16 15  1  0  0  0  0
 17 13  1  6  0  0  0
 17  5  1  0  0  0  0
 17  8  1  0  0  0  0
 18 30  1  0  0  0  0
 19 18  1  0  0  0  0
 19 32  1  0  0  0  0
 20 34  1  0  0  0  0
 20 21  1  0  0  0  0
 21 36  1  0  0  0  0
 22 10  1  0  0  0  0
 23 11  1  0  0  0  0
 25 15  1  0  0  0  0
 27 16  1  0  0  0  0
 29 18  1  0  0  0  0
 31 19  1  0  0  0  0
 33 20  1  0  0  0  0
 35 21  1  0  0  0  0
M  END
$$$$
