CSD_code = ZIGFIE | q = 1 | S = 0 | Stoichiometry = C12H32Cl2CoP4(1+) | MND = 6
 OpenBabel04212202133D

 51 52  0  0  0  0  0  0  0  0999 V2000
    3.7980    0.0001    9.4385 Co  0  0  0  0  0  0  0  0  0  0  0  0
    2.1250    1.4005    9.4393 Cl  0  0  0  0  0  0  0  0  0  0  0  0
    4.8009    1.2684    7.8983 P   0  0  0  0  0  4  0  0  0  0  0  0
    4.8650    1.2167   10.9789 P   0  0  0  0  0  4  0  0  0  0  0  0
    3.8606    2.0785    6.5652 C   0  0  0  0  0  0  0  0  0  0  0  0
    6.2533    0.6133    7.0130 C   0  0  0  0  0  0  0  0  0  0  0  0
    5.5168    2.7063    8.7943 C   0  0  0  0  0  0  0  0  0  0  0  0
    6.1412    2.1906   10.0811 C   0  0  0  0  0  0  0  0  0  0  0  0
    5.8421    0.4387   12.3047 C   0  0  0  0  0  0  0  0  0  0  0  0
    3.9569    2.5192   11.8739 C   0  0  0  0  0  0  0  0  0  0  0  0
    4.4687    2.8834    6.1522 H   0  0  0  0  0  0  0  0  0  0  0  0
    3.6363    1.3591    5.7788 H   0  0  0  0  0  0  0  0  0  0  0  0
    2.9344    2.4882    6.9646 H   0  0  0  0  0  0  0  0  0  0  0  0
    6.6685    1.4042    6.3882 H   0  0  0  0  0  0  0  0  0  0  0  0
    5.9632   -0.2302    6.3907 H   0  0  0  0  0  0  0  0  0  0  0  0
    6.9995    0.2681    7.7260 H   0  0  0  0  0  0  0  0  0  0  0  0
    6.2461    3.2078    8.1514 H   0  0  0  0  0  0  0  0  0  0  0  0
    4.7008    3.4024    9.0117 H   0  0  0  0  0  0  0  0  0  0  0  0
    6.9789    1.5208    9.8636 H   0  0  0  0  0  0  0  0  0  0  0  0
    6.4966    3.0016   10.7234 H   0  0  0  0  0  0  0  0  0  0  0  0
    6.4098   -0.3978   11.9009 H   0  0  0  0  0  0  0  0  0  0  0  0
    6.5268    1.1823   12.7129 H   0  0  0  0  0  0  0  0  0  0  0  0
    5.1809    0.0879   13.0960 H   0  0  0  0  0  0  0  0  0  0  0  0
    4.6605    3.0725   12.4960 H   0  0  0  0  0  0  0  0  0  0  0  0
    3.1861    2.0758   12.4998 H   0  0  0  0  0  0  0  0  0  0  0  0
    3.4749    3.1906   11.1661 H   0  0  0  0  0  0  0  0  0  0  0  0
    5.4707   -1.4005    9.4395 Cl  0  0  0  0  0  0  0  0  0  0  0  0
    2.7951   -1.2684    7.8984 P   0  0  0  0  0  4  0  0  0  0  0  0
    3.7354   -2.0785    6.5652 C   0  0  0  0  0  0  0  0  0  0  0  0
    3.1273   -2.8834    6.1523 H   0  0  0  0  0  0  0  0  0  0  0  0
    3.9597   -1.3591    5.7788 H   0  0  0  0  0  0  0  0  0  0  0  0
    4.6616   -2.4882    6.9646 H   0  0  0  0  0  0  0  0  0  0  0  0
    1.3427   -0.6133    7.0131 C   0  0  0  0  0  0  0  0  0  0  0  0
    0.9275   -1.4042    6.3883 H   0  0  0  0  0  0  0  0  0  0  0  0
    1.6328    0.2302    6.3907 H   0  0  0  0  0  0  0  0  0  0  0  0
    0.5966   -0.2681    7.7260 H   0  0  0  0  0  0  0  0  0  0  0  0
    2.0792   -2.7063    8.7943 C   0  0  0  0  0  0  0  0  0  0  0  0
    1.4548   -2.1906   10.0811 C   0  0  0  0  0  0  0  0  0  0  0  0
    2.7311   -1.2167   10.9789 P   0  0  0  0  0  4  0  0  0  0  0  0
    1.7539   -0.4387   12.3047 C   0  0  0  0  0  0  0  0  0  0  0  0
    1.1862    0.3978   11.9009 H   0  0  0  0  0  0  0  0  0  0  0  0
    1.0692   -1.1823   12.7129 H   0  0  0  0  0  0  0  0  0  0  0  0
    2.4152   -0.0879   13.0959 H   0  0  0  0  0  0  0  0  0  0  0  0
    3.6391   -2.5192   11.8739 C   0  0  0  0  0  0  0  0  0  0  0  0
    2.9355   -3.0725   12.4960 H   0  0  0  0  0  0  0  0  0  0  0  0
    4.4099   -2.0758   12.4998 H   0  0  0  0  0  0  0  0  0  0  0  0
    4.1211   -3.1906   11.1661 H   0  0  0  0  0  0  0  0  0  0  0  0
    0.6171   -1.5208    9.8636 H   0  0  0  0  0  0  0  0  0  0  0  0
    1.0994   -3.0016   10.7234 H   0  0  0  0  0  0  0  0  0  0  0  0
    1.3499   -3.2078    8.1514 H   0  0  0  0  0  0  0  0  0  0  0  0
    2.8952   -3.4024    9.0117 H   0  0  0  0  0  0  0  0  0  0  0  0
  1  2  1  0  0  0  0
  1 27  1  0  0  0  0
  1 39  1  0  0  0  0
  1  4  1  0  0  0  0
  3  7  1  0  0  0  0
  3  1  1  0  0  0  0
  4 10  1  0  0  0  0
  4  9  1  0  0  0  0
  5 13  1  0  0  0  0
  5  3  1  0  0  0  0
  6 16  1  0  0  0  0
  6  3  1  0  0  0  0
  7 18  1  0  0  0  0
  7  8  1  0  0  0  0
  8 20  1  0  0  0  0
  8  4  1  0  0  0  0
  9 22  1  0  0  0  0
  9 23  1  0  0  0  0
 10 24  1  0  0  0  0
 10 25  1  0  0  0  0
 11  5  1  0  0  0  0
 12  5  1  0  0  0  0
 14  6  1  0  0  0  0
 15  6  1  0  0  0  0
 17  7  1  0  0  0  0
 19  8  1  0  0  0  0
 21  9  1  0  0  0  0
 26 10  1  0  0  0  0
 28 37  1  0  0  0  0
 28  1  1  0  0  0  0
 29 32  1  0  0  0  0
 29 28  1  0  0  0  0
 30 29  1  0  0  0  0
 31 29  1  0  0  0  0
 33 36  1  0  0  0  0
 33 28  1  0  0  0  0
 34 33  1  0  0  0  0
 35 33  1  0  0  0  0
 37 51  1  0  0  0  0
 37 38  1  0  0  0  0
 38 49  1  0  0  0  0
 38 39  1  0  0  0  0
 39 44  1  0  0  0  0
 39 40  1  0  0  0  0
 40 42  1  0  0  0  0
 40 43  1  0  0  0  0
 41 40  1  0  0  0  0
 44 45  1  0  0  0  0
 44 46  1  0  0  0  0
 47 44  1  0  0  0  0
 48 38  1  0  0  0  0
 50 37  1  0  0  0  0
M  END
$$$$
