CSD_code = ZIGLUW | q = 0 | S = 0 | Stoichiometry = C15H33ClP3RhS | MND = 6
 OpenBabel04212202133D

 54 54  0  0  0  0  0  0  0  0999 V2000
    2.7534    1.7494    3.2973 Rh  0  0  0  0  0  0  0  0  0  0  0  0
    4.4651    0.1940    3.8735 Cl  0  0  0  0  0  0  0  0  0  0  0  0
    2.5319    2.1607    5.6426 S   0  0  0  0  0  0  0  0  0  0  0  0
    3.4115    0.9707    1.2174 P   0  0  0  0  0  4  0  0  0  0  0  0
    4.1929    3.5310    3.3495 P   0  0  0  0  0  4  0  0  0  0  0  0
    1.0954    0.2011    3.6233 P   0  0  0  0  0  4  0  0  0  0  0  0
    1.3348    3.3326    6.1422 C   0  0  0  0  0  0  0  0  0  0  0  0
    0.4825    4.0085    5.2749 C   0  0  0  0  0  0  0  0  0  0  0  0
   -0.4350    4.9187    5.7639 C   0  0  0  0  0  0  0  0  0  0  0  0
   -0.5198    5.1714    7.1225 C   0  0  0  0  0  0  0  0  0  0  0  0
    0.3266    4.5007    7.9924 C   0  0  0  0  0  0  0  0  0  0  0  0
    1.2446    3.5908    7.5112 C   0  0  0  0  0  0  0  0  0  0  0  0
    5.1750    1.1558    0.7503 C   0  0  0  0  0  0  0  0  0  0  0  0
    3.2895   -0.8298    0.8939 C   0  0  0  0  0  0  0  0  0  0  0  0
    2.5821    1.6458   -0.2818 C   0  0  0  0  0  0  0  0  0  0  0  0
    4.2891    4.5989    1.8547 C   0  0  0  0  0  0  0  0  0  0  0  0
    5.9410    3.1711    3.7375 C   0  0  0  0  0  0  0  0  0  0  0  0
    3.8769    4.8512    4.5782 C   0  0  0  0  0  0  0  0  0  0  0  0
   -0.1114    0.5116    4.9646 C   0  0  0  0  0  0  0  0  0  0  0  0
   -0.1039   -0.0600    2.2536 C   0  0  0  0  0  0  0  0  0  0  0  0
    1.6083   -1.4931    4.0755 C   0  0  0  0  0  0  0  0  0  0  0  0
    1.6862    2.7042    2.8054 H   0  0  0  0  0  0  0  0  0  0  0  0
    0.5451    3.8168    4.2124 H   0  0  0  0  0  0  0  0  0  0  0  0
   -1.0896    5.4353    5.0751 H   0  0  0  0  0  0  0  0  0  0  0  0
   -1.2379    5.8841    7.5005 H   0  0  0  0  0  0  0  0  0  0  0  0
    0.2698    4.6902    9.0550 H   0  0  0  0  0  0  0  0  0  0  0  0
    1.9063    3.0656    8.1836 H   0  0  0  0  0  0  0  0  0  0  0  0
    5.7638    0.6057    1.4828 H   0  0  0  0  0  0  0  0  0  0  0  0
    5.3272    0.7299   -0.2416 H   0  0  0  0  0  0  0  0  0  0  0  0
    5.4847    2.1977    0.7477 H   0  0  0  0  0  0  0  0  0  0  0  0
    2.2669   -1.1868    0.9865 H   0  0  0  0  0  0  0  0  0  0  0  0
    3.6556   -1.0363   -0.1120 H   0  0  0  0  0  0  0  0  0  0  0  0
    3.9182   -1.3348    1.6258 H   0  0  0  0  0  0  0  0  0  0  0  0
    2.7227    2.7244   -0.3163 H   0  0  0  0  0  0  0  0  0  0  0  0
    2.9878    1.1944   -1.1862 H   0  0  0  0  0  0  0  0  0  0  0  0
    1.5138    1.4467   -0.2210 H   0  0  0  0  0  0  0  0  0  0  0  0
    5.0837    5.3345    1.9751 H   0  0  0  0  0  0  0  0  0  0  0  0
    4.4645    4.0187    0.9528 H   0  0  0  0  0  0  0  0  0  0  0  0
    3.3331    5.1112    1.7537 H   0  0  0  0  0  0  0  0  0  0  0  0
    5.9589    2.6746    4.7082 H   0  0  0  0  0  0  0  0  0  0  0  0
    6.3698    2.4927    3.0044 H   0  0  0  0  0  0  0  0  0  0  0  0
    6.5123    4.0982    3.7800 H   0  0  0  0  0  0  0  0  0  0  0  0
    4.5680    5.6755    4.4005 H   0  0  0  0  0  0  0  0  0  0  0  0
    2.8506    5.2039    4.4875 H   0  0  0  0  0  0  0  0  0  0  0  0
    4.0216    4.4578    5.5826 H   0  0  0  0  0  0  0  0  0  0  0  0
    0.3945    0.4613    5.9271 H   0  0  0  0  0  0  0  0  0  0  0  0
   -0.5459    1.5037    4.8522 H   0  0  0  0  0  0  0  0  0  0  0  0
   -0.8966   -0.2434    4.9189 H   0  0  0  0  0  0  0  0  0  0  0  0
   -0.6916    0.8515    2.1513 H   0  0  0  0  0  0  0  0  0  0  0  0
    0.3986   -0.2516    1.3092 H   0  0  0  0  0  0  0  0  0  0  0  0
   -0.7646   -0.8930    2.4914 H   0  0  0  0  0  0  0  0  0  0  0  0
    0.7290   -2.1116    4.2551 H   0  0  0  0  0  0  0  0  0  0  0  0
    2.2299   -1.9328    3.3001 H   0  0  0  0  0  0  0  0  0  0  0  0
    2.2050   -1.4172    4.9848 H   0  0  0  0  0  0  0  0  0  0  0  0
  1  5  1  0  0  0  0
  1  6  1  0  0  0  0
  1  2  1  0  0  0  0
  1  3  1  0  0  0  0
  3  7  1  0  0  0  0
  4  1  1  0  0  0  0
  5 17  1  0  0  0  0
  5 18  1  0  0  0  0
  6 21  1  0  0  0  0
  6 19  1  0  0  0  0
  7 12  1  0  0  0  0
  8  9  1  0  0  0  0
  8  7  2  0  0  0  0
  9 10  2  0  0  0  0
 10 25  1  0  0  0  0
 10 11  1  0  0  0  0
 11 26  1  0  0  0  0
 12 11  2  0  0  0  0
 12 27  1  0  0  0  0
 13  4  1  0  0  0  0
 13 28  1  0  0  0  0
 14 31  1  0  0  0  0
 14  4  1  0  0  0  0
 14 33  1  0  0  0  0
 15 36  1  0  0  0  0
 15  4  1  0  0  0  0
 16 37  1  0  0  0  0
 16  5  1  0  0  0  0
 17 42  1  0  0  0  0
 17 40  1  0  0  0  0
 18 45  1  0  0  0  0
 19 46  1  0  0  0  0
 20 51  1  0  0  0  0
 20  6  1  0  0  0  0
 21 52  1  0  0  0  0
 21 54  1  0  0  0  0
 22  1  1  0  0  0  0
 23  8  1  0  0  0  0
 24  9  1  0  0  0  0
 29 13  1  0  0  0  0
 30 13  1  0  0  0  0
 32 14  1  0  0  0  0
 34 15  1  0  0  0  0
 35 15  1  0  0  0  0
 38 16  1  0  0  0  0
 39 16  1  0  0  0  0
 41 17  1  0  0  0  0
 43 18  1  0  0  0  0
 44 18  1  0  0  0  0
 47 19  1  0  0  0  0
 48 19  1  0  0  0  0
 49 20  1  0  0  0  0
 50 20  1  0  0  0  0
 53 21  1  0  0  0  0
M  END
$$$$
