CSD_code = ZIGPIQ | q = 0 | S = 0 | Stoichiometry = C25H19Cl2HgN3S2 | MND = 5
 OpenBabel04212202133D

 52 55  0  0  0  0  0  0  0  0999 V2000
    1.8213    7.1614    8.9678 Hg  0  0  0  0  0  0  0  0  0  0  0  0
    2.5286    9.3324    9.1535 Cl  0  0  0  0  0  0  0  0  0  0  0  0
    1.8770    4.7359    8.6915 Cl  0  0  0  0  0  0  0  0  0  0  0  0
    0.8808    7.7036   11.7780 S   0  0  0  0  0  0  0  0  0  0  0  0
    0.2423    7.0782    6.4783 S   0  0  0  0  0  0  0  0  0  0  0  0
    4.2532    5.4620   10.9845 C   0  0  0  0  0  0  0  0  0  0  0  0
    5.0026    6.0749   10.4987 H   0  0  0  0  0  0  0  0  0  0  0  0
    4.5280    4.1249   11.3121 C   0  0  0  0  0  0  0  0  0  0  0  0
    5.4964    3.7063   11.0852 H   0  0  0  0  0  0  0  0  0  0  0  0
    3.5380    3.3671   11.8759 C   0  0  0  0  0  0  0  0  0  0  0  0
    3.6904    2.3210   12.1028 H   0  0  0  0  0  0  0  0  0  0  0  0
    2.2887    3.9576   12.1548 C   0  0  0  0  0  0  0  0  0  0  0  0
    1.2001    3.2576   12.7124 C   0  0  0  0  0  0  0  0  0  0  0  0
    1.3201    2.2104   12.9487 H   0  0  0  0  0  0  0  0  0  0  0  0
    0.0136    3.8977   12.9413 C   0  0  0  0  0  0  0  0  0  0  0  0
   -0.8239    3.3590   13.3595 H   0  0  0  0  0  0  0  0  0  0  0  0
   -0.1370    5.2628   12.6590 C   0  0  0  0  0  0  0  0  0  0  0  0
   -1.0764    5.7456   12.8783 H   0  0  0  0  0  0  0  0  0  0  0  0
    0.9014    5.9707   12.1120 C   0  0  0  0  0  0  0  0  0  0  0  0
    2.1346    5.3288   11.8272 C   0  0  0  0  0  0  0  0  0  0  0  0
   -0.8727    8.0799   11.4149 C   0  0  0  0  0  0  0  0  0  0  0  0
   -1.4279    8.1256   12.3516 H   0  0  0  0  0  0  0  0  0  0  0  0
   -0.8067    9.0843   10.9889 H   0  0  0  0  0  0  0  0  0  0  0  0
   -1.5345    7.1593   10.4398 C   0  0  0  0  0  0  0  0  0  0  0  0
   -2.8138    6.6910   10.7215 C   0  0  0  0  0  0  0  0  0  0  0  0
   -3.2965    6.9554   11.6496 H   0  0  0  0  0  0  0  0  0  0  0  0
   -3.4590    5.9013    9.7867 C   0  0  0  0  0  0  0  0  0  0  0  0
   -4.4536    5.5256    9.9754 H   0  0  0  0  0  0  0  0  0  0  0  0
   -2.8075    5.6126    8.6038 C   0  0  0  0  0  0  0  0  0  0  0  0
   -3.2792    5.0081    7.8453 H   0  0  0  0  0  0  0  0  0  0  0  0
   -1.5186    6.1031    8.4008 C   0  0  0  0  0  0  0  0  0  0  0  0
   -0.8018    5.7232    7.1480 C   0  0  0  0  0  0  0  0  0  0  0  0
   -1.5129    5.4186    6.3812 H   0  0  0  0  0  0  0  0  0  0  0  0
   -0.1074    4.9089    7.3781 H   0  0  0  0  0  0  0  0  0  0  0  0
    4.5216    7.2374    7.0329 C   0  0  0  0  0  0  0  0  0  0  0  0
    4.7942    7.9136    7.8347 H   0  0  0  0  0  0  0  0  0  0  0  0
    5.5096    6.6075    6.2602 C   0  0  0  0  0  0  0  0  0  0  0  0
    6.5516    6.8006    6.4624 H   0  0  0  0  0  0  0  0  0  0  0  0
    5.1194    5.7356    5.2816 C   0  0  0  0  0  0  0  0  0  0  0  0
    5.8428    5.1996    4.6830 H   0  0  0  0  0  0  0  0  0  0  0  0
    3.7448    5.5286    5.0436 C   0  0  0  0  0  0  0  0  0  0  0  0
    3.2688    4.6409    4.0592 C   0  0  0  0  0  0  0  0  0  0  0  0
    3.9846    4.0911    3.4656 H   0  0  0  0  0  0  0  0  0  0  0  0
    1.9251    4.4854    3.8638 C   0  0  0  0  0  0  0  0  0  0  0  0
    1.5554    3.8016    3.1146 H   0  0  0  0  0  0  0  0  0  0  0  0
    1.0092    5.2309    4.6170 C   0  0  0  0  0  0  0  0  0  0  0  0
   -0.0465    5.1249    4.4206 H   0  0  0  0  0  0  0  0  0  0  0  0
    1.4374    6.0981    5.5896 C   0  0  0  0  0  0  0  0  0  0  0  0
    2.8217    6.2548    5.8469 C   0  0  0  0  0  0  0  0  0  0  0  0
   -0.9020    6.8539    9.3093 N   0  0  0  0  0  0  0  0  0  0  0  0
    3.1055    6.0420   11.2199 N   0  0  0  0  0  0  0  0  0  0  0  0
    3.2385    7.0624    6.8434 N   0  0  0  0  0  0  0  0  0  0  0  0
  1  2  1  0  0  0  0
  3  1  1  0  0  0  0
  4 19  1  0  0  0  0
  5 32  1  0  0  0  0
  6 51  2  0  0  0  0
  6  8  1  0  0  0  0
  7  6  1  0  0  0  0
  8 10  2  0  0  0  0
  9  8  1  0  0  0  0
 10 11  1  0  0  0  0
 10 12  1  0  0  0  0
 12 13  1  0  0  0  0
 13 15  2  0  0  0  0
 13 14  1  0  0  0  0
 15 16  1  0  0  0  0
 17 18  1  0  0  0  0
 17 15  1  0  0  0  0
 19 17  2  0  0  0  0
 20 19  1  0  0  0  0
 20 12  2  0  0  0  0
 21  4  1  0  0  0  0
 21 22  1  0  0  0  0
 23 21  1  0  0  0  0
 24 25  1  0  0  0  0
 24 21  1  0  0  0  0
 25 26  1  0  0  0  0
 27 28  1  0  0  0  0
 27 25  2  0  0  0  0
 29 27  1  0  0  0  0
 30 29  1  0  0  0  0
 31 29  2  0  0  0  0
 31 50  1  0  0  0  0
 32 34  1  0  0  0  0
 32 31  1  0  0  0  0
 33 32  1  0  0  0  0
 35 36  1  0  0  0  0
 37 38  1  0  0  0  0
 37 35  2  0  0  0  0
 39 37  1  0  0  0  0
 40 39  1  0  0  0  0
 41 39  2  0  0  0  0
 41 49  1  0  0  0  0
 42 41  1  0  0  0  0
 43 42  1  0  0  0  0
 44 42  2  0  0  0  0
 44 46  1  0  0  0  0
 45 44  1  0  0  0  0
 46 48  2  0  0  0  0
 47 46  1  0  0  0  0
 48 49  1  0  0  0  0
 48  5  1  0  0  0  0
 49 52  2  0  0  0  0
 50 24  2  0  0  0  0
 51 20  1  0  0  0  0
 52 35  1  0  0  0  0
M  END
$$$$
