CSD_code = ZIGQEN | q = 0 | S = 0 | Stoichiometry = C14H10Cl2N8O2Ti | MND = 6
 OpenBabel04212202133D

 37 42  0  0  1  0  0  0  0  0999 V2000
    6.5284   11.9198    3.6620 Ti  0  0  0  0  0  0  0  0  0  0  0  0
    6.7923   13.2026    1.8665 Cl  0  0  0  0  0  0  0  0  0  0  0  0
    7.1064   13.3943    5.2208 Cl  0  0  0  0  0  0  0  0  0  0  0  0
    4.8088   12.2855    3.8531 O   0  0  0  0  0  0  0  0  0  0  0  0
    8.1501   11.2344    3.4989 O   0  0  0  0  0  0  0  0  0  0  0  0
    6.1648   10.5522    5.2151 N   0  0  0  0  0  0  0  0  0  0  0  0
    7.0770    9.7315    5.7264 N   0  0  0  0  0  0  0  0  0  0  0  0
    6.8929    9.5637    6.9578 N   0  0  0  0  0  0  0  0  0  0  0  0
    5.8243   10.2884    7.3151 N   0  0  0  0  0  0  0  0  0  0  0  0
    5.5099   10.3349    8.2706 H   0  0  0  0  0  0  0  0  0  0  0  0
    5.9971   10.3586    2.3580 N   0  0  0  0  0  0  0  0  0  0  0  0
    4.7598   10.1217    1.9337 N   0  0  0  0  0  0  0  0  0  0  0  0
    4.7618    9.7006    0.7501 N   0  0  0  0  0  0  0  0  0  0  0  0
    6.0349    9.6441    0.3371 N   0  0  0  0  0  0  0  0  0  0  0  0
    6.2774    9.3669   -0.6000 H   0  0  0  0  0  0  0  0  0  0  0  0
    3.9994   12.4448    4.8520 C   0  0  0  0  0  0  0  0  0  0  0  0
    2.8714   13.2819    4.7457 C   0  0  0  0  0  0  0  0  0  0  0  0
    2.7042   13.7716    3.7975 H   0  0  0  0  0  0  0  0  0  0  0  0
    2.0319   13.4792    5.8148 C   0  0  0  0  0  0  0  0  0  0  0  0
    1.1782   14.1320    5.7107 H   0  0  0  0  0  0  0  0  0  0  0  0
    2.2697   12.8484    7.0362 C   0  0  0  0  0  0  0  0  0  0  0  0
    1.6034   13.0129    7.8682 H   0  0  0  0  0  0  0  0  0  0  0  0
    3.3558   12.0183    7.1754 C   0  0  0  0  0  0  0  0  0  0  0  0
    3.5346   11.5261    8.1206 H   0  0  0  0  0  0  0  0  0  0  0  0
    4.2289   11.7958    6.1015 C   0  0  0  0  0  0  0  0  0  0  0  0
    5.3595   10.9273    6.2122 C   0  0  2  0  0  3  0  0  0  0  0  0
    8.8638   10.7568    2.5290 C   0  0  0  0  0  0  0  0  0  0  0  0
   10.2705   10.8245    2.5613 C   0  0  0  0  0  0  0  0  0  0  0  0
   10.7260   11.2769    3.4300 H   0  0  0  0  0  0  0  0  0  0  0  0
   11.0271   10.3493    1.5180 C   0  0  0  0  0  0  0  0  0  0  0  0
   12.1037   10.4192    1.5633 H   0  0  0  0  0  0  0  0  0  0  0  0
   10.4221    9.7792    0.3978 C   0  0  0  0  0  0  0  0  0  0  0  0
   11.0277    9.4110   -0.4152 H   0  0  0  0  0  0  0  0  0  0  0  0
    9.0523    9.6894    0.3337 C   0  0  0  0  0  0  0  0  0  0  0  0
    8.5859    9.2417   -0.5322 H   0  0  0  0  0  0  0  0  0  0  0  0
    8.2541   10.1628    1.3842 C   0  0  0  0  0  0  0  0  0  0  0  0
    6.8275   10.0690    1.3529 C   0  0  2  0  0  3  0  0  0  0  0  0
  1  4  1  0  0  0  0
  1  6  1  0  0  0  0
  1  3  1  0  0  0  0
  2  1  1  0  0  0  0
  4 16  1  0  0  0  0
  5  1  1  0  0  0  0
  6  7  1  0  0  0  0
  6 26  1  0  0  0  0
  7  8  2  0  0  0  0
  8  9  1  0  0  0  0
  9 10  1  0  0  0  0
 11  1  1  0  0  0  0
 12 11  1  0  0  0  0
 13 12  2  0  0  0  0
 14 13  1  0  0  0  0
 14 37  1  0  0  0  0
 15 14  1  0  0  0  0
 16 25  1  0  0  0  0
 17 16  2  0  0  0  0
 17 19  1  0  0  0  0
 18 17  1  0  0  0  0
 19 21  2  0  0  0  0
 20 19  1  0  0  0  0
 21 23  1  0  0  0  0
 21 22  1  0  0  0  0
 23 24  1  0  0  0  0
 25 23  2  0  0  0  0
 26 25  1  6  0  0  0
 26  9  1  0  0  0  0
 27 28  1  0  0  0  0
 27  5  1  0  0  0  0
 28 29  1  0  0  0  0
 30 31  1  0  0  0  0
 30 28  2  0  0  0  0
 32 30  1  0  0  0  0
 33 32  1  0  0  0  0
 34 32  2  0  0  0  0
 34 36  1  0  0  0  0
 35 34  1  0  0  0  0
 36 27  2  0  0  0  0
 37 36  1  1  0  0  0
 37 11  1  0  0  0  0
M  END
$$$$
