CSD_code = ZIHDUR | q = 0 | S = 0 | Stoichiometry = C12H10Cl2N4OTi | MND = 9
 OpenBabel04212202133D

 30 33  0  0  1  0  0  0  0  0999 V2000
    1.0222    6.0772    3.8950 Ti  0  0  0  0  0  0  0  0  0  0  0  0
    0.1234    6.2588    6.0381 C   0  0  0  0  0  0  0  0  0  0  0  0
    1.3752    5.6210    6.1625 C   0  0  0  0  0  0  0  0  0  0  0  0
    2.3700    6.5351    5.7462 C   0  0  0  0  0  0  0  0  0  0  0  0
    1.7316    7.7366    5.3622 C   0  0  0  0  0  0  0  0  0  0  0  0
    0.3439    7.5667    5.5426 C   0  0  1  0  0  0  0  0  0  0  0  0
    3.0034    5.5029    3.0160 Cl  0  0  0  0  0  0  0  0  0  0  0  0
    0.9370    7.5882    2.2567 Cl  0  0  0  0  0  0  0  0  0  0  0  0
    0.5486    4.3733    3.6747 O   0  0  0  0  0  0  0  0  0  0  0  0
   -1.1361    6.1783    3.3807 N   0  0  0  0  0  0  0  0  0  0  0  0
   -2.0536    7.1141    3.5897 N   0  0  0  0  0  0  0  0  0  0  0  0
   -2.9053    7.1294    2.6655 N   0  0  0  0  0  0  0  0  0  0  0  0
   -2.5715    6.1774    1.7857 N   0  0  0  0  0  0  0  0  0  0  0  0
    0.3057    3.9026    2.4765 C   0  0  0  0  0  0  0  0  0  0  0  0
    1.0187    2.8064    1.9652 C   0  0  0  0  0  0  0  0  0  0  0  0
    0.7487    2.3218    0.7044 C   0  0  0  0  0  0  0  0  0  0  0  0
   -0.2466    2.8932   -0.0851 C   0  0  0  0  0  0  0  0  0  0  0  0
   -0.9765    3.9582    0.3939 C   0  0  0  0  0  0  0  0  0  0  0  0
   -0.7153    4.4756    1.6665 C   0  0  0  0  0  0  0  0  0  0  0  0
   -1.4460    5.5717    2.2353 C   0  0  2  0  0  3  0  0  0  0  0  0
   -3.1031    6.0187    0.9452 H   0  0  0  0  0  0  0  0  0  0  0  0
   -0.4432    2.5045   -1.0715 H   0  0  0  0  0  0  0  0  0  0  0  0
    1.7947    2.3782    2.5831 H   0  0  0  0  0  0  0  0  0  0  0  0
   -1.7429    4.4074   -0.2210 H   0  0  0  0  0  0  0  0  0  0  0  0
   -0.8278    5.8604    6.3649 H   0  0  0  0  0  0  0  0  0  0  0  0
    1.3199    1.4899    0.3213 H   0  0  0  0  0  0  0  0  0  0  0  0
   -0.4136    8.3284    5.4160 H   0  0  0  0  0  0  0  0  0  0  0  0
    1.5541    4.6437    6.5925 H   0  0  0  0  0  0  0  0  0  0  0  0
    3.4395    6.3787    5.8090 H   0  0  0  0  0  0  0  0  0  0  0  0
    2.2300    8.6564    5.0774 H   0  0  0  0  0  0  0  0  0  0  0  0
  1  6  1  0  0  0  0
  2  3  2  0  0  0  0
  2 25  1  0  0  0  0
  3 28  1  0  0  0  0
  4 29  1  0  0  0  0
  4  3  1  0  0  0  0
  5  6  1  0  0  0  0
  5  4  2  0  0  0  0
  6 27  1  6  0  0  0
  6  2  1  0  0  0  0
  7  1  1  0  0  0  0
  8  1  1  0  0  0  0
  9  1  1  0  0  0  0
 10 11  1  0  0  0  0
 10  1  1  0  0  0  0
 12 11  2  0  0  0  0
 13 20  1  0  0  0  0
 13 12  1  0  0  0  0
 14  9  1  0  0  0  0
 15 14  1  0  0  0  0
 15 23  1  0  0  0  0
 16 15  2  0  0  0  0
 17 18  2  0  0  0  0
 17 16  1  0  0  0  0
 18 19  1  0  0  0  0
 19 14  2  0  0  0  0
 20 19  1  1  0  0  0
 20 10  1  0  0  0  0
 21 13  1  0  0  0  0
 22 17  1  0  0  0  0
 24 18  1  0  0  0  0
 26 16  1  0  0  0  0
 30  5  1  0  0  0  0
M  END
$$$$
