CSD_code = ZIHFON | q = 0 | S = 0 | Stoichiometry = C21H15Cl2F4PPd | MND = 5
 OpenBabel04212202133D

 44 44  0  0  1  0  0  0  0  0999 V2000
   14.5448    6.8570    1.0198 Pd  0  0  0  0  0  0  0  0  0  0  0  0
   14.6627    7.3152   -1.0976 C   0  0  0  0  0  3  0  0  0  0  0  0
   15.6375    7.7436   -1.3372 H   0  0  0  0  0  0  0  0  0  0  0  0
   14.6059    5.9433   -0.9096 C   0  0  2  0  0  0  0  0  0  0  0  0
   15.5440    5.3891   -0.9590 H   0  0  0  0  0  0  0  0  0  0  0  0
   16.7166    6.2421    1.2918 Cl  0  0  0  0  0 15  0  0  0  0  0  0
   14.1871    6.8470    3.2272 Cl  0  0  0  0  0 15  0  0  0  0  0  0
   12.5140    7.8349    0.9874 P   0  0  0  0  0  0  0  0  0  0  0  0
   12.3867    8.3806   -0.7629 C   0  0  0  0  0  0  0  0  0  0  0  0
   11.3484    9.1587   -1.2561 C   0  0  0  0  0  0  0  0  0  0  0  0
   11.3863    9.6855   -2.5406 C   0  0  0  0  0  0  0  0  0  0  0  0
   12.5042    9.4459   -3.3369 C   0  0  0  0  0  0  0  0  0  0  0  0
   13.5524    8.6806   -2.8390 C   0  0  0  0  0  0  0  0  0  0  0  0
   13.5134    8.1314   -1.5575 C   0  0  0  0  0  0  0  0  0  0  0  0
   10.2964    9.4222   -0.4707 F   0  0  0  0  0  0  0  0  0  0  0  0
   10.3789   10.4294   -3.0037 F   0  0  0  0  0  0  0  0  0  0  0  0
   12.5648    9.9538   -4.5680 F   0  0  0  0  0  0  0  0  0  0  0  0
   14.6201    8.4654   -3.6176 F   0  0  0  0  0  0  0  0  0  0  0  0
   13.3668    5.1027   -1.0139 C   0  0  0  0  0  0  0  0  0  0  0  0
   12.4654    5.7097   -1.1144 H   0  0  0  0  0  0  0  0  0  0  0  0
   13.2754    4.4650   -0.1231 H   0  0  0  0  0  0  0  0  0  0  0  0
   13.4450    4.4413   -1.8777 H   0  0  0  0  0  0  0  0  0  0  0  0
   10.9026    7.2044    1.4904 C   0  0  0  0  0  0  0  0  0  0  0  0
   10.6294    7.1795    2.8575 C   0  0  0  0  0  0  0  0  0  0  0  0
   11.3618    7.5719    3.5502 H   0  0  0  0  0  0  0  0  0  0  0  0
    9.4389    6.6408    3.3071 C   0  0  0  0  0  0  0  0  0  0  0  0
    9.2226    6.6245    4.3647 H   0  0  0  0  0  0  0  0  0  0  0  0
    8.5271    6.1183    2.4026 C   0  0  0  0  0  0  0  0  0  0  0  0
    7.5960    5.7013    2.7557 H   0  0  0  0  0  0  0  0  0  0  0  0
    8.8105    6.1202    1.0462 C   0  0  0  0  0  0  0  0  0  0  0  0
    8.1032    5.7038    0.3445 H   0  0  0  0  0  0  0  0  0  0  0  0
   10.0011    6.6517    0.5859 C   0  0  0  0  0  0  0  0  0  0  0  0
   10.2222    6.6466   -0.4732 H   0  0  0  0  0  0  0  0  0  0  0  0
   12.7241    9.4687    1.7567 C   0  0  0  0  0  0  0  0  0  0  0  0
   11.6586   10.2463    2.1962 C   0  0  0  0  0  0  0  0  0  0  0  0
   10.6482    9.8707    2.1278 H   0  0  0  0  0  0  0  0  0  0  0  0
   11.9041   11.5005    2.7278 C   0  0  0  0  0  0  0  0  0  0  0  0
   11.0787   12.1033    3.0754 H   0  0  0  0  0  0  0  0  0  0  0  0
   13.2002   11.9806    2.8162 C   0  0  0  0  0  0  0  0  0  0  0  0
   13.3847   12.9582    3.2355 H   0  0  0  0  0  0  0  0  0  0  0  0
   14.2635   11.2072    2.3748 C   0  0  0  0  0  0  0  0  0  0  0  0
   15.2733   11.5806    2.4516 H   0  0  0  0  0  0  0  0  0  0  0  0
   14.0301    9.9529    1.8437 C   0  0  0  0  0  0  0  0  0  0  0  0
   14.8727    9.3276    1.5156 H   0  0  0  0  0  0  0  0  0  0  0  0
  2  4  1  0  0  0  0
  3  2  1  0  0  0  0
  4  5  1  6  0  0  0
  4  1  1  0  0  0  0
  8 23  1  0  0  0  0
  8 34  1  0  0  0  0
  9  8  1  0  0  0  0
 10  9  1  0  0  0  0
 10 15  1  0  0  0  0
 11 10  2  0  0  0  0
 12 13  2  0  0  0  0
 12 11  1  0  0  0  0
 13 14  1  0  0  0  0
 14  2  1  0  0  0  0
 14  9  2  0  0  0  0
 16 11  1  0  0  0  0
 17 12  1  0  0  0  0
 18 13  1  0  0  0  0
 19  4  1  0  0  0  0
 19 21  1  0  0  0  0
 20 19  1  0  0  0  0
 22 19  1  0  0  0  0
 23 24  1  0  0  0  0
 24 26  2  0  0  0  0
 24 25  1  0  0  0  0
 26 27  1  0  0  0  0
 28 29  1  0  0  0  0
 28 26  1  0  0  0  0
 30 28  2  0  0  0  0
 31 30  1  0  0  0  0
 32 30  1  0  0  0  0
 32 23  2  0  0  0  0
 33 32  1  0  0  0  0
 34 43  2  0  0  0  0
 34 35  1  0  0  0  0
 35 37  2  0  0  0  0
 36 35  1  0  0  0  0
 37 39  1  0  0  0  0
 37 38  1  0  0  0  0
 39 40  1  0  0  0  0
 41 42  1  0  0  0  0
 41 39  2  0  0  0  0
 43 41  1  0  0  0  0
 44 43  1  0  0  0  0
M  END
$$$$
