CSD_code = ZIHJOR | q = 0 | S = 0 | Stoichiometry = C16H34Cl2N4Zr | MND = 6
 OpenBabel04212202133D

 57 58  0  0  0  0  0  0  0  0999 V2000
    6.6224   22.3438    5.0428 Zr  0  0  0  0  0  0  0  0  0  0  0  0
    8.7549   23.2670    5.4576 Cl  0  0  0  0  0  0  0  0  0  0  0  0
    6.3511   21.6758    7.2904 Cl  0  0  0  0  0  0  0  0  0  0  0  0
    5.6051   24.2308    5.2024 N   0  0  0  0  0  0  0  0  0  0  0  0
    6.4033   23.5284    3.2829 N   0  0  0  0  0  0  0  0  0  0  0  0
    7.2935   20.4093    4.3874 N   0  0  0  0  0  0  0  0  0  0  0  0
    5.1619   20.9292    4.3997 N   0  0  0  0  0  0  0  0  0  0  0  0
    5.3370   25.1767    6.2701 C   0  0  0  0  0  0  0  0  0  0  0  0
    5.0291   26.1559    5.8691 H   0  0  0  0  0  0  0  0  0  0  0  0
    6.6067   25.3510    7.1158 C   0  0  0  0  0  0  0  0  0  0  0  0
    6.4295   26.0500    7.9303 H   0  0  0  0  0  0  0  0  0  0  0  0
    7.4296   25.7232    6.5053 H   0  0  0  0  0  0  0  0  0  0  0  0
    6.8973   24.3838    7.5360 H   0  0  0  0  0  0  0  0  0  0  0  0
    4.2053   24.6129    7.1344 C   0  0  0  0  0  0  0  0  0  0  0  0
    3.2948   24.5031    6.5473 H   0  0  0  0  0  0  0  0  0  0  0  0
    4.0034   25.2770    7.9713 H   0  0  0  0  0  0  0  0  0  0  0  0
    4.5027   23.6371    7.5213 H   0  0  0  0  0  0  0  0  0  0  0  0
    6.0502   24.5831    4.0005 C   0  0  0  0  0  3  0  0  0  0  0  0
    6.1090   26.0143    3.5204 C   0  0  0  0  0  0  0  0  0  0  0  0
    5.1609   26.5128    3.7158 H   0  0  0  0  0  0  0  0  0  0  0  0
    6.3148   26.0591    2.4553 H   0  0  0  0  0  0  0  0  0  0  0  0
    6.8961   26.5484    4.0511 H   0  0  0  0  0  0  0  0  0  0  0  0
    6.9915   23.5562    1.9637 C   0  0  0  0  0  0  0  0  0  0  0  0
    6.4805   24.2842    1.3098 H   0  0  0  0  0  0  0  0  0  0  0  0
    6.8097   22.1524    1.3791 C   0  0  0  0  0  0  0  0  0  0  0  0
    5.7504   21.9280    1.2672 H   0  0  0  0  0  0  0  0  0  0  0  0
    7.2460   21.4284    2.0728 H   0  0  0  0  0  0  0  0  0  0  0  0
    7.2941   22.0717    0.4085 H   0  0  0  0  0  0  0  0  0  0  0  0
    8.4834   23.9025    2.0510 C   0  0  0  0  0  0  0  0  0  0  0  0
    8.6248   24.9040    2.4519 H   0  0  0  0  0  0  0  0  0  0  0  0
    8.9477   23.8490    1.0688 H   0  0  0  0  0  0  0  0  0  0  0  0
    8.9745   23.1962    2.7219 H   0  0  0  0  0  0  0  0  0  0  0  0
    8.4684   19.5883    4.6152 C   0  0  0  0  0  0  0  0  0  0  0  0
    8.2887   18.5416    4.3207 H   0  0  0  0  0  0  0  0  0  0  0  0
    9.6161   20.1540    3.7737 C   0  0  0  0  0  0  0  0  0  0  0  0
    9.3723   20.1050    2.7135 H   0  0  0  0  0  0  0  0  0  0  0  0
   10.5275   19.5876    3.9491 H   0  0  0  0  0  0  0  0  0  0  0  0
    9.7868   21.1942    4.0551 H   0  0  0  0  0  0  0  0  0  0  0  0
    8.8342   19.6402    6.1056 C   0  0  0  0  0  0  0  0  0  0  0  0
    8.0121   19.2697    6.7182 H   0  0  0  0  0  0  0  0  0  0  0  0
    9.0400   20.6756    6.3919 H   0  0  0  0  0  0  0  0  0  0  0  0
    9.7184   19.0378    6.3027 H   0  0  0  0  0  0  0  0  0  0  0  0
    6.0486   19.9474    4.4439 C   0  0  0  0  0  3  0  0  0  0  0  0
    5.7074   18.4775    4.5190 C   0  0  0  0  0  0  0  0  0  0  0  0
    6.2690   17.9248    3.7677 H   0  0  0  0  0  0  0  0  0  0  0  0
    4.6470   18.3153    4.3528 H   0  0  0  0  0  0  0  0  0  0  0  0
    5.9705   18.0889    5.5020 H   0  0  0  0  0  0  0  0  0  0  0  0
    3.7285   20.7856    4.5085 C   0  0  0  0  0  0  0  0  0  0  0  0
    3.3614   19.9384    3.9035 H   0  0  0  0  0  0  0  0  0  0  0  0
    3.1213   22.0823    3.9651 C   0  0  0  0  0  0  0  0  0  0  0  0
    3.3667   22.1971    2.9107 H   0  0  0  0  0  0  0  0  0  0  0  0
    3.5514   22.9240    4.5147 H   0  0  0  0  0  0  0  0  0  0  0  0
    2.0396   22.0808    4.0796 H   0  0  0  0  0  0  0  0  0  0  0  0
    3.3214   20.5854    5.9738 C   0  0  0  0  0  0  0  0  0  0  0  0
    3.7337   19.6582    6.3661 H   0  0  0  0  0  0  0  0  0  0  0  0
    2.2384   20.5563    6.0706 H   0  0  0  0  0  0  0  0  0  0  0  0
    3.7155   21.4104    6.5690 H   0  0  0  0  0  0  0  0  0  0  0  0
  1  4  1  0  0  0  0
  1  2  1  0  0  0  0
  1  3  1  0  0  0  0
  4  8  1  0  0  0  0
  5 18  1  0  0  0  0
  5  1  1  0  0  0  0
  6 43  1  0  0  0  0
  6 33  1  0  0  0  0
  6  1  1  0  0  0  0
  7 43  1  0  0  0  0
  7 48  1  0  0  0  0
  7  1  1  0  0  0  0
  8 10  1  0  0  0  0
  8 14  1  0  0  0  0
  9  8  1  0  0  0  0
 10 13  1  0  0  0  0
 10 11  1  0  0  0  0
 12 10  1  0  0  0  0
 14 17  1  0  0  0  0
 14 16  1  0  0  0  0
 15 14  1  0  0  0  0
 18  4  1  0  0  0  0
 19 20  1  0  0  0  0
 19 18  1  0  0  0  0
 19 22  1  0  0  0  0
 21 19  1  0  0  0  0
 23 29  1  0  0  0  0
 23  5  1  0  0  0  0
 24 23  1  0  0  0  0
 25 23  1  0  0  0  0
 25 27  1  0  0  0  0
 26 25  1  0  0  0  0
 28 25  1  0  0  0  0
 29 30  1  0  0  0  0
 29 32  1  0  0  0  0
 31 29  1  0  0  0  0
 33 39  1  0  0  0  0
 34 33  1  0  0  0  0
 35 37  1  0  0  0  0
 35 38  1  0  0  0  0
 35 33  1  0  0  0  0
 36 35  1  0  0  0  0
 39 42  1  0  0  0  0
 39 41  1  0  0  0  0
 39 40  1  0  0  0  0
 43 44  1  0  0  0  0
 44 47  1  0  0  0  0
 45 44  1  0  0  0  0
 46 44  1  0  0  0  0
 48 54  1  0  0  0  0
 49 48  1  0  0  0  0
 50 53  1  0  0  0  0
 50 48  1  0  0  0  0
 50 52  1  0  0  0  0
 51 50  1  0  0  0  0
 54 56  1  0  0  0  0
 54 55  1  0  0  0  0
 54 57  1  0  0  0  0
M  END
$$$$
