CSD_code = ZIHNOV | q = 1 | S = 0 | Stoichiometry = C16H25AuCl2N3(1+) | MND = 4
 OpenBabel04212202133D

 47 48  0  0  0  0  0  0  0  0999 V2000
    7.3370    2.2092    1.5120 Au  0  0  0  0  0  0  0  0  0  0  0  0
    7.9719    0.0023    1.3320 Cl  0  0  0  0  0  0  0  0  0  0  0  0
    6.7622    4.4385    1.5870 Cl  0  0  0  0  0  0  0  0  0  0  0  0
    6.2995    1.8265    3.2507 N   0  0  0  0  0  0  0  0  0  0  0  0
    9.6060    2.9949   -0.2311 N   0  0  0  0  0  0  0  0  0  0  0  0
    7.8513    2.4429   -1.4009 N   0  0  0  0  0  0  0  0  0  0  0  0
    8.3319    2.5747   -0.1531 C   0  0  0  0  0  0  0  0  0  0  0  0
    8.8434    2.7811   -2.2766 C   0  0  0  0  0  0  0  0  0  0  0  0
    8.7287    2.7527   -3.3378 H   0  0  0  0  0  0  0  0  0  0  0  0
    9.9277    3.1340   -1.5512 C   0  0  0  0  0  0  0  0  0  0  0  0
   10.8823    3.4674   -1.8940 H   0  0  0  0  0  0  0  0  0  0  0  0
   10.5542    3.3919    0.8343 C   0  0  0  0  0  0  0  0  0  0  0  0
   10.3204    2.6166    2.1287 C   0  0  0  0  0  0  0  0  0  0  0  0
   10.2644    1.5473    1.9398 H   0  0  0  0  0  0  0  0  0  0  0  0
    9.4205    2.9506    2.6442 H   0  0  0  0  0  0  0  0  0  0  0  0
   11.1545    2.7966    2.8021 H   0  0  0  0  0  0  0  0  0  0  0  0
   11.9808    3.0957    0.3566 C   0  0  0  0  0  0  0  0  0  0  0  0
   12.0599    2.0791   -0.0212 H   0  0  0  0  0  0  0  0  0  0  0  0
   12.6644    3.1970    1.1944 H   0  0  0  0  0  0  0  0  0  0  0  0
   12.3122    3.7925   -0.4074 H   0  0  0  0  0  0  0  0  0  0  0  0
   10.3699    4.8933    1.0658 C   0  0  0  0  0  0  0  0  0  0  0  0
    9.3560    5.1130    1.3907 H   0  0  0  0  0  0  0  0  0  0  0  0
   10.5680    5.4523    0.1543 H   0  0  0  0  0  0  0  0  0  0  0  0
   11.0597    5.2325    1.8329 H   0  0  0  0  0  0  0  0  0  0  0  0
    6.5527    1.9195   -1.8820 C   0  0  0  0  0  0  0  0  0  0  0  0
    6.7275    0.4155   -2.1040 C   0  0  0  0  0  0  0  0  0  0  0  0
    7.5086    0.2205   -2.8350 H   0  0  0  0  0  0  0  0  0  0  0  0
    5.7989   -0.0102   -2.4724 H   0  0  0  0  0  0  0  0  0  0  0  0
    6.9927   -0.0839   -1.1756 H   0  0  0  0  0  0  0  0  0  0  0  0
    5.4223    2.1871   -0.8912 C   0  0  0  0  0  0  0  0  0  0  0  0
    5.4920    1.5452   -0.0136 H   0  0  0  0  0  0  0  0  0  0  0  0
    4.4734    1.9620   -1.3716 H   0  0  0  0  0  0  0  0  0  0  0  0
    5.4070    3.2309   -0.5873 H   0  0  0  0  0  0  0  0  0  0  0  0
    6.2012    2.6185   -3.2007 C   0  0  0  0  0  0  0  0  0  0  0  0
    6.8160    2.2733   -4.0265 H   0  0  0  0  0  0  0  0  0  0  0  0
    6.2965    3.6975   -3.1046 H   0  0  0  0  0  0  0  0  0  0  0  0
    5.1704    2.3939   -3.4587 H   0  0  0  0  0  0  0  0  0  0  0  0
    6.8525    1.0966    4.2208 C   0  0  0  0  0  3  0  0  0  0  0  0
    7.8462    0.7170    4.0367 H   0  0  0  0  0  0  0  0  0  0  0  0
    6.1909    0.8193    5.4019 C   0  0  0  0  0  0  0  0  0  0  0  0
    6.6776    0.2250    6.1581 H   0  0  0  0  0  0  0  0  0  0  0  0
    4.9083    1.3139    5.5861 C   0  0  0  0  0  0  0  0  0  0  0  0
    4.3656    1.1139    6.4970 H   0  0  0  0  0  0  0  0  0  0  0  0
    4.3386    2.0708    4.5732 C   0  0  0  0  0  0  0  0  0  0  0  0
    3.3451    2.4782    4.6675 H   0  0  0  0  0  0  0  0  0  0  0  0
    5.0663    2.3055    3.4221 C   0  0  0  0  0  0  0  0  0  0  0  0
    4.6610    2.9019    2.6187 H   0  0  0  0  0  0  0  0  0  0  0  0
  1  3  1  0  0  0  0
  1  4  1  0  0  0  0
  2  1  1  0  0  0  0
  4 46  1  0  0  0  0
  4 38  1  0  0  0  0
  5  7  1  0  0  0  0
  5 12  1  0  0  0  0
  6  7  1  0  0  0  0
  7  1  2  0  0  0  0
  8 10  2  0  0  0  0
  8  6  1  0  0  0  0
  9  8  1  0  0  0  0
 10  5  1  0  0  0  0
 11 10  1  0  0  0  0
 12 21  1  0  0  0  0
 12 13  1  0  0  0  0
 13 15  1  0  0  0  0
 13 16  1  0  0  0  0
 14 13  1  0  0  0  0
 17 12  1  0  0  0  0
 17 19  1  0  0  0  0
 18 17  1  0  0  0  0
 20 17  1  0  0  0  0
 21 22  1  0  0  0  0
 21 24  1  0  0  0  0
 23 21  1  0  0  0  0
 25  6  1  0  0  0  0
 25 30  1  0  0  0  0
 26 25  1  0  0  0  0
 26 29  1  0  0  0  0
 27 26  1  0  0  0  0
 28 26  1  0  0  0  0
 30 33  1  0  0  0  0
 30 31  1  0  0  0  0
 32 30  1  0  0  0  0
 34 36  1  0  0  0  0
 34 25  1  0  0  0  0
 35 34  1  0  0  0  0
 37 34  1  0  0  0  0
 38 40  1  0  0  0  0
 39 38  1  0  0  0  0
 40 42  2  0  0  0  0
 40 41  1  0  0  0  0
 42 43  1  0  0  0  0
 44 45  1  0  0  0  0
 44 42  1  0  0  0  0
 46 44  2  0  0  0  0
 47 46  1  0  0  0  0
M  END
$$$$
