CSD_code = ZIHNEM | q = 0 | S = 0 | Stoichiometry = C21H35Cl2NO2Zn | MND = 4
 OpenBabel04212202133D

 62 62  0  0  1  0  0  0  0  0999 V2000
    3.0104    4.2657    7.5442 Zn  0  0  0  0  0  0  0  0  0  0  0  0
    1.1842    4.4100    6.3820 Cl  0  0  0  0  0  0  0  0  0  0  0  0
    4.3531    5.5420    8.7521 Cl  0  0  0  0  0  0  0  0  0  0  0  0
    4.4214    3.2448    6.5681 O   0  0  0  0  0  0  0  0  0  0  0  0
    6.1854    2.4822    7.7307 N   0  0  0  0  0  0  0  0  0  0  0  0
    7.1566    2.6306    7.9627 H   0  0  0  0  0  0  0  0  0  0  0  0
    5.4549    1.6107    8.5890 C   0  0  0  0  0  0  0  0  0  0  0  0
    4.7872    0.5089    8.0520 C   0  0  0  0  0  0  0  0  0  0  0  0
    4.0864   -0.3165    8.9248 C   0  0  0  0  0  0  0  0  0  0  0  0
    3.5526   -1.1708    8.5365 H   0  0  0  0  0  0  0  0  0  0  0  0
    4.0787   -0.0723   10.2828 C   0  0  0  0  0  0  0  0  0  0  0  0
    3.5387   -0.7324   10.9466 H   0  0  0  0  0  0  0  0  0  0  0  0
    4.7766    1.0043   10.7998 C   0  0  0  0  0  0  0  0  0  0  0  0
    4.7806    1.1686   11.8655 H   0  0  0  0  0  0  0  0  0  0  0  0
    5.4672    1.8692    9.9654 C   0  0  0  0  0  0  0  0  0  0  0  0
    4.8595    0.1547    6.5847 C   0  0  0  0  0  0  0  0  0  0  0  0
    5.5070    0.8728    6.0752 H   0  0  0  0  0  0  0  0  0  0  0  0
    5.4809   -1.2345    6.4066 C   0  0  0  0  0  0  0  0  0  0  0  0
    6.4485   -1.2871    6.9020 H   0  0  0  0  0  0  0  0  0  0  0  0
    5.6227   -1.4437    5.3487 H   0  0  0  0  0  0  0  0  0  0  0  0
    4.8411   -2.0079    6.8228 H   0  0  0  0  0  0  0  0  0  0  0  0
    3.4802    0.2224    5.9269 C   0  0  0  0  0  0  0  0  0  0  0  0
    2.7907   -0.4814    6.3879 H   0  0  0  0  0  0  0  0  0  0  0  0
    3.5611   -0.0219    4.8701 H   0  0  0  0  0  0  0  0  0  0  0  0
    3.0715    1.2262    6.0159 H   0  0  0  0  0  0  0  0  0  0  0  0
    6.2617    3.0360   10.5061 C   0  0  0  0  0  0  0  0  0  0  0  0
    6.2210    3.8456    9.7712 H   0  0  0  0  0  0  0  0  0  0  0  0
    7.7192    2.6045   10.7149 C   0  0  0  0  0  0  0  0  0  0  0  0
    7.7736    1.8431   11.4909 H   0  0  0  0  0  0  0  0  0  0  0  0
    8.3206    3.4558   11.0250 H   0  0  0  0  0  0  0  0  0  0  0  0
    8.1561    2.1849    9.8099 H   0  0  0  0  0  0  0  0  0  0  0  0
    5.7054    3.6001   11.8116 C   0  0  0  0  0  0  0  0  0  0  0  0
    4.6460    3.8159   11.7092 H   0  0  0  0  0  0  0  0  0  0  0  0
    6.2163    4.5304   12.0465 H   0  0  0  0  0  0  0  0  0  0  0  0
    5.8523    2.9151   12.6437 H   0  0  0  0  0  0  0  0  0  0  0  0
    5.6354    3.2666    6.8009 C   0  0  1  0  0  3  0  0  0  0  0  0
    6.6013    4.1370    5.9995 C   0  0  0  0  0  0  0  0  0  0  0  0
    7.4737    4.9669    6.9495 C   0  0  0  0  0  0  0  0  0  0  0  0
    6.8482    5.4868    7.6722 H   0  0  0  0  0  0  0  0  0  0  0  0
    8.0244    5.7088    6.3762 H   0  0  0  0  0  0  0  0  0  0  0  0
    8.2005    4.3564    7.4829 H   0  0  0  0  0  0  0  0  0  0  0  0
    5.7930    5.0768    5.1046 C   0  0  0  0  0  0  0  0  0  0  0  0
    5.1147    4.5126    4.4693 H   0  0  0  0  0  0  0  0  0  0  0  0
    6.4594    5.6619    4.4760 H   0  0  0  0  0  0  0  0  0  0  0  0
    5.2024    5.7584    5.7141 H   0  0  0  0  0  0  0  0  0  0  0  0
    7.4701    3.2154    5.1316 C   0  0  0  0  0  0  0  0  0  0  0  0
    8.0403    2.5129    5.7368 H   0  0  0  0  0  0  0  0  0  0  0  0
    8.1695    3.8141    4.5530 H   0  0  0  0  0  0  0  0  0  0  0  0
    6.8496    2.6506    4.4393 H   0  0  0  0  0  0  0  0  0  0  0  0
    2.2538    2.9368    9.1415 O   0  0  0  0  0  0  0  0  0  0  0  0
    1.3364    1.8889    8.8348 C   0  0  0  0  0  0  0  0  0  0  0  0
    1.8982    1.1271    8.2945 H   0  0  0  0  0  0  0  0  0  0  0  0
    0.5403    2.2763    8.1890 H   0  0  0  0  0  0  0  0  0  0  0  0
    0.7747    1.3926   10.1790 C   0  0  0  0  0  0  0  0  0  0  0  0
   -0.3134    1.4314   10.1741 H   0  0  0  0  0  0  0  0  0  0  0  0
    1.0821    0.3693   10.3829 H   0  0  0  0  0  0  0  0  0  0  0  0
    1.3602    2.3694   11.2075 C   0  0  0  0  0  0  0  0  0  0  0  0
    2.2383    1.9372   11.6858 H   0  0  0  0  0  0  0  0  0  0  0  0
    0.6434    2.6596   11.9715 H   0  0  0  0  0  0  0  0  0  0  0  0
    1.7794    3.5471   10.3338 C   0  0  0  0  0  0  0  0  0  0  0  0
    0.9203    4.1949   10.1120 H   0  0  0  0  0  0  0  0  0  0  0  0
    2.5893    4.1488   10.7451 H   0  0  0  0  0  0  0  0  0  0  0  0
  1  3  1  0  0  0  0
  2  1  1  0  0  0  0
  4  1  1  0  0  0  0
  5  6  1  0  0  0  0
  5  7  1  0  0  0  0
  7 15  1  0  0  0  0
  8  7  2  0  0  0  0
  8  9  1  0  0  0  0
  9 11  2  0  0  0  0
 10  9  1  0  0  0  0
 11 13  1  0  0  0  0
 11 12  1  0  0  0  0
 13 14  1  0  0  0  0
 15 26  1  0  0  0  0
 15 13  2  0  0  0  0
 16  8  1  0  0  0  0
 17 16  1  0  0  0  0
 18 16  1  0  0  0  0
 18 21  1  0  0  0  0
 18 19  1  0  0  0  0
 20 18  1  0  0  0  0
 22 25  1  0  0  0  0
 22 23  1  0  0  0  0
 22 16  1  0  0  0  0
 24 22  1  0  0  0  0
 26 28  1  0  0  0  0
 26 32  1  0  0  0  0
 27 26  1  0  0  0  0
 28 30  1  0  0  0  0
 28 29  1  0  0  0  0
 31 28  1  0  0  0  0
 32 34  1  0  0  0  0
 32 35  1  0  0  0  0
 33 32  1  0  0  0  0
 36  4  1  6  0  0  0
 36  5  1  0  0  0  0
 37 36  1  0  0  0  0
 37 38  1  0  0  0  0
 38 41  1  0  0  0  0
 38 39  1  0  0  0  0
 40 38  1  0  0  0  0
 42 45  1  0  0  0  0
 42 37  1  0  0  0  0
 43 42  1  0  0  0  0
 44 42  1  0  0  0  0
 46 47  1  0  0  0  0
 46 37  1  0  0  0  0
 48 46  1  0  0  0  0
 49 46  1  0  0  0  0
 50 60  1  0  0  0  0
 51 50  1  0  0  0  0
 51 54  1  0  0  0  0
 52 51  1  0  0  0  0
 53 51  1  0  0  0  0
 54 56  1  0  0  0  0
 54 57  1  0  0  0  0
 55 54  1  0  0  0  0
 57 58  1  0  0  0  0
 57 59  1  0  0  0  0
 60 62  1  0  0  0  0
 60 57  1  0  0  0  0
 61 60  1  0  0  0  0
M  END
$$$$
