CSD_code = ZIHPOX | q = 0 | S = 0 | Stoichiometry = C19H25Cl2NTi | MND = 8
 OpenBabel04212202133D

 48 50  0  0  1  0  0  0  0  0999 V2000
    3.4503    3.2503    2.5353 C   0  0  2  0  0  0  0  0  0  0  0  0
    4.7521    2.8035    2.1519 C   0  0  0  0  0  0  0  0  0  0  0  0
    5.6113    3.9347    2.1516 C   0  0  0  0  0  0  0  0  0  0  0  0
    4.8513    5.0735    2.5318 C   0  0  0  0  0  0  0  0  0  0  0  0
    3.5202    4.6554    2.7785 C   0  0  0  0  0  0  0  0  0  0  0  0
    5.1991    1.3806    1.9765 C   0  0  0  0  0  0  0  0  0  0  0  0
    5.5027    1.1846    0.9441 H   0  0  0  0  0  0  0  0  0  0  0  0
    4.4003    0.6933    2.2524 H   0  0  0  0  0  0  0  0  0  0  0  0
    6.0581    1.1817    2.6200 H   0  0  0  0  0  0  0  0  0  0  0  0
    7.0953    3.8890    1.9428 C   0  0  0  0  0  0  0  0  0  0  0  0
    7.5965    3.6377    2.8814 H   0  0  0  0  0  0  0  0  0  0  0  0
    7.4728    4.8528    1.6042 H   0  0  0  0  0  0  0  0  0  0  0  0
    7.3586    3.1363    1.1999 H   0  0  0  0  0  0  0  0  0  0  0  0
    5.3933    6.4590    2.7192 C   0  0  0  0  0  0  0  0  0  0  0  0
    5.9527    6.5217    3.6558 H   0  0  0  0  0  0  0  0  0  0  0  0
    4.5859    7.1882    2.7516 H   0  0  0  0  0  0  0  0  0  0  0  0
    6.0672    6.7287    1.9042 H   0  0  0  0  0  0  0  0  0  0  0  0
    2.3887    5.5135    3.2633 C   0  0  0  0  0  0  0  0  0  0  0  0
    1.4423    4.9805    3.1686 H   0  0  0  0  0  0  0  0  0  0  0  0
    2.3244    6.4375    2.6865 H   0  0  0  0  0  0  0  0  0  0  0  0
    2.5348    5.7783    4.3133 H   0  0  0  0  0  0  0  0  0  0  0  0
    2.2517    2.4199    2.7221 C   0  0  0  0  0  0  0  0  0  0  0  0
    1.6563    2.3407    3.9795 C   0  0  0  0  0  0  0  0  0  0  0  0
    2.1038    2.8783    4.8030 H   0  0  0  0  0  0  0  0  0  0  0  0
    0.5211    1.5779    4.1795 C   0  0  0  0  0  0  0  0  0  0  0  0
    0.0724    1.5228    5.1601 H   0  0  0  0  0  0  0  0  0  0  0  0
   -0.0363    0.8869    3.1176 C   0  0  0  0  0  0  0  0  0  0  0  0
   -0.9246    0.2905    3.2625 H   0  0  0  0  0  0  0  0  0  0  0  0
    0.5440    0.9664    1.8636 C   0  0  0  0  0  0  0  0  0  0  0  0
    0.0983    0.4282    1.0385 H   0  0  0  0  0  0  0  0  0  0  0  0
    1.6870    1.7255    1.6472 C   0  0  0  0  0  0  0  0  0  0  0  0
    2.2938    1.7835    0.2620 C   0  0  0  0  0  0  0  0  0  0  0  0
    3.1602    1.0984    0.2243 H   0  0  0  0  0  0  0  0  0  0  0  0
    1.5474    1.3875   -0.4345 H   0  0  0  0  0  0  0  0  0  0  0  0
    2.2358    3.5080   -1.4756 C   0  0  0  0  0  0  0  0  0  0  0  0
    0.7260    3.7878   -1.4453 C   0  0  0  0  0  0  0  0  0  0  0  0
    0.1581    2.8826   -1.2398 H   0  0  0  0  0  0  0  0  0  0  0  0
    0.4020    4.1907   -2.4013 H   0  0  0  0  0  0  0  0  0  0  0  0
    0.5171    4.5184   -0.6628 H   0  0  0  0  0  0  0  0  0  0  0  0
    2.6202    2.5060   -2.5755 C   0  0  0  0  0  0  0  0  0  0  0  0
    3.6854    2.2858   -2.5018 H   0  0  0  0  0  0  0  0  0  0  0  0
    2.4221    2.9445   -3.5502 H   0  0  0  0  0  0  0  0  0  0  0  0
    2.0583    1.5778   -2.4993 H   0  0  0  0  0  0  0  0  0  0  0  0
    5.5162    4.0045   -0.9341 Cl  0  0  0  0  0  0  0  0  0  0  0  0
    3.2622    6.2331    0.0702 Cl  0  0  0  0  0  0  0  0  0  0  0  0
    2.7171    3.1065   -0.1603 N   0  0  0  0  0  0  0  0  0  0  0  0
    3.9431    4.2094    0.5724 Ti  0  0  0  0  0  0  0  0  0  0  0  0
    2.7407    4.4554   -1.7269 H   0  0  0  0  0  0  0  0  0  0  0  0
  1  2  1  1  0  0  0
  1 22  1  0  0  0  0
  1  5  1  0  0  0  0
  3  2  2  0  0  0  0
  3  4  1  0  0  0  0
  4 14  1  0  0  0  0
  4  5  2  0  0  0  0
  5 18  1  0  0  0  0
  6  2  1  0  0  0  0
  6  8  1  0  0  0  0
  6  9  1  0  0  0  0
  7  6  1  0  0  0  0
 10  3  1  0  0  0  0
 10 11  1  0  0  0  0
 12 10  1  0  0  0  0
 13 10  1  0  0  0  0
 14 16  1  0  0  0  0
 14 15  1  0  0  0  0
 17 14  1  0  0  0  0
 18 21  1  0  0  0  0
 19 18  1  0  0  0  0
 20 18  1  0  0  0  0
 22 23  1  0  0  0  0
 23 25  2  0  0  0  0
 23 24  1  0  0  0  0
 25 26  1  0  0  0  0
 27 28  1  0  0  0  0
 27 25  1  0  0  0  0
 29 27  2  0  0  0  0
 30 29  1  0  0  0  0
 31 29  1  0  0  0  0
 31 22  2  0  0  0  0
 32 31  1  0  0  0  0
 33 32  1  0  0  0  0
 34 32  1  0  0  0  0
 35 36  1  0  0  0  0
 35 46  1  0  0  0  0
 36 37  1  0  0  0  0
 36 39  1  0  0  0  0
 38 36  1  0  0  0  0
 40 41  1  0  0  0  0
 40 43  1  0  0  0  0
 40 35  1  0  0  0  0
 42 40  1  0  0  0  0
 44 47  1  0  0  0  0
 45 47  1  0  0  0  0
 46 32  1  0  0  0  0
 46 47  1  0  0  0  0
 47  1  1  0  0  0  0
 48 35  1  0  0  0  0
M  END
$$$$
