CSD_code = ZIHZOH | q = 1 | S = 0 | Stoichiometry = C21H30BrClIrN2(1+) | MND = 8
 OpenBabel04212202133D

 56 57  0  0  1  0  0  0  0  0999 V2000
    3.2307    2.2410   13.3774 Ir  0  0  0  0  0  0  0  0  0  0  0  0
    1.1217   -0.3500   12.0047 Br  0  0  0  0  0  0  0  0  0  0  0  0
    4.1235    1.6245   11.2867 Cl  0  0  0  0  0 15  0  0  0  0  0  0
    1.4366    2.3947   12.1485 N   0  0  0  0  0  0  0  0  0  0  0  0
    2.0830    4.5760   12.2657 N   0  0  0  0  0  0  0  0  0  0  0  0
    1.9680    5.5516   11.9995 H   0  0  0  0  0  0  0  0  0  0  0  0
    4.2709    2.2871   15.3442 C   0  0  1  0  0  3  0  0  0  0  0  0
    4.8528    1.2744   14.5072 C   0  0  1  0  0  0  0  0  0  0  0  0
    3.8832    0.1987   14.3593 C   0  0  0  0  0  0  0  0  0  0  0  0
    2.7199    0.5688   15.0370 C   0  0  0  0  0  0  0  0  0  0  0  0
    2.9070    1.9108   15.5654 C   0  0  1  0  0  3  0  0  0  0  0  0
    5.0151    3.3471   16.0863 C   0  0  0  0  0  0  0  0  0  0  0  0
    5.3929    2.9117   17.0130 H   0  0  0  0  0  0  0  0  0  0  0  0
    4.3717    4.1817   16.3528 H   0  0  0  0  0  0  0  0  0  0  0  0
    5.8695    3.7107   15.5224 H   0  0  0  0  0  0  0  0  0  0  0  0
    6.2901    1.1332   14.1501 C   0  0  0  0  0  0  0  0  0  0  0  0
    6.8233    2.0745   14.2382 H   0  0  0  0  0  0  0  0  0  0  0  0
    6.4037    0.7578   13.1354 H   0  0  0  0  0  0  0  0  0  0  0  0
    6.7513    0.4101   14.8248 H   0  0  0  0  0  0  0  0  0  0  0  0
    4.2093   -1.1083   13.7241 C   0  0  0  0  0  0  0  0  0  0  0  0
    3.3426   -1.7613   13.6840 H   0  0  0  0  0  0  0  0  0  0  0  0
    4.9971   -1.6050   14.2908 H   0  0  0  0  0  0  0  0  0  0  0  0
    4.5742   -0.9605   12.7086 H   0  0  0  0  0  0  0  0  0  0  0  0
    1.5279   -0.2624   15.3537 C   0  0  0  0  0  0  0  0  0  0  0  0
    1.5612   -1.2228   14.8492 H   0  0  0  0  0  0  0  0  0  0  0  0
    0.6000    0.2399   15.0851 H   0  0  0  0  0  0  0  0  0  0  0  0
    1.5038   -0.4380   16.4303 H   0  0  0  0  0  0  0  0  0  0  0  0
    1.9650    2.5637   16.5214 C   0  0  0  0  0  0  0  0  0  0  0  0
    2.1151    2.1454   17.5181 H   0  0  0  0  0  0  0  0  0  0  0  0
    0.9302    2.3862   16.2390 H   0  0  0  0  0  0  0  0  0  0  0  0
    2.1329    3.6361   16.5770 H   0  0  0  0  0  0  0  0  0  0  0  0
    0.7111    1.4276   11.5815 C   0  0  1  0  0  3  0  0  0  0  0  0
   -0.3099    1.6763   10.6793 C   0  0  0  0  0  0  0  0  0  0  0  0
   -0.8710    0.8538   10.2668 H   0  0  0  0  0  0  0  0  0  0  0  0
   -0.5793    2.9884   10.3179 C   0  0  0  0  0  0  0  0  0  0  0  0
   -1.3696    3.2083    9.6184 H   0  0  0  0  0  0  0  0  0  0  0  0
    0.2006    4.0004   10.8448 C   0  0  0  0  0  0  0  0  0  0  0  0
    0.0556    5.0293   10.5595 H   0  0  0  0  0  0  0  0  0  0  0  0
    1.2059    3.6577   11.7436 C   0  0  0  0  0  0  0  0  0  0  0  0
    3.1511    4.1769   12.9735 C   0  0  0  0  0  0  0  0  0  0  0  0
    4.0738    5.2891   13.3069 C   0  0  0  0  0  0  0  0  0  0  0  0
    4.5749    5.1061   14.2533 H   0  0  0  0  0  0  0  0  0  0  0  0
    3.5042    6.2202   13.3899 H   0  0  0  0  0  0  0  0  0  0  0  0
    5.1975    5.5228   12.2386 C   0  0  0  0  0  0  0  0  0  0  0  0
    6.2610    4.4379   12.3690 C   0  0  0  0  0  0  0  0  0  0  0  0
    5.8175    3.4539   12.2524 H   0  0  0  0  0  0  0  0  0  0  0  0
    6.7561    4.4990   13.3349 H   0  0  0  0  0  0  0  0  0  0  0  0
    7.0152    4.5653   11.5973 H   0  0  0  0  0  0  0  0  0  0  0  0
    5.8195    6.8899   12.5265 C   0  0  0  0  0  0  0  0  0  0  0  0
    6.6573    7.0606   11.8560 H   0  0  0  0  0  0  0  0  0  0  0  0
    6.1880    6.9443   13.5479 H   0  0  0  0  0  0  0  0  0  0  0  0
    5.1003    7.6919   12.3765 H   0  0  0  0  0  0  0  0  0  0  0  0
    4.6208    5.5074   10.8244 C   0  0  0  0  0  0  0  0  0  0  0  0
    5.4042    5.7562   10.1136 H   0  0  0  0  0  0  0  0  0  0  0  0
    3.8275    6.2436   10.7071 H   0  0  0  0  0  0  0  0  0  0  0  0
    4.2419    4.5202   10.5706 H   0  0  0  0  0  0  0  0  0  0  0  0
  1  8  1  0  0  0  0
  4  1  1  0  0  0  0
  5 40  1  0  0  0  0
  6  5  1  0  0  0  0
  7 11  1  0  0  0  0
  7 12  1  1  0  0  0
  8 16  1  6  0  0  0
  8  7  1  0  0  0  0
  9  8  1  0  0  0  0
  9 10  2  0  0  0  0
 10 24  1  0  0  0  0
 10 11  1  0  0  0  0
 11 28  1  1  0  0  0
 12 14  1  0  0  0  0
 12 13  1  0  0  0  0
 15 12  1  0  0  0  0
 16 17  1  0  0  0  0
 16 19  1  0  0  0  0
 18 16  1  0  0  0  0
 20 22  1  0  0  0  0
 20  9  1  0  0  0  0
 21 20  1  0  0  0  0
 23 20  1  0  0  0  0
 24 27  1  0  0  0  0
 25 24  1  0  0  0  0
 26 24  1  0  0  0  0
 28 31  1  0  0  0  0
 28 29  1  0  0  0  0
 30 28  1  0  0  0  0
 32  2  1  6  0  0  0
 32  4  1  0  0  0  0
 33 32  1  0  0  0  0
 34 33  1  0  0  0  0
 35 33  2  0  0  0  0
 35 37  1  0  0  0  0
 36 35  1  0  0  0  0
 37 39  2  0  0  0  0
 38 37  1  0  0  0  0
 39  4  1  0  0  0  0
 39  5  1  0  0  0  0
 40 41  1  0  0  0  0
 40  1  2  0  0  0  0
 41 43  1  0  0  0  0
 41 42  1  0  0  0  0
 44 45  1  0  0  0  0
 44 49  1  0  0  0  0
 44 41  1  0  0  0  0
 45 47  1  0  0  0  0
 46 45  1  0  0  0  0
 48 45  1  0  0  0  0
 49 51  1  0  0  0  0
 50 49  1  0  0  0  0
 52 49  1  0  0  0  0
 53 44  1  0  0  0  0
 54 53  1  0  0  0  0
 55 53  1  0  0  0  0
 56 53  1  0  0  0  0
M  END
$$$$
