CSD_code = ZIJTIV | q = 0 | S = 0 | Stoichiometry = C7H14ClNO4PtS | MND = 4
 OpenBabel04212202133D

 29 30  0  0  1  0  0  0  0  0999 V2000
    0.1458    0.9760   16.4026 Pt  0  0  1  0  0  0  0  0  0  0  0  0
    0.3338    1.7439   14.3132 Cl  0  0  0  0  0  0  0  0  0  0  0  0
   -0.1847   -1.0158   15.4678 S   0  0  0  0  0  0  0  0  0  0  0  0
    0.0309    0.3559   18.3805 N   0  0  1  0  0  4  0  0  0  0  0  0
    0.4659    2.7645   17.3007 O   0  0  0  0  0  0  0  0  0  0  0  0
    0.5721    3.7336   19.2881 O   0  0  0  0  0  0  0  0  0  0  0  0
    0.5402   -1.1415   20.9088 O   0  0  0  0  0  0  0  0  0  0  0  0
   -0.4358   -2.0577   16.4553 O   0  0  0  0  0  1  0  0  0  0  0  0
    1.3205   -0.0381   18.9607 C   0  0  0  0  0  0  0  0  0  0  0  0
    1.1033    0.0794   20.4776 C   0  0  1  0  0  0  0  0  0  0  0  0
    0.1223    1.2609   20.6129 C   0  0  0  0  0  0  0  0  0  0  0  0
   -0.3796    1.5213   19.1866 C   0  0  1  0  0  0  0  0  0  0  0  0
    0.2856    2.8048   18.5705 C   0  0  0  0  0  0  0  0  0  0  0  0
   -1.5201   -1.0672   14.2411 C   0  0  0  0  0  0  0  0  0  0  0  0
    1.1910   -1.5523   14.4140 C   0  0  0  0  0  0  0  0  0  0  0  0
   -0.6109   -0.4241   18.5358 H   0  0  0  0  0  0  0  0  0  0  0  0
    1.5781   -1.0573   18.6751 H   0  0  0  0  0  0  0  0  0  0  0  0
    2.0964    0.6615   18.6387 H   0  0  0  0  0  0  0  0  0  0  0  0
    2.0482    0.2658   21.0026 H   0  0  0  0  0  0  0  0  0  0  0  0
    0.4015   -1.1140   21.8608 H   0  0  0  0  0  0  0  0  0  0  0  0
   -0.6930    1.0010   21.2880 H   0  0  0  0  0  0  0  0  0  0  0  0
    0.6118    2.1620   20.9850 H   0  0  0  0  0  0  0  0  0  0  0  0
   -1.4628    1.6641   19.1324 H   0  0  0  0  0  0  0  0  0  0  0  0
   -1.3008   -0.3054   13.5017 H   0  0  0  0  0  0  0  0  0  0  0  0
   -2.4527   -0.8457   14.7489 H   0  0  0  0  0  0  0  0  0  0  0  0
   -1.5587   -2.0592   13.8064 H   0  0  0  0  0  0  0  0  0  0  0  0
    1.3271   -0.7877   13.6576 H   0  0  0  0  0  0  0  0  0  0  0  0
    0.9481   -2.5149   13.9795 H   0  0  0  0  0  0  0  0  0  0  0  0
    2.0780   -1.6355   15.0331 H   0  0  0  0  0  0  0  0  0  0  0  0
  1  2  1  1  0  0  0
  1  5  1  0  0  0  0
  1  4  1  0  0  0  0
  3  1  1  0  0  0  0
  3  8  1  0  0  0  0
  4 16  1  1  0  0  0
  4  9  1  0  0  0  0
  4 12  1  0  0  0  0
  5 13  1  0  0  0  0
  7 20  1  0  0  0  0
  9 10  1  0  0  0  0
 10 11  1  0  0  0  0
 10  7  1  0  0  0  0
 10 19  1  1  0  0  0
 11 22  1  0  0  0  0
 11 21  1  0  0  0  0
 12 23  1  6  0  0  0
 12 11  1  0  0  0  0
 13 12  1  0  0  0  0
 13  6  2  0  0  0  0
 14 25  1  0  0  0  0
 14  3  1  0  0  0  0
 15 29  1  0  0  0  0
 15  3  1  0  0  0  0
 17  9  1  0  0  0  0
 18  9  1  0  0  0  0
 24 14  1  0  0  0  0
 26 14  1  0  0  0  0
 27 15  1  0  0  0  0
 28 15  1  0  0  0  0
M  END
$$$$
