CSD_code = ZIJYAS | q = 0 | S = 0 | Stoichiometry = C12H18BrN3O5Pd | MND = 5
 OpenBabel04212202133D

 40 39  0  0  1  0  0  0  0  0999 V2000
    2.6761    0.4249   11.3207 Pd  0  0  0  0  0  0  0  0  0  0  0  0
    2.9320    2.7912   10.9836 Br  0  0  0  0  0 15  0  0  0  0  0  0
    0.8141   -0.2503    5.3195 O   0  0  0  0  0  0  0  0  0  0  0  0
    2.7934   -0.4121    8.7551 O   0  0  0  0  0  0  0  0  0  0  0  0
    3.7964    0.8080    5.2534 O   0  0  0  0  0  0  0  0  0  0  0  0
    2.4302    2.5188    3.7540 O   0  0  0  0  0  0  0  0  0  0  0  0
   -1.2038    1.7868    4.6979 O   0  0  0  0  0  0  0  0  0  0  0  0
    1.0262    0.4183    7.5729 N   0  0  0  0  0  0  0  0  0  0  0  0
    1.0966    0.4858    9.9187 N   0  0  0  0  0  0  0  0  0  0  0  0
   -0.4249    1.6206   11.1613 N   0  0  0  0  0  0  0  0  0  0  0  0
    1.7177    0.0724    6.3369 C   0  0  2  0  0  0  0  0  0  0  0  0
    2.5934    1.2356    5.8295 C   0  0  2  0  0  0  0  0  0  0  0  0
    1.6993    0.1279    8.7639 C   0  0  0  0  0  0  0  0  0  0  0  0
    1.6946    1.8911    4.7553 C   0  0  2  0  0  0  0  0  0  0  0  0
    0.8867    0.6796    4.2410 C   0  0  2  0  0  0  0  0  0  0  0  0
   -0.0138    1.2048    9.9536 C   0  0  0  0  0  0  0  0  0  0  0  0
   -0.5054    1.0395    3.7266 C   0  0  0  0  0  0  0  0  0  0  0  0
   -0.7223    1.4739    8.7512 C   0  0  0  0  0  0  0  0  0  0  0  0
   -0.1592    1.0666    7.5859 C   0  0  0  0  0  0  0  0  0  0  0  0
    2.8356   -1.6523   11.8521 C   0  0  0  0  0  3  0  0  0  0  0  0
    3.3619   -0.8293   12.8516 C   0  0  0  0  0  3  0  0  0  0  0  0
    4.3530    0.1109   12.4904 C   0  0  0  0  0  0  0  0  0  0  0  0
    2.3395   -0.8007    6.5862 H   0  0  0  0  0  0  0  0  0  0  0  0
    2.8706    1.9220    6.6322 H   0  0  0  0  0  0  0  0  0  0  0  0
    3.6449    0.0123    4.7280 H   0  0  0  0  0  0  0  0  0  0  0  0
    1.0129    2.6214    5.2030 H   0  0  0  0  0  0  0  0  0  0  0  0
    3.3524    2.2240    3.8429 H   0  0  0  0  0  0  0  0  0  0  0  0
    1.4297    0.2099    3.4053 H   0  0  0  0  0  0  0  0  0  0  0  0
   -1.6541    2.0097    8.7658 H   0  0  0  0  0  0  0  0  0  0  0  0
   -2.0442    2.0724    4.3258 H   0  0  0  0  0  0  0  0  0  0  0  0
   -0.6169    1.2447    6.6246 H   0  0  0  0  0  0  0  0  0  0  0  0
    0.2713    1.5597   11.9074 H   0  0  0  0  0  0  0  0  0  0  0  0
   -1.1368    2.3265   11.2367 H   0  0  0  0  0  0  0  0  0  0  0  0
   -0.3743    1.6231    2.8073 H   0  0  0  0  0  0  0  0  0  0  0  0
   -1.0418    0.1098    3.4970 H   0  0  0  0  0  0  0  0  0  0  0  0
    1.9979   -2.3023   12.0828 H   0  0  0  0  0  0  0  0  0  0  0  0
    3.4824   -1.9934   11.0434 H   0  0  0  0  0  0  0  0  0  0  0  0
    2.8759   -0.7626   13.8256 H   0  0  0  0  0  0  0  0  0  0  0  0
    4.7040    0.8142   13.2417 H   0  0  0  0  0  0  0  0  0  0  0  0
    5.1005   -0.1707   11.7396 H   0  0  0  0  0  0  0  0  0  0  0  0
  1 22  1  0  0  0  0
  3 11  1  0  0  0  0
  4 13  2  0  0  0  0
  5 12  1  0  0  0  0
  6 27  1  0  0  0  0
  6 14  1  0  0  0  0
  8 19  1  0  0  0  0
  8 13  1  0  0  0  0
  9 16  2  0  0  0  0
 10 33  1  0  0  0  0
 10 32  1  0  0  0  0
 11 23  1  1  0  0  0
 11  8  1  0  0  0  0
 12 11  1  0  0  0  0
 12 24  1  1  0  0  0
 13  9  1  0  0  0  0
 14 26  1  1  0  0  0
 14 12  1  0  0  0  0
 15 28  1  6  0  0  0
 15 14  1  0  0  0  0
 15  3  1  0  0  0  0
 16 10  1  0  0  0  0
 17 15  1  0  0  0  0
 17  7  1  0  0  0  0
 18 29  1  0  0  0  0
 18 16  1  0  0  0  0
 19 18  2  0  0  0  0
 20 36  1  0  0  0  0
 20 21  1  0  0  0  0
 21 38  1  0  0  0  0
 22 21  1  0  0  0  0
 22 39  1  0  0  0  0
 25  5  1  0  0  0  0
 30  7  1  0  0  0  0
 31 19  1  0  0  0  0
 34 17  1  0  0  0  0
 35 17  1  0  0  0  0
 37 20  1  0  0  0  0
 40 22  1  0  0  0  0
M  END
$$$$
