CSD_code = ZINJIR | q = 0 | S = 0 | Stoichiometry = C27H25ClNOPPd | MND = 4
 OpenBabel04212202133D

 57 61  0  0  0  0  0  0  0  0999 V2000
    9.8482    2.2119    3.1297 Pd  0  0  1  0  0  0  0  0  0  0  0  0
   11.0268    0.2284    3.5123 Cl  0  0  0  0  0  0  0  0  0  0  0  0
    8.0134    1.1019    3.7072 P   0  0  0  0  0  4  0  0  0  0  0  0
   11.1738    3.4120    5.3064 O   0  0  0  0  0  0  0  0  0  0  0  0
   11.5021    3.3285    2.7290 N   0  0  0  0  0  0  0  0  0  0  0  0
   11.2558    4.4371    2.1406 C   0  0  0  0  0  0  0  0  0  0  0  0
    9.8955    4.7050    1.7577 C   0  0  0  0  0  0  0  0  0  0  0  0
    9.5237    5.8101    0.9893 C   0  0  0  0  0  0  0  0  0  0  0  0
    8.1899    6.0375    0.7250 C   0  0  0  0  0  0  0  0  0  0  0  0
    7.2351    5.1640    1.2283 C   0  0  0  0  0  0  0  0  0  0  0  0
    7.6055    4.0666    1.9907 C   0  0  0  0  0  0  0  0  0  0  0  0
    6.7809    3.9890    6.2263 C   0  0  0  0  0  0  0  0  0  0  0  0
    8.1230   -0.3577    4.7883 C   0  0  0  0  0  0  0  0  0  0  0  0
    7.5207    3.1182    5.4492 C   0  0  0  0  0  0  0  0  0  0  0  0
    6.8785    2.1787    4.6441 C   0  0  0  0  0  0  0  0  0  0  0  0
    5.4921    2.1309    4.6100 C   0  0  0  0  0  0  0  0  0  0  0  0
    4.7555    3.0140    5.3820 C   0  0  0  0  0  0  0  0  0  0  0  0
    5.3956    3.9367    6.1920 C   0  0  0  0  0  0  0  0  0  0  0  0
    7.1122    0.4377    2.2755 C   0  0  0  0  0  0  0  0  0  0  0  0
    7.6040    0.7615    1.0140 C   0  0  0  0  0  0  0  0  0  0  0  0
    6.9768    0.2787   -0.1205 C   0  0  0  0  0  0  0  0  0  0  0  0
    5.8598   -0.5322    0.0006 C   0  0  0  0  0  0  0  0  0  0  0  0
    5.3834   -0.8795    1.2553 C   0  0  0  0  0  0  0  0  0  0  0  0
    6.0104   -0.4049    2.3931 C   0  0  0  0  0  0  0  0  0  0  0  0
    8.9393    3.8065    2.2912 C   0  0  0  0  0  0  0  0  0  0  0  0
    8.4646   -1.5826    4.2200 C   0  0  0  0  0  0  0  0  0  0  0  0
    8.6204   -2.6976    5.0201 C   0  0  0  0  0  0  0  0  0  0  0  0
    8.4421   -2.5997    6.3910 C   0  0  0  0  0  0  0  0  0  0  0  0
    8.1133   -1.3814    6.9606 C   0  0  0  0  0  0  0  0  0  0  0  0
    7.9589   -0.2595    6.1652 C   0  0  0  0  0  0  0  0  0  0  0  0
   12.7361    3.1009    3.4200 C   0  0  0  0  0  0  0  0  0  0  0  0
   12.3962    2.8173    4.9103 C   0  0  0  0  0  0  0  0  0  0  0  0
   11.2434    4.3720    5.2160 H   0  0  0  0  0  0  0  0  0  0  0  0
   12.0380    5.1896    1.9927 H   0  0  0  0  0  0  0  0  0  0  0  0
   10.2841    6.4733    0.5990 H   0  0  0  0  0  0  0  0  0  0  0  0
    7.8891    6.8868    0.1290 H   0  0  0  0  0  0  0  0  0  0  0  0
    6.1887    5.3402    1.0204 H   0  0  0  0  0  0  0  0  0  0  0  0
    6.8258    3.4086    2.3595 H   0  0  0  0  0  0  0  0  0  0  0  0
    7.2790    4.7130    6.8544 H   0  0  0  0  0  0  0  0  0  0  0  0
    8.6112    3.1519    5.4448 H   0  0  0  0  0  0  0  0  0  0  0  0
    4.9862    1.4222    3.9708 H   0  0  0  0  0  0  0  0  0  0  0  0
    3.6760    2.9822    5.3491 H   0  0  0  0  0  0  0  0  0  0  0  0
    4.8142    4.6211    6.7922 H   0  0  0  0  0  0  0  0  0  0  0  0
    8.4974    1.3870    0.9395 H   0  0  0  0  0  0  0  0  0  0  0  0
    7.3598    0.5288   -1.0988 H   0  0  0  0  0  0  0  0  0  0  0  0
    5.3668   -0.9078   -0.8841 H   0  0  0  0  0  0  0  0  0  0  0  0
    4.5250   -1.5294    1.3457 H   0  0  0  0  0  0  0  0  0  0  0  0
    5.6630   -0.7047    3.3727 H   0  0  0  0  0  0  0  0  0  0  0  0
    8.6222   -1.6504    3.1522 H   0  0  0  0  0  0  0  0  0  0  0  0
    8.8910   -3.6441    4.5755 H   0  0  0  0  0  0  0  0  0  0  0  0
    8.5683   -3.4718    7.0159 H   0  0  0  0  0  0  0  0  0  0  0  0
    7.9829   -1.3014    8.0303 H   0  0  0  0  0  0  0  0  0  0  0  0
    7.7140    0.6935    6.6139 H   0  0  0  0  0  0  0  0  0  0  0  0
   13.4015    3.9745    3.3280 H   0  0  0  0  0  0  0  0  0  0  0  0
   13.2333    2.2172    3.0072 H   0  0  0  0  0  0  0  0  0  0  0  0
   12.2384    1.7442    5.0508 H   0  0  0  0  0  0  0  0  0  0  0  0
   13.2198    3.1611    5.5494 H   0  0  0  0  0  0  0  0  0  0  0  0
  1  2  1  6  0  0  0
  1  3  1  0  0  0  0
  3 15  1  0  0  0  0
  3 13  1  0  0  0  0
  5  1  1  0  0  0  0
  5 31  1  0  0  0  0
  6  5  1  0  0  0  0
  7  6  2  0  0  0  0
  7 25  1  0  0  0  0
  8  7  1  0  0  0  0
  9  8  2  0  0  0  0
  9 10  1  0  0  0  0
 10 11  2  0  0  0  0
 11 25  1  0  0  0  0
 11 38  1  0  0  0  0
 12 39  1  0  0  0  0
 13 30  1  0  0  0  0
 14 12  2  0  0  0  0
 15 14  1  0  0  0  0
 16 15  2  0  0  0  0
 16 17  1  0  0  0  0
 17 18  2  0  0  0  0
 18 12  1  0  0  0  0
 18 43  1  0  0  0  0
 19 24  1  0  0  0  0
 19  3  1  0  0  0  0
 20 19  2  0  0  0  0
 21 22  2  0  0  0  0
 21 20  1  0  0  0  0
 22 23  1  0  0  0  0
 23 47  1  0  0  0  0
 23 24  2  0  0  0  0
 24 48  1  0  0  0  0
 25  1  2  0  0  0  0
 26 13  2  0  0  0  0
 26 27  1  0  0  0  0
 27 28  2  0  0  0  0
 28 29  1  0  0  0  0
 28 51  1  0  0  0  0
 29 52  1  0  0  0  0
 30 53  1  0  0  0  0
 30 29  2  0  0  0  0
 31 32  1  0  0  0  0
 32 56  1  0  0  0  0
 32  4  1  0  0  0  0
 32 57  1  0  0  0  0
 33  4  1  0  0  0  0
 34  6  1  0  0  0  0
 35  8  1  0  0  0  0
 36  9  1  0  0  0  0
 37 10  1  0  0  0  0
 40 14  1  0  0  0  0
 41 16  1  0  0  0  0
 42 17  1  0  0  0  0
 44 20  1  0  0  0  0
 45 21  1  0  0  0  0
 46 22  1  0  0  0  0
 49 26  1  0  0  0  0
 50 27  1  0  0  0  0
 54 31  1  0  0  0  0
 55 31  1  0  0  0  0
M  END
$$$$
