CSD_code = ZIPKAN | q = 0 | S = 0 | Stoichiometry = C30H27CuIN2O2P | MND = 4
 OpenBabel04212202133D

 64 69  0  0  1  0  0  0  0  0999 V2000
    6.0120    3.0123    7.3409 I   0  0  0  0  0  0  0  0  0  0  0  0
    7.3461    5.0997    7.4512 Cu  0  0  2  0  0  0  0  0  0  0  0  0
    9.1400    5.0275    8.8436 P   0  0  0  0  0  4  0  0  0  0  0  0
    3.6855    9.8834    6.6776 O   0  0  0  0  0  0  0  0  0  0  0  0
    6.2401    6.7814    7.6105 N   0  0  0  0  0  0  0  0  0  0  0  0
    8.2358    6.1931    5.9824 N   0  0  0  0  0  0  0  0  0  0  0  0
   10.5888    9.0646    4.1827 O   0  0  0  0  0  0  0  0  0  0  0  0
    6.5532    7.6960    6.6782 C   0  0  2  0  0  3  0  0  0  0  0  0
    4.4742    8.8474    7.0319 C   0  0  0  0  0  0  0  0  0  0  0  0
    9.9343    6.4925    9.5757 C   0  0  0  0  0  0  0  0  0  0  0  0
    4.1605    7.8790    7.9913 C   0  0  0  0  0  0  0  0  0  0  0  0
    3.2313    7.8928    8.5354 H   0  0  0  0  0  0  0  0  0  0  0  0
    8.8231    3.9647   10.2849 C   0  0  0  0  0  0  0  0  0  0  0  0
    5.6964    8.7421    6.3689 C   0  0  0  0  0  0  0  0  0  0  0  0
    5.9329    9.4585    5.5997 H   0  0  0  0  0  0  0  0  0  0  0  0
    9.8013    3.1599   10.8605 C   0  0  0  0  0  0  0  0  0  0  0  0
   10.8051    3.1578   10.4577 H   0  0  0  0  0  0  0  0  0  0  0  0
    7.8231    7.4680    5.9930 C   0  0  1  0  0  3  0  0  0  0  0  0
    8.5656    8.4931    5.4092 C   0  0  0  0  0  0  0  0  0  0  0  0
    8.2090    9.5072    5.4777 H   0  0  0  0  0  0  0  0  0  0  0  0
   10.5116    4.1469    8.0393 C   0  0  0  0  0  0  0  0  0  0  0  0
   10.0379    6.6993   10.9473 C   0  0  0  0  0  0  0  0  0  0  0  0
    9.6973    5.9370   11.6340 H   0  0  0  0  0  0  0  0  0  0  0  0
    7.5304    3.9595   10.7989 C   0  0  0  0  0  0  0  0  0  0  0  0
    6.7748    4.5768   10.3304 H   0  0  0  0  0  0  0  0  0  0  0  0
   10.1811    2.8992    7.5085 C   0  0  0  0  0  0  0  0  0  0  0  0
    9.1779    2.5149    7.6396 H   0  0  0  0  0  0  0  0  0  0  0  0
    5.0758    6.8749    8.2310 C   0  0  0  0  0  0  0  0  0  0  0  0
    4.8615    6.1012    8.9556 H   0  0  0  0  0  0  0  0  0  0  0  0
    9.4810    2.3620   11.9429 C   0  0  0  0  0  0  0  0  0  0  0  0
   10.2393    1.7345   12.3884 H   0  0  0  0  0  0  0  0  0  0  0  0
    2.4133   10.0010    7.2756 C   0  0  0  0  0  0  0  0  0  0  0  0
    1.9562   10.8780    6.8211 H   0  0  0  0  0  0  0  0  0  0  0  0
    2.4919   10.1521    8.3563 H   0  0  0  0  0  0  0  0  0  0  0  0
    1.7946    9.1223    7.0720 H   0  0  0  0  0  0  0  0  0  0  0  0
    8.1918    2.3596   12.4523 C   0  0  0  0  0  0  0  0  0  0  0  0
    7.9469    1.7264   13.2922 H   0  0  0  0  0  0  0  0  0  0  0  0
   10.5839    7.8754   11.4297 C   0  0  0  0  0  0  0  0  0  0  0  0
   10.6701    8.0267   12.4960 H   0  0  0  0  0  0  0  0  0  0  0  0
    9.7634    8.1794    4.7800 C   0  0  0  0  0  0  0  0  0  0  0  0
   10.3527    7.4947    8.7000 C   0  0  0  0  0  0  0  0  0  0  0  0
   10.2523    7.3444    7.6325 H   0  0  0  0  0  0  0  0  0  0  0  0
    9.3778    5.8930    5.3726 C   0  0  0  0  0  0  0  0  0  0  0  0
    9.6576    4.8480    5.3791 H   0  0  0  0  0  0  0  0  0  0  0  0
    7.2158    3.1593   11.8813 C   0  0  0  0  0  0  0  0  0  0  0  0
    6.2088    3.1485   12.2705 H   0  0  0  0  0  0  0  0  0  0  0  0
   11.0206    8.8563   10.5547 C   0  0  0  0  0  0  0  0  0  0  0  0
   11.4487    9.7713   10.9368 H   0  0  0  0  0  0  0  0  0  0  0  0
   10.1690    6.8339    4.7592 C   0  0  0  0  0  0  0  0  0  0  0  0
   11.0872    6.5648    4.2653 H   0  0  0  0  0  0  0  0  0  0  0  0
   11.1261    2.1652    6.8197 C   0  0  0  0  0  0  0  0  0  0  0  0
   10.8644    1.1995    6.4136 H   0  0  0  0  0  0  0  0  0  0  0  0
   12.4045    2.6739    6.6453 C   0  0  0  0  0  0  0  0  0  0  0  0
   13.1442    2.1034    6.1032 H   0  0  0  0  0  0  0  0  0  0  0  0
   11.7924    4.6552    7.8602 C   0  0  0  0  0  0  0  0  0  0  0  0
   12.0590    5.6208    8.2673 H   0  0  0  0  0  0  0  0  0  0  0  0
   10.9017    8.6645    9.1868 C   0  0  0  0  0  0  0  0  0  0  0  0
   11.2366    9.4299    8.5008 H   0  0  0  0  0  0  0  0  0  0  0  0
   10.2185   10.4241    4.1524 C   0  0  0  0  0  0  0  0  0  0  0  0
   11.0179   10.9343    3.6184 H   0  0  0  0  0  0  0  0  0  0  0  0
   10.1344   10.8393    5.1616 H   0  0  0  0  0  0  0  0  0  0  0  0
    9.2750   10.5693    3.6177 H   0  0  0  0  0  0  0  0  0  0  0  0
   12.7334    3.9144    7.1656 C   0  0  0  0  0  0  0  0  0  0  0  0
   13.7303    4.3098    7.0323 H   0  0  0  0  0  0  0  0  0  0  0  0
  2  1  1  6  0  0  0
  2  5  1  0  0  0  0
  2  3  1  0  0  0  0
  3 10  1  0  0  0  0
  3 13  1  0  0  0  0
  4  9  1  0  0  0  0
  4 32  1  0  0  0  0
  5 28  1  0  0  0  0
  6 18  1  0  0  0  0
  6  2  1  0  0  0  0
  7 40  1  0  0  0  0
  8 14  1  6  0  0  0
  8  5  1  0  0  0  0
  9 11  1  0  0  0  0
 10 22  1  0  0  0  0
 11 28  2  0  0  0  0
 11 12  1  0  0  0  0
 13 24  2  0  0  0  0
 13 16  1  0  0  0  0
 14  9  2  0  0  0  0
 15 14  1  0  0  0  0
 16 30  2  0  0  0  0
 17 16  1  0  0  0  0
 18 19  1  1  0  0  0
 18  8  1  0  0  0  0
 19 20  1  0  0  0  0
 21  3  1  0  0  0  0
 22 38  2  0  0  0  0
 22 23  1  0  0  0  0
 24 45  1  0  0  0  0
 25 24  1  0  0  0  0
 26 27  1  0  0  0  0
 26 21  2  0  0  0  0
 28 29  1  0  0  0  0
 30 31  1  0  0  0  0
 30 36  1  0  0  0  0
 32 34  1  0  0  0  0
 33 32  1  0  0  0  0
 35 32  1  0  0  0  0
 36 37  1  0  0  0  0
 38 39  1  0  0  0  0
 40 19  2  0  0  0  0
 41 57  1  0  0  0  0
 41 10  2  0  0  0  0
 42 41  1  0  0  0  0
 43 44  1  0  0  0  0
 43  6  1  0  0  0  0
 45 46  1  0  0  0  0
 45 36  2  0  0  0  0
 47 48  1  0  0  0  0
 47 38  1  0  0  0  0
 49 40  1  0  0  0  0
 49 43  2  0  0  0  0
 50 49  1  0  0  0  0
 51 26  1  0  0  0  0
 52 51  1  0  0  0  0
 53 51  2  0  0  0  0
 53 63  1  0  0  0  0
 54 53  1  0  0  0  0
 55 21  1  0  0  0  0
 55 56  1  0  0  0  0
 57 47  2  0  0  0  0
 58 57  1  0  0  0  0
 59  7  1  0  0  0  0
 59 61  1  0  0  0  0
 60 59  1  0  0  0  0
 62 59  1  0  0  0  0
 63 55  2  0  0  0  0
 64 63  1  0  0  0  0
M  END
$$$$
