CSD_code = ZIPWUT | q = 0 | S = 0 | Stoichiometry = C29H31BrN6Zn | MND = 5
 OpenBabel04212202133D

 68 76  0  0  1  0  0  0  0  0999 V2000
    1.7228   11.8669    5.4809 Br  0  0  0  0  0  0  0  0  0  0  0  0
    3.3316   11.5392    7.1294 Zn  0  0  0  0  0  0  0  0  0  0  0  0
    3.9226   14.7218    7.9272 N   0  0  0  0  0  0  0  0  0  0  0  0
    2.7161   12.7746    8.5897 N   0  0  0  0  0  0  0  0  0  0  0  0
    2.5796    9.9922    8.1683 N   0  0  0  0  0  0  0  0  0  0  0  0
    3.6062    8.2217    6.9450 N   0  0  0  0  0  0  0  0  0  0  0  0
    4.7942   10.2164    6.5664 N   0  0  0  0  0  0  0  0  0  0  0  0
    4.9210   12.8241    6.9601 N   0  0  0  0  0  0  0  0  0  0  0  0
    2.9231   14.1131    8.4643 C   0  0  0  0  0  0  0  0  0  0  0  0
    1.7484   14.8827    9.0287 C   0  0  0  0  0  0  0  0  0  0  0  0
    1.1173   13.8160    9.9680 C   0  0  0  0  0  0  0  0  0  0  0  0
    1.6378   12.5397    9.3317 C   0  0  2  0  0  3  0  0  0  0  0  0
    1.0819   11.2851    9.5353 C   0  0  0  0  0  0  0  0  0  0  0  0
    0.2125   11.2314   10.1711 H   0  0  0  0  0  0  0  0  0  0  0  0
    1.5170   10.0997    8.9604 C   0  0  0  0  0  0  0  0  0  0  0  0
    0.8650    8.7491    9.1962 C   0  0  0  0  0  0  0  0  0  0  0  0
    1.4091    7.9505    7.9778 C   0  0  0  0  0  0  0  0  0  0  0  0
    2.6603    8.7369    7.6506 C   0  0  0  0  0  0  0  0  0  0  0  0
    4.7052    8.8924    6.5172 C   0  0  0  0  0  0  0  0  0  0  0  0
    5.9116   10.8361    6.1630 C   0  0  0  0  0  0  0  0  0  0  0  0
    5.9800   12.2478    6.3756 C   0  0  0  0  0  0  0  0  0  0  0  0
    4.9584   14.1063    7.3035 C   0  0  0  0  0  0  0  0  0  0  0  0
    2.1552   16.1975    9.6814 C   0  0  0  0  0  0  0  0  0  0  0  0
    2.9077   16.0499   10.4502 H   0  0  0  0  0  0  0  0  0  0  0  0
    1.2870   16.6856   10.1194 H   0  0  0  0  0  0  0  0  0  0  0  0
    2.5783   16.8495    8.9227 H   0  0  0  0  0  0  0  0  0  0  0  0
    0.8471   15.1810    7.8183 C   0  0  0  0  0  0  0  0  0  0  0  0
    1.4048   15.7805    7.1026 H   0  0  0  0  0  0  0  0  0  0  0  0
   -0.0355   15.7369    8.1230 H   0  0  0  0  0  0  0  0  0  0  0  0
    0.5390   14.2658    7.3170 H   0  0  0  0  0  0  0  0  0  0  0  0
    1.7260   13.8717   11.3791 C   0  0  0  0  0  0  0  0  0  0  0  0
    1.4021   14.7702   11.8977 H   0  0  0  0  0  0  0  0  0  0  0  0
    2.8131   13.8581   11.3339 H   0  0  0  0  0  0  0  0  0  0  0  0
    1.3999   13.0060   11.9531 H   0  0  0  0  0  0  0  0  0  0  0  0
   -0.4029   13.8829   10.0781 C   0  0  0  0  0  0  0  0  0  0  0  0
   -0.8819   13.6072    9.1432 H   0  0  0  0  0  0  0  0  0  0  0  0
   -0.7082   14.8918   10.3467 H   0  0  0  0  0  0  0  0  0  0  0  0
   -0.7561   13.2106   10.8569 H   0  0  0  0  0  0  0  0  0  0  0  0
   -0.6566    8.8012    9.2960 C   0  0  0  0  0  0  0  0  0  0  0  0
   -0.9589    9.2463   10.2413 H   0  0  0  0  0  0  0  0  0  0  0  0
   -1.0625    7.7928    9.2588 H   0  0  0  0  0  0  0  0  0  0  0  0
   -1.0883    9.3847    8.4882 H   0  0  0  0  0  0  0  0  0  0  0  0
    1.4373    8.2215   10.5223 C   0  0  0  0  0  0  0  0  0  0  0  0
    1.1860    8.9083   11.3287 H   0  0  0  0  0  0  0  0  0  0  0  0
    2.5213    8.1399   10.4725 H   0  0  0  0  0  0  0  0  0  0  0  0
    1.0171    7.2470   10.7568 H   0  0  0  0  0  0  0  0  0  0  0  0
    0.5048    8.1063    6.7432 C   0  0  0  0  0  0  0  0  0  0  0  0
    0.2941    9.1531    6.5341 H   0  0  0  0  0  0  0  0  0  0  0  0
   -0.4320    7.5734    6.8821 H   0  0  0  0  0  0  0  0  0  0  0  0
    1.0152    7.6906    5.8776 H   0  0  0  0  0  0  0  0  0  0  0  0
    1.6800    6.4698    8.2113 C   0  0  0  0  0  0  0  0  0  0  0  0
    2.0526    6.0317    7.2898 H   0  0  0  0  0  0  0  0  0  0  0  0
    0.7627    5.9591    8.4969 H   0  0  0  0  0  0  0  0  0  0  0  0
    2.4301    6.3137    8.9807 H   0  0  0  0  0  0  0  0  0  0  0  0
    5.7701    8.1275    5.9701 C   0  0  0  0  0  0  0  0  0  0  0  0
    5.6506    7.0572    5.9283 H   0  0  0  0  0  0  0  0  0  0  0  0
    6.8979    8.7506    5.5189 C   0  0  0  0  0  0  0  0  0  0  0  0
    7.7141    8.1821    5.0954 H   0  0  0  0  0  0  0  0  0  0  0  0
    7.0146   10.1551    5.6207 C   0  0  0  0  0  0  0  0  0  0  0  0
    8.1642   10.9010    5.2420 C   0  0  0  0  0  0  0  0  0  0  0  0
    8.9955   10.3695    4.8025 H   0  0  0  0  0  0  0  0  0  0  0  0
    8.2290   12.2439    5.4437 C   0  0  0  0  0  0  0  0  0  0  0  0
    9.1129   12.8001    5.1675 H   0  0  0  0  0  0  0  0  0  0  0  0
    7.1497   12.9508    6.0410 C   0  0  0  0  0  0  0  0  0  0  0  0
    7.1675   14.3278    6.3573 C   0  0  0  0  0  0  0  0  0  0  0  0
    8.0392   14.9161    6.1068 H   0  0  0  0  0  0  0  0  0  0  0  0
    6.0978   14.8944    6.9885 C   0  0  0  0  0  0  0  0  0  0  0  0
    6.0803   15.9361    7.2643 H   0  0  0  0  0  0  0  0  0  0  0  0
  1  2  1  0  0  0  0
  2  5  1  0  0  0  0
  2  4  1  0  0  0  0
  3  9  2  0  0  0  0
  4 12  1  0  0  0  0
  5 15  1  0  0  0  0
  6 18  2  0  0  0  0
  7  2  1  0  0  0  0
  8  2  1  0  0  0  0
  8 22  1  0  0  0  0
  9  4  1  0  0  0  0
  9 10  1  0  0  0  0
 10 23  1  0  0  0  0
 10 11  1  0  0  0  0
 11 35  1  0  0  0  0
 11 31  1  0  0  0  0
 12 13  1  1  0  0  0
 12 11  1  0  0  0  0
 13 14  1  0  0  0  0
 15 16  1  0  0  0  0
 15 13  2  0  0  0  0
 16 39  1  0  0  0  0
 16 43  1  0  0  0  0
 17 51  1  0  0  0  0
 17 16  1  0  0  0  0
 18 17  1  0  0  0  0
 18  5  1  0  0  0  0
 19  7  1  0  0  0  0
 19  6  1  0  0  0  0
 20 21  2  0  0  0  0
 20  7  1  0  0  0  0
 21  8  1  0  0  0  0
 22  3  1  0  0  0  0
 23 25  1  0  0  0  0
 23 24  1  0  0  0  0
 26 23  1  0  0  0  0
 27 29  1  0  0  0  0
 27 10  1  0  0  0  0
 28 27  1  0  0  0  0
 30 27  1  0  0  0  0
 31 32  1  0  0  0  0
 31 34  1  0  0  0  0
 33 31  1  0  0  0  0
 35 37  1  0  0  0  0
 35 38  1  0  0  0  0
 36 35  1  0  0  0  0
 39 40  1  0  0  0  0
 41 39  1  0  0  0  0
 42 39  1  0  0  0  0
 43 46  1  0  0  0  0
 43 44  1  0  0  0  0
 45 43  1  0  0  0  0
 47 49  1  0  0  0  0
 47 17  1  0  0  0  0
 48 47  1  0  0  0  0
 50 47  1  0  0  0  0
 51 53  1  0  0  0  0
 51 54  1  0  0  0  0
 52 51  1  0  0  0  0
 55 19  2  0  0  0  0
 56 55  1  0  0  0  0
 57 59  2  0  0  0  0
 57 55  1  0  0  0  0
 58 57  1  0  0  0  0
 59 20  1  0  0  0  0
 60 62  2  0  0  0  0
 60 59  1  0  0  0  0
 61 60  1  0  0  0  0
 62 64  1  0  0  0  0
 63 62  1  0  0  0  0
 64 65  2  0  0  0  0
 64 21  1  0  0  0  0
 65 67  1  0  0  0  0
 66 65  1  0  0  0  0
 67 68  1  0  0  0  0
 67 22  2  0  0  0  0
M  END
$$$$
