CSD_code = ZIRJOZ | q = 0 | S = 0 | Stoichiometry = C30H31Cl2OPRuS2 | MND = 6
 OpenBabel04212202133D

 68 73  0  0  0  0  0  0  0  0999 V2000
   -1.8583    5.7312   12.3037 Ru  0  0  0  0  0  0  0  0  0  0  0  0
    0.0266    5.8697   10.8658 Cl  0  0  0  0  0  0  0  0  0  0  0  0
   -1.0096    4.0825   13.7865 Cl  0  0  0  0  0  0  0  0  0  0  0  0
   -2.5363    7.5524   11.0140 S   0  0  1  0  0  3  0  0  0  0  0  0
   -3.4894    5.7077   13.9830 S   0  0  1  0  0  3  0  0  0  0  0  0
   -2.5551    3.9696   11.0575 P   0  0  0  0  0  4  0  0  0  0  0  0
   -1.0010    7.3888   13.5856 O   0  0  0  0  0  0  0  0  0  0  0  0
   -4.9153    8.1819   13.7283 C   0  0  0  0  0  0  0  0  0  0  0  0
   -5.1416    8.9745   14.8518 C   0  0  0  0  0  0  0  0  0  0  0  0
   -5.0621   10.3535   14.7950 C   0  0  0  0  0  0  0  0  0  0  0  0
   -4.7776   10.9707   13.5896 C   0  0  0  0  0  0  0  0  0  0  0  0
   -4.5637   10.1982   12.4627 C   0  0  0  0  0  0  0  0  0  0  0  0
   -4.6138    8.8043   12.5092 C   0  0  0  0  0  0  0  0  0  0  0  0
   -4.3168    8.0567   11.2591 C   0  0  0  0  0  0  0  0  0  0  0  0
   -1.6040    8.9447   11.7818 C   0  0  0  0  0  0  0  0  0  0  0  0
   -0.5311    8.4122   12.7336 C   0  0  0  0  0  0  0  0  0  0  0  0
   -1.8034    7.8252   14.6671 C   0  0  0  0  0  0  0  0  0  0  0  0
   -2.5470    6.6313   15.2449 C   0  0  0  0  0  0  0  0  0  0  0  0
   -5.0488    6.7065   13.8724 C   0  0  0  0  0  0  0  0  0  0  0  0
   -3.5969    4.4602    9.6441 C   0  0  0  0  0  0  0  0  0  0  0  0
   -4.8894    4.0158    9.3961 C   0  0  0  0  0  0  0  0  0  0  0  0
   -5.5827    4.4926    8.2954 C   0  0  0  0  0  0  0  0  0  0  0  0
   -4.9921    5.4042    7.4370 C   0  0  0  0  0  0  0  0  0  0  0  0
   -3.6944    5.8348    7.6699 C   0  0  0  0  0  0  0  0  0  0  0  0
   -3.0001    5.3671    8.7684 C   0  0  0  0  0  0  0  0  0  0  0  0
   -1.3250    2.9097   10.2369 C   0  0  0  0  0  0  0  0  0  0  0  0
   -1.6398    2.2660    9.0428 C   0  0  0  0  0  0  0  0  0  0  0  0
   -0.7119    1.4366    8.4403 C   0  0  0  0  0  0  0  0  0  0  0  0
    0.5304    1.2420    9.0217 C   0  0  0  0  0  0  0  0  0  0  0  0
    0.8420    1.8731   10.2142 C   0  0  0  0  0  0  0  0  0  0  0  0
   -0.0810    2.7032   10.8243 C   0  0  0  0  0  0  0  0  0  0  0  0
   -3.5490    2.7652   11.9903 C   0  0  0  0  0  0  0  0  0  0  0  0
   -3.0769    1.4911   12.2811 C   0  0  0  0  0  0  0  0  0  0  0  0
   -3.8316    0.6368   13.0658 C   0  0  0  0  0  0  0  0  0  0  0  0
   -5.0565    1.0437   13.5662 C   0  0  0  0  0  0  0  0  0  0  0  0
   -5.5291    2.3161   13.2864 C   0  0  0  0  0  0  0  0  0  0  0  0
   -4.7756    3.1728   12.5084 C   0  0  0  0  0  0  0  0  0  0  0  0
   -5.3912    8.4958   15.7881 H   0  0  0  0  0  0  0  0  0  0  0  0
   -5.2338   10.9412   15.6835 H   0  0  0  0  0  0  0  0  0  0  0  0
   -4.7261   12.0466   13.5237 H   0  0  0  0  0  0  0  0  0  0  0  0
   -4.3636   10.6811   11.5162 H   0  0  0  0  0  0  0  0  0  0  0  0
   -4.5500    8.6640   10.3846 H   0  0  0  0  0  0  0  0  0  0  0  0
   -4.8439    7.1065   11.1840 H   0  0  0  0  0  0  0  0  0  0  0  0
   -1.1314    9.4868   10.9643 H   0  0  0  0  0  0  0  0  0  0  0  0
   -2.3193    9.5927   12.2872 H   0  0  0  0  0  0  0  0  0  0  0  0
   -0.1172    9.2375   13.3303 H   0  0  0  0  0  0  0  0  0  0  0  0
    0.2684    7.9401   12.1489 H   0  0  0  0  0  0  0  0  0  0  0  0
   -1.1496    8.2591   15.4413 H   0  0  0  0  0  0  0  0  0  0  0  0
   -2.5139    8.5980   14.3442 H   0  0  0  0  0  0  0  0  0  0  0  0
   -3.2272    6.9326   16.0391 H   0  0  0  0  0  0  0  0  0  0  0  0
   -1.8330    5.8894   15.6109 H   0  0  0  0  0  0  0  0  0  0  0  0
   -5.5747    6.2658   13.0258 H   0  0  0  0  0  0  0  0  0  0  0  0
   -5.5895    6.4619   14.7869 H   0  0  0  0  0  0  0  0  0  0  0  0
   -5.3492    3.2880   10.0494 H   0  0  0  0  0  0  0  0  0  0  0  0
   -6.5880    4.1442    8.1055 H   0  0  0  0  0  0  0  0  0  0  0  0
   -5.5397    5.7717    6.5813 H   0  0  0  0  0  0  0  0  0  0  0  0
   -3.2260    6.5335    6.9925 H   0  0  0  0  0  0  0  0  0  0  0  0
   -1.9822    5.6850    8.9609 H   0  0  0  0  0  0  0  0  0  0  0  0
   -2.6074    2.4169    8.5844 H   0  0  0  0  0  0  0  0  0  0  0  0
   -0.9592    0.9425    7.5114 H   0  0  0  0  0  0  0  0  0  0  0  0
    1.2546    0.5982    8.5434 H   0  0  0  0  0  0  0  0  0  0  0  0
    1.8092    1.7228   10.6705 H   0  0  0  0  0  0  0  0  0  0  0  0
    0.1608    3.1979   11.7539 H   0  0  0  0  0  0  0  0  0  0  0  0
   -2.1156    1.1758   11.9032 H   0  0  0  0  0  0  0  0  0  0  0  0
   -3.4572   -0.3505   13.2932 H   0  0  0  0  0  0  0  0  0  0  0  0
   -5.6404    0.3744   14.1810 H   0  0  0  0  0  0  0  0  0  0  0  0
   -6.4817    2.6399   13.6813 H   0  0  0  0  0  0  0  0  0  0  0  0
   -5.1313    4.1721   12.2920 H   0  0  0  0  0  0  0  0  0  0  0  0
  1  3  1  0  0  0  0
  1  5  1  0  0  0  0
  2  1  1  0  0  0  0
  4 14  1  1  0  0  0
  4 15  1  0  0  0  0
  4  1  1  0  0  0  0
  5 19  1  6  0  0  0
  5 18  1  0  0  0  0
  6 32  1  0  0  0  0
  6  1  1  0  0  0  0
  7 17  1  0  0  0  0
  8 19  1  0  0  0  0
  8  9  1  0  0  0  0
  9 38  1  0  0  0  0
 10  9  2  0  0  0  0
 10 39  1  0  0  0  0
 11 10  1  0  0  0  0
 12 13  1  0  0  0  0
 12 11  2  0  0  0  0
 13  8  2  0  0  0  0
 14 13  1  0  0  0  0
 15 45  1  0  0  0  0
 15 16  1  0  0  0  0
 16 46  1  0  0  0  0
 16  7  1  0  0  0  0
 17 18  1  0  0  0  0
 17 48  1  0  0  0  0
 18 51  1  0  0  0  0
 18 50  1  0  0  0  0
 19 53  1  0  0  0  0
 20  6  1  0  0  0  0
 21 20  1  0  0  0  0
 21 54  1  0  0  0  0
 22 21  2  0  0  0  0
 23 24  2  0  0  0  0
 23 22  1  0  0  0  0
 24 25  1  0  0  0  0
 25 58  1  0  0  0  0
 25 20  2  0  0  0  0
 26 31  1  0  0  0  0
 26  6  1  0  0  0  0
 27 26  2  0  0  0  0
 28 29  2  0  0  0  0
 28 27  1  0  0  0  0
 29 30  1  0  0  0  0
 30 62  1  0  0  0  0
 30 31  2  0  0  0  0
 31 63  1  0  0  0  0
 32 33  2  0  0  0  0
 32 37  1  0  0  0  0
 33 34  1  0  0  0  0
 34 65  1  0  0  0  0
 34 35  2  0  0  0  0
 35 66  1  0  0  0  0
 36 35  1  0  0  0  0
 36 67  1  0  0  0  0
 37 36  2  0  0  0  0
 40 11  1  0  0  0  0
 41 12  1  0  0  0  0
 42 14  1  0  0  0  0
 43 14  1  0  0  0  0
 44 15  1  0  0  0  0
 47 16  1  0  0  0  0
 49 17  1  0  0  0  0
 52 19  1  0  0  0  0
 55 22  1  0  0  0  0
 56 23  1  0  0  0  0
 57 24  1  0  0  0  0
 59 27  1  0  0  0  0
 60 28  1  0  0  0  0
 61 29  1  0  0  0  0
 64 33  1  0  0  0  0
 68 37  1  0  0  0  0
M  END
$$$$
