CSD_code = ZIRRUN | q = 0 | S = 0 | Stoichiometry = C25H24ClNOZr | MND = 12
 OpenBabel04212202133D

 53 56  0  0  1  0  0  0  0  0999 V2000
   -4.6429   -2.7370   -1.4020 Zr  0  0  2  0  0  0  0  0  0  0  0  0
   -6.9349   -2.1913   -1.5817 Cl  0  0  0  0  0  0  0  0  0  0  0  0
   -4.6263   -2.5106    0.4601 O   0  0  0  0  0  0  0  0  0  0  0  0
   -3.2992   -3.8544    1.7744 N   0  0  0  0  0  0  0  0  0  0  0  0
   -4.3539   -1.0869   -3.2867 C   0  0  0  0  0  0  0  0  0  0  0  0
   -3.1209   -1.7554   -3.1490 C   0  0  0  0  0  0  0  0  0  0  0  0
   -2.5874   -1.4428   -1.8753 C   0  0  1  0  0  0  0  0  0  0  0  0
   -3.4765   -0.5332   -1.2493 C   0  0  0  0  0  0  0  0  0  0  0  0
   -4.5663   -0.3220   -2.1162 C   0  0  0  0  0  0  0  0  0  0  0  0
   -5.3246   -5.1125   -1.1811 C   0  0  0  0  0  0  0  0  0  0  0  0
   -3.9134   -5.0787   -1.0519 C   0  0  1  0  0  0  0  0  0  0  0  0
   -3.3717   -4.6961   -2.3000 C   0  0  0  0  0  0  0  0  0  0  0  0
   -4.4457   -4.5017   -3.2005 C   0  0  0  0  0  0  0  0  0  0  0  0
   -5.6453   -4.7673   -2.5132 C   0  0  0  0  0  0  0  0  0  0  0  0
   -2.1866   -3.0905    1.3866 C   0  0  0  0  0  0  0  0  0  0  0  0
   -1.0813   -3.7000    0.7876 C   0  0  0  0  0  0  0  0  0  0  0  0
    0.0244   -2.9472    0.4405 C   0  0  0  0  0  0  0  0  0  0  0  0
    0.0448   -1.5805    0.6719 C   0  0  0  0  0  0  0  0  0  0  0  0
   -1.0529   -0.9693    1.2564 C   0  0  0  0  0  0  0  0  0  0  0  0
   -2.1628   -1.7129    1.6127 C   0  0  0  0  0  0  0  0  0  0  0  0
   -3.1102   -5.0611    2.4569 C   0  0  0  0  0  0  0  0  0  0  0  0
   -4.0004   -6.1267    2.3133 C   0  0  0  0  0  0  0  0  0  0  0  0
   -3.7829   -7.3140    2.9848 C   0  0  0  0  0  0  0  0  0  0  0  0
   -2.6791   -7.4678    3.8074 C   0  0  0  0  0  0  0  0  0  0  0  0
   -1.7931   -6.4142    3.9570 C   0  0  0  0  0  0  0  0  0  0  0  0
   -2.0043   -5.2211    3.2937 C   0  0  0  0  0  0  0  0  0  0  0  0
   -4.5888   -3.3069    1.5267 C   0  0  0  0  0  0  0  0  0  0  0  0
   -5.6434   -3.5414    2.3200 C   0  0  0  0  0  0  0  0  0  0  0  0
   -7.0088   -3.0182    2.0062 C   0  0  0  0  0  0  0  0  0  0  0  0
   -4.9725   -1.0598   -4.1766 H   0  0  0  0  0  0  0  0  0  0  0  0
   -2.6021   -2.2953   -3.9316 H   0  0  0  0  0  0  0  0  0  0  0  0
   -1.5964   -1.7031   -1.5231 H   0  0  0  0  0  0  0  0  0  0  0  0
   -3.3016   -0.0090   -0.3188 H   0  0  0  0  0  0  0  0  0  0  0  0
   -5.3807    0.3743   -1.9546 H   0  0  0  0  0  0  0  0  0  0  0  0
   -6.0342   -5.4517   -0.4339 H   0  0  0  0  0  0  0  0  0  0  0  0
   -3.3447   -5.4632   -0.2169 H   0  0  0  0  0  0  0  0  0  0  0  0
   -2.3178   -4.7020   -2.5534 H   0  0  0  0  0  0  0  0  0  0  0  0
   -4.3599   -4.3276   -4.2665 H   0  0  0  0  0  0  0  0  0  0  0  0
   -6.6365   -4.7904   -2.9492 H   0  0  0  0  0  0  0  0  0  0  0  0
   -1.0827   -4.7682    0.6237 H   0  0  0  0  0  0  0  0  0  0  0  0
    0.8764   -3.4307   -0.0148 H   0  0  0  0  0  0  0  0  0  0  0  0
    0.9120   -0.9971    0.4028 H   0  0  0  0  0  0  0  0  0  0  0  0
   -1.0361    0.0931    1.4502 H   0  0  0  0  0  0  0  0  0  0  0  0
   -3.0085   -1.2436    2.0954 H   0  0  0  0  0  0  0  0  0  0  0  0
   -4.8636   -6.0182    1.6753 H   0  0  0  0  0  0  0  0  0  0  0  0
   -4.4801   -8.1290    2.8584 H   0  0  0  0  0  0  0  0  0  0  0  0
   -2.5133   -8.3980    4.3288 H   0  0  0  0  0  0  0  0  0  0  0  0
   -0.9334   -6.5172    4.6024 H   0  0  0  0  0  0  0  0  0  0  0  0
   -1.3145   -4.4005    3.4241 H   0  0  0  0  0  0  0  0  0  0  0  0
   -5.5227   -4.1323    3.2144 H   0  0  0  0  0  0  0  0  0  0  0  0
   -7.0020   -2.5094    1.0407 H   0  0  0  0  0  0  0  0  0  0  0  0
   -7.3379   -2.3156    2.7724 H   0  0  0  0  0  0  0  0  0  0  0  0
   -7.7330   -3.8330    1.9741 H   0  0  0  0  0  0  0  0  0  0  0  0
  1  2  1  6  0  0  0
  1 11  1  0  0  0  0
  1  3  1  0  0  0  0
  3 27  1  0  0  0  0
  4 21  1  0  0  0  0
  5  6  2  0  0  0  0
  5  9  1  0  0  0  0
  6  7  1  0  0  0  0
  7 32  1  1  0  0  0
  7  1  1  0  0  0  0
  7  8  1  0  0  0  0
  8 33  1  0  0  0  0
  9 34  1  0  0  0  0
  9  8  2  0  0  0  0
 10 11  1  0  0  0  0
 10 35  1  0  0  0  0
 11 36  1  1  0  0  0
 12 11  1  0  0  0  0
 13 14  1  0  0  0  0
 13 12  2  0  0  0  0
 14 10  2  0  0  0  0
 15 20  1  0  0  0  0
 15  4  1  0  0  0  0
 16 15  2  0  0  0  0
 17 18  2  0  0  0  0
 17 16  1  0  0  0  0
 18 19  1  0  0  0  0
 19 43  1  0  0  0  0
 19 20  2  0  0  0  0
 20 44  1  0  0  0  0
 21 26  1  0  0  0  0
 22 21  2  0  0  0  0
 22 23  1  0  0  0  0
 23 24  2  0  0  0  0
 24 25  1  0  0  0  0
 24 47  1  0  0  0  0
 25 48  1  0  0  0  0
 26 49  1  0  0  0  0
 26 25  2  0  0  0  0
 27  4  1  0  0  0  0
 27 28  2  0  0  0  0
 28 50  1  0  0  0  0
 29 28  1  0  0  0  0
 29 52  1  0  0  0  0
 30  5  1  0  0  0  0
 31  6  1  0  0  0  0
 37 12  1  0  0  0  0
 38 13  1  0  0  0  0
 39 14  1  0  0  0  0
 40 16  1  0  0  0  0
 41 17  1  0  0  0  0
 42 18  1  0  0  0  0
 45 22  1  0  0  0  0
 46 23  1  0  0  0  0
 51 29  1  0  0  0  0
 53 29  1  0  0  0  0
M  END
$$$$
