CSD_code = ZIRVED | q = 1 | S = 0 | Stoichiometry = C18H13ClN4O3Re(1+) | MND = 6
 OpenBabel04212202133D

 40 44  0  0  0  0  0  0  0  0999 V2000
    3.1616    1.8897   11.0002 Re  0  0  0  0  0  0  0  0  0  0  0  0
    1.5325    1.2067    9.3814 Cl  0  0  0  0  0  0  0  0  0  0  0  0
    1.9536    3.3241   11.5698 C   0  0  0  0  0  2  0  0  0  0  0  0
    1.3041   -1.8661   11.6767 C   0  0  0  0  0  0  0  0  0  0  0  0
    3.4293   -2.1334    9.6685 C   0  0  0  0  0  0  0  0  0  0  0  0
    1.4219   -3.0118   10.8290 C   0  0  0  0  0  0  0  0  0  0  0  0
    4.5257   -2.1988    8.7997 C   0  0  0  0  0  0  0  0  0  0  0  0
    4.7275   -3.0726    8.2068 H   0  0  0  0  0  0  0  0  0  0  0  0
    0.3861   -1.6804   12.7178 C   0  0  0  0  0  0  0  0  0  0  0  0
   -0.3263   -2.4392   12.9871 H   0  0  0  0  0  0  0  0  0  0  0  0
    2.2292   -4.3401    9.2361 N   0  0  0  0  0  0  0  0  0  0  0  0
    2.1754    0.3618   12.0702 N   0  0  0  0  0  0  0  0  0  0  0  0
    5.2968    2.4897   13.1548 O   0  0  0  0  0  1  0  0  0  0  0  0
    0.6377   -4.1367   10.7299 N   0  0  0  0  0  0  0  0  0  0  0  0
    4.0645    0.1271   10.2721 N   0  0  0  0  0  0  0  0  0  0  0  0
    4.3580    3.6811    8.7811 O   0  0  0  0  0  1  0  0  0  0  0  0
    1.1537    4.0821   11.8537 O   0  0  0  0  0  1  0  0  0  0  0  0
    2.4356   -3.1407    9.8757 C   0  0  0  0  0  0  0  0  0  0  0  0
    2.2087   -0.8121   11.3989 C   0  0  0  0  0  0  0  0  0  0  0  0
    5.1020    0.0290    9.4574 C   0  0  0  0  0  0  0  0  0  0  0  0
    5.7436    0.8974    9.3843 H   0  0  0  0  0  0  0  0  0  0  0  0
    3.2482   -0.9421   10.4133 C   0  0  0  0  0  0  0  0  0  0  0  0
    2.9811   -4.9264    8.1580 C   0  0  0  0  0  0  0  0  0  0  0  0
    2.4904   -5.8446    7.8402 H   0  0  0  0  0  0  0  0  0  0  0  0
    3.9933   -5.1685    8.4849 H   0  0  0  0  0  0  0  0  0  0  0  0
    3.0227   -4.2412    7.3107 H   0  0  0  0  0  0  0  0  0  0  0  0
    1.3104    0.5004   13.0613 C   0  0  0  0  0  0  0  0  0  0  0  0
    1.3263    1.4451   13.5888 H   0  0  0  0  0  0  0  0  0  0  0  0
    4.5067    2.2912   12.3541 C   0  0  0  0  0  2  0  0  0  0  0  0
    0.4097   -0.4947   13.4230 C   0  0  0  0  0  0  0  0  0  0  0  0
   -0.2765   -0.3245   14.2359 H   0  0  0  0  0  0  0  0  0  0  0  0
    1.1488   -4.9027    9.7702 C   0  0  0  0  0  3  0  0  0  0  0  0
    0.7398   -5.8462    9.4630 H   0  0  0  0  0  0  0  0  0  0  0  0
   -0.5523   -4.4718   11.4667 C   0  0  0  0  0  0  0  0  0  0  0  0
   -0.9738   -5.3906   11.0628 H   0  0  0  0  0  0  0  0  0  0  0  0
   -1.2917   -3.6762   11.3701 H   0  0  0  0  0  0  0  0  0  0  0  0
   -0.3188   -4.6304   12.5204 H   0  0  0  0  0  0  0  0  0  0  0  0
    3.9538    3.0742    9.6547 C   0  0  0  0  0  2  0  0  0  0  0  0
    5.3739   -1.1138    8.7145 C   0  0  0  0  0  0  0  0  0  0  0  0
    6.2311   -1.1359    8.0622 H   0  0  0  0  0  0  0  0  0  0  0  0
  1  3  1  0  0  0  0
  1 12  1  0  0  0  0
  1 29  1  0  0  0  0
  2  1  1  0  0  0  0
  3 17  1  0  0  0  0
  4  9  2  0  0  0  0
  5 18  1  0  0  0  0
  5 22  1  0  0  0  0
  6  4  1  0  0  0  0
  7  5  2  0  0  0  0
  8  7  1  0  0  0  0
  9 10  1  0  0  0  0
  9 30  1  0  0  0  0
 11 32  1  0  0  0  0
 11 18  1  0  0  0  0
 12 27  1  0  0  0  0
 14  6  1  0  0  0  0
 14 34  1  0  0  0  0
 15 22  1  0  0  0  0
 15  1  1  0  0  0  0
 16 38  1  0  0  0  0
 18  6  2  0  0  0  0
 19  4  1  0  0  0  0
 19 12  1  0  0  0  0
 20 15  1  0  0  0  0
 21 20  1  0  0  0  0
 22 19  2  0  0  0  0
 23 25  1  0  0  0  0
 23 11  1  0  0  0  0
 24 23  1  0  0  0  0
 26 23  1  0  0  0  0
 27 30  2  0  0  0  0
 27 28  1  0  0  0  0
 29 13  1  0  0  0  0
 30 31  1  0  0  0  0
 32 14  1  0  0  0  0
 33 32  1  0  0  0  0
 34 37  1  0  0  0  0
 35 34  1  0  0  0  0
 36 34  1  0  0  0  0
 38  1  1  0  0  0  0
 39  7  1  0  0  0  0
 39 20  2  0  0  0  0
 40 39  1  0  0  0  0
M  END
$$$$
