CSD_code = ZIRXAC | q = 0 | S = 0 | Stoichiometry = C13H8BrMnN2O4 | MND = 6
 OpenBabel04212202133D

 29 31  0  0  0  0  0  0  0  0999 V2000
    0.0426    3.2839   10.5747 Mn  0  0  0  0  0  0  0  0  0  0  0  0
   -1.9022    4.5439    9.6929 Br  0  0  0  0  0  0  0  0  0  0  0  0
   -0.3187    1.8681    9.2631 N   0  0  0  0  0  0  0  0  0  0  0  0
   -0.6282    0.5563    9.6244 O   0  0  0  0  0  0  0  0  0  0  0  0
   -0.6962    0.4938   10.5906 H   0  0  0  0  0  0  0  0  0  0  0  0
   -0.3847    2.0157    7.9915 C   0  0  0  0  0  3  0  0  0  0  0  0
   -0.7195    1.1541    7.4155 H   0  0  0  0  0  0  0  0  0  0  0  0
   -0.0492    3.1944    7.2349 C   0  0  0  0  0  0  0  0  0  0  0  0
   -0.4882    3.2460    5.9211 C   0  0  0  0  0  0  0  0  0  0  0  0
   -1.1162    2.4496    5.5508 H   0  0  0  0  0  0  0  0  0  0  0  0
   -0.1552    4.3008    5.0730 C   0  0  0  0  0  0  0  0  0  0  0  0
   -0.5439    4.3179    4.0669 H   0  0  0  0  0  0  0  0  0  0  0  0
    0.6816    5.2892    5.5135 C   0  0  0  0  0  3  0  0  0  0  0  0
    0.9806    6.0979    4.8640 H   0  0  0  0  0  0  0  0  0  0  0  0
    1.1794    5.2697    6.8322 C   0  0  0  0  0  0  0  0  0  0  0  0
    2.0773    6.2532    7.2892 C   0  0  0  0  0  0  0  0  0  0  0  0
    2.3787    7.0463    6.6215 H   0  0  0  0  0  0  0  0  0  0  0  0
    2.5557    6.1710    8.5680 C   0  0  0  0  0  0  0  0  0  0  0  0
    3.2672    6.8817    8.9562 H   0  0  0  0  0  0  0  0  0  0  0  0
    2.0746    5.1588    9.4028 C   0  0  0  0  0  0  0  0  0  0  0  0
    2.4316    5.1095   10.4251 H   0  0  0  0  0  0  0  0  0  0  0  0
    1.1892    4.2510    9.0311 N   0  0  0  0  0  0  0  0  0  0  0  0
    0.7757    4.2464    7.7375 C   0  0  0  0  0  0  0  0  0  0  0  0
   -1.0209    2.5870   11.8269 C   0  0  0  0  0  2  0  0  0  0  0  0
   -1.6973    2.1967   12.6704 O   0  0  0  0  0  1  0  0  0  0  0  0
    0.2125    4.6841   11.6814 C   0  0  0  0  0  2  0  0  0  0  0  0
    0.2344    5.5701   12.4072 O   0  0  0  0  0  1  0  0  0  0  0  0
    1.4783    2.4626   11.2280 C   0  0  0  0  0  2  0  0  0  0  0  0
    2.3906    1.9478   11.7034 O   0  0  0  0  0  1  0  0  0  0  0  0
  1 28  1  0  0  0  0
  1 26  1  0  0  0  0
  1 24  1  0  0  0  0
  2  1  1  0  0  0  0
  3  4  1  0  0  0  0
  3  1  1  0  0  0  0
  4  5  1  0  0  0  0
  6  3  1  0  0  0  0
  7  6  1  0  0  0  0
  8 23  2  0  0  0  0
  8  6  1  0  0  0  0
  9  8  1  0  0  0  0
 10  9  1  0  0  0  0
 11 13  1  0  0  0  0
 11  9  2  0  0  0  0
 12 11  1  0  0  0  0
 13 15  1  0  0  0  0
 14 13  1  0  0  0  0
 15 16  2  0  0  0  0
 15 23  1  0  0  0  0
 16 18  1  0  0  0  0
 17 16  1  0  0  0  0
 18 19  1  0  0  0  0
 18 20  2  0  0  0  0
 20 21  1  0  0  0  0
 22 20  1  0  0  0  0
 22  1  1  0  0  0  0
 23 22  1  0  0  0  0
 24 25  1  0  0  0  0
 26 27  1  0  0  0  0
 28 29  1  0  0  0  0
M  END
$$$$
