CSD_code = ZIRXOQ | q = 0 | S = 0 | Stoichiometry = C14H7ClF3N2O3Re | MND = 6
 OpenBabel04212202133D

 31 33  0  0  1  0  0  0  0  0999 V2000
    5.1499    8.8296   10.5157 Cl  0  0  0  0  0  0  0  0  0  0  0  0
    3.6058    9.2454    8.7744 Re  0  0  0  0  0  0  0  0  0  0  0  0
    4.6993    7.8509    7.7282 N   0  0  0  0  0  0  0  0  0  0  0  0
    5.0952    8.1035    6.8177 H   0  0  0  0  0  0  0  0  0  0  0  0
    5.0847    6.7032    8.1534 C   0  0  2  0  0  3  0  0  0  0  0  0
    6.0302    5.8972    7.2609 C   0  0  0  0  0  0  0  0  0  0  0  0
    7.3017    5.9110    7.6827 F   0  0  0  0  0  0  0  0  0  0  0  0
    5.6662    4.6106    7.1502 F   0  0  0  0  0  0  0  0  0  0  0  0
    6.0463    6.3898    6.0118 F   0  0  0  0  0  0  0  0  0  0  0  0
    1.4149    7.5250   10.0826 C   0  0  0  0  0  0  0  0  0  0  0  0
    0.8285    8.3553    9.7076 H   0  0  0  0  0  0  0  0  0  0  0  0
    0.8658    6.6773   11.0457 C   0  0  0  0  0  0  0  0  0  0  0  0
   -0.1384    6.8502   11.3972 H   0  0  0  0  0  0  0  0  0  0  0  0
    1.6491    5.6780   11.5562 C   0  0  0  0  0  0  0  0  0  0  0  0
    1.3008    5.0353   12.3509 H   0  0  0  0  0  0  0  0  0  0  0  0
    2.9410    5.4831   11.0318 C   0  0  0  0  0  0  0  0  0  0  0  0
    3.7834    4.4710   11.5375 C   0  0  0  0  0  0  0  0  0  0  0  0
    3.4208    3.8563   12.3474 H   0  0  0  0  0  0  0  0  0  0  0  0
    5.0333    4.2910   11.0160 C   0  0  0  0  0  0  0  0  0  0  0  0
    5.6971    3.5427   11.4196 H   0  0  0  0  0  0  0  0  0  0  0  0
    5.4504    5.0534    9.9253 C   0  0  0  0  0  0  0  0  0  0  0  0
    6.4317    4.8597    9.5242 H   0  0  0  0  0  0  0  0  0  0  0  0
    4.6565    6.0528    9.3804 C   0  0  0  0  0  0  0  0  0  0  0  0
    3.3918    6.3457    9.9923 C   0  0  1  0  0  3  0  0  0  0  0  0
    2.6358    7.3970    9.5941 N   0  0  0  0  0  0  0  0  0  0  0  0
    2.2812    9.4538    7.3624 C   0  0  0  0  0  2  0  0  0  0  0  0
    1.4949    9.5658    6.5349 O   0  0  0  0  0  1  0  0  0  0  0  0
    4.6915   10.7482    8.1627 C   0  0  0  0  0  2  0  0  0  0  0  0
    5.3946   11.5922    7.8553 O   0  0  0  0  0  1  0  0  0  0  0  0
    2.6790   10.4053   10.0508 C   0  0  0  0  0  2  0  0  0  0  0  0
    2.2146   11.0195   10.8935 O   0  0  0  0  0  1  0  0  0  0  0  0
  2 25  1  0  0  0  0
  2 30  1  0  0  0  0
  2  1  1  0  0  0  0
  3  5  1  0  0  0  0
  3  2  1  0  0  0  0
  4  3  1  0  0  0  0
  5  6  1  6  0  0  0
  5 23  1  0  0  0  0
  6  7  1  0  0  0  0
  8  6  1  0  0  0  0
  9  6  1  0  0  0  0
 10 12  2  0  0  0  0
 11 10  1  0  0  0  0
 12 13  1  0  0  0  0
 12 14  1  0  0  0  0
 14 15  1  0  0  0  0
 16 17  1  0  0  0  0
 16 14  2  0  0  0  0
 17 18  1  0  0  0  0
 19 20  1  0  0  0  0
 19 17  2  0  0  0  0
 21 19  1  0  0  0  0
 22 21  1  0  0  0  0
 23 21  2  0  0  0  0
 24 23  1  6  0  0  0
 24 16  1  0  0  0  0
 25 24  1  0  0  0  0
 25 10  1  0  0  0  0
 26  2  1  0  0  0  0
 27 26  1  0  0  0  0
 28  2  1  0  0  0  0
 29 28  1  0  0  0  0
 30 31  1  0  0  0  0
M  END
$$$$
