CSD_code = ZISNEX | q = 0 | S = 0 | Stoichiometry = C20H28Cl4N8Pt | MND = 6
 OpenBabel04212202133D

 61 64  0  0  1  0  0  0  0  0999 V2000
   -2.0719    1.0863    2.9855 Pt  0  0  0  0  0  0  0  0  0  0  0  0
   -2.8540    1.1693    5.2214 Cl  0  0  0  0  0  0  0  0  0  0  0  0
   -3.6171   -0.5047    2.4477 Cl  0  0  0  0  0  0  0  0  0  0  0  0
   -0.6517    2.5272    3.4843 N   0  0  0  0  0  0  0  0  0  0  0  0
   -1.5179    6.0278    0.3323 C   0  0  0  0  0  0  0  0  0  0  0  0
   -2.2936    5.3399    0.0099 H   0  0  0  0  0  0  0  0  0  0  0  0
   -0.8480    6.2249   -0.5026 H   0  0  0  0  0  0  0  0  0  0  0  0
   -1.9639    6.9741    0.6357 H   0  0  0  0  0  0  0  0  0  0  0  0
    0.5850    4.3231    3.4960 N   0  0  0  0  0  0  0  0  0  0  0  0
   -0.4766    3.6949    2.8732 C   0  0  2  0  0  3  0  0  0  0  0  0
   -1.1490    4.2411    1.8799 N   0  0  0  0  0  0  0  0  0  0  0  0
   -0.7570    5.4239    1.4616 C   0  0  0  0  0  0  0  0  0  0  0  0
    0.3343    6.1022    2.0491 C   0  0  0  0  0  0  0  0  0  0  0  0
    0.6319    7.0665    1.6705 H   0  0  0  0  0  0  0  0  0  0  0  0
    2.2035    6.1150    3.7840 C   0  0  0  0  0  0  0  0  0  0  0  0
    2.0493    6.0343    4.8620 H   0  0  0  0  0  0  0  0  0  0  0  0
    2.3138    7.1650    3.5105 H   0  0  0  0  0  0  0  0  0  0  0  0
    1.0467    3.5536    4.4851 N   0  0  0  0  0  0  0  0  0  0  0  0
    3.4958    5.3482    3.4280 C   0  0  0  0  0  0  0  0  0  0  0  0
    3.3546    4.2998    3.7061 H   0  0  0  0  0  0  0  0  0  0  0  0
    1.0222    5.5371    3.0933 C   0  0  0  0  0  0  0  0  0  0  0  0
    0.2851    2.4896    4.4476 C   0  0  0  0  0  0  0  0  0  0  0  0
    0.3984    1.6597    5.1179 H   0  0  0  0  0  0  0  0  0  0  0  0
    4.6580    5.9160    4.2358 C   0  0  0  0  0  0  0  0  0  0  0  0
    5.5705    5.3702    4.0114 H   0  0  0  0  0  0  0  0  0  0  0  0
    4.4644    5.8318    5.3021 H   0  0  0  0  0  0  0  0  0  0  0  0
    4.8182    6.9646    3.9931 H   0  0  0  0  0  0  0  0  0  0  0  0
    3.7850    5.4372    1.9328 C   0  0  0  0  0  0  0  0  0  0  0  0
    3.8980    6.4753    1.6256 H   0  0  0  0  0  0  0  0  0  0  0  0
    2.9848    4.9883    1.3480 H   0  0  0  0  0  0  0  0  0  0  0  0
    4.7072    4.9116    1.6997 H   0  0  0  0  0  0  0  0  0  0  0  0
   -1.2899    1.1704    0.7498 Cl  0  0  0  0  0  0  0  0  0  0  0  0
   -0.5264   -0.5042    3.5229 Cl  0  0  0  0  0  0  0  0  0  0  0  0
   -3.4926    2.5268    2.4871 N   0  0  0  0  0  0  0  0  0  0  0  0
   -2.6277    6.0271    5.6397 C   0  0  0  0  0  0  0  0  0  0  0  0
   -1.8522    5.3391    5.9625 H   0  0  0  0  0  0  0  0  0  0  0  0
   -3.2980    6.2241    6.4744 H   0  0  0  0  0  0  0  0  0  0  0  0
   -2.1814    6.9734    5.3368 H   0  0  0  0  0  0  0  0  0  0  0  0
   -4.7291    4.3229    2.4749 N   0  0  0  0  0  0  0  0  0  0  0  0
   -3.6678    3.6945    3.0982 C   0  0  2  0  0  3  0  0  0  0  0  0
   -2.9960    4.2406    4.0919 N   0  0  0  0  0  0  0  0  0  0  0  0
   -3.3880    5.4234    4.5100 C   0  0  0  0  0  0  0  0  0  0  0  0
   -4.4789    6.1019    3.9219 C   0  0  0  0  0  0  0  0  0  0  0  0
   -4.7765    7.0662    4.3004 H   0  0  0  0  0  0  0  0  0  0  0  0
   -6.3471    6.1150    2.1860 C   0  0  0  0  0  0  0  0  0  0  0  0
   -6.1924    6.0343    1.1081 H   0  0  0  0  0  0  0  0  0  0  0  0
   -6.4574    7.1650    2.4595 H   0  0  0  0  0  0  0  0  0  0  0  0
   -5.1904    3.5535    1.4855 N   0  0  0  0  0  0  0  0  0  0  0  0
   -7.6398    5.3484    2.5413 C   0  0  0  0  0  0  0  0  0  0  0  0
   -7.4986    4.3000    2.2635 H   0  0  0  0  0  0  0  0  0  0  0  0
   -5.1663    5.5369    2.8773 C   0  0  0  0  0  0  0  0  0  0  0  0
   -4.4290    2.4894    1.5233 C   0  0  0  0  0  0  0  0  0  0  0  0
   -4.5420    1.6595    0.8529 H   0  0  0  0  0  0  0  0  0  0  0  0
   -8.8014    5.9163    1.7329 C   0  0  0  0  0  0  0  0  0  0  0  0
   -9.7141    5.3707    1.9568 H   0  0  0  0  0  0  0  0  0  0  0  0
   -8.6072    5.8321    0.6667 H   0  0  0  0  0  0  0  0  0  0  0  0
   -8.9616    6.9649    1.9755 H   0  0  0  0  0  0  0  0  0  0  0  0
   -7.9297    5.4375    4.0364 C   0  0  0  0  0  0  0  0  0  0  0  0
   -8.0428    6.4757    4.3435 H   0  0  0  0  0  0  0  0  0  0  0  0
   -7.1299    4.9887    4.6217 H   0  0  0  0  0  0  0  0  0  0  0  0
   -8.8521    4.9121    4.2691 H   0  0  0  0  0  0  0  0  0  0  0  0
  1  4  1  0  0  0  0
  1 33  1  0  0  0  0
  1  2  1  0  0  0  0
  3  1  1  0  0  0  0
  4 22  1  0  0  0  0
  5  8  1  0  0  0  0
  5 12  1  0  0  0  0
  6  5  1  0  0  0  0
  7  5  1  0  0  0  0
  9 18  1  0  0  0  0
 10 11  1  1  0  0  0
 10  4  1  0  0  0  0
 10  9  1  0  0  0  0
 12 11  2  0  0  0  0
 12 13  1  0  0  0  0
 13 21  2  0  0  0  0
 14 13  1  0  0  0  0
 15 16  1  0  0  0  0
 17 15  1  0  0  0  0
 19 20  1  0  0  0  0
 19 15  1  0  0  0  0
 19 24  1  0  0  0  0
 21  9  1  0  0  0  0
 21 15  1  0  0  0  0
 22 18  2  0  0  0  0
 22 23  1  0  0  0  0
 24 26  1  0  0  0  0
 25 24  1  0  0  0  0
 27 24  1  0  0  0  0
 28 19  1  0  0  0  0
 29 28  1  0  0  0  0
 30 28  1  0  0  0  0
 31 28  1  0  0  0  0
 32  1  1  0  0  0  0
 34  1  1  0  0  0  0
 34 40  1  0  0  0  0
 35 36  1  0  0  0  0
 35 37  1  0  0  0  0
 38 35  1  0  0  0  0
 39 51  1  0  0  0  0
 39 40  1  0  0  0  0
 40 41  1  6  0  0  0
 41 42  2  0  0  0  0
 42 35  1  0  0  0  0
 43 44  1  0  0  0  0
 43 42  1  0  0  0  0
 45 47  1  0  0  0  0
 45 49  1  0  0  0  0
 45 51  1  0  0  0  0
 46 45  1  0  0  0  0
 48 52  2  0  0  0  0
 48 39  1  0  0  0  0
 49 58  1  0  0  0  0
 50 49  1  0  0  0  0
 51 43  2  0  0  0  0
 52 34  1  0  0  0  0
 53 52  1  0  0  0  0
 54 55  1  0  0  0  0
 54 57  1  0  0  0  0
 54 49  1  0  0  0  0
 56 54  1  0  0  0  0
 58 61  1  0  0  0  0
 58 59  1  0  0  0  0
 58 60  1  0  0  0  0
M  END
$$$$
