CSD_code = ZISQAT | q = 0 | S = 0 | Stoichiometry = C26H22ClF5Ti | MND = 12
 OpenBabel04212202133D

 55 61  0  0  1  0  0  0  0  0999 V2000
    1.3774    3.1779    3.9096 Ti  0  0  1  0  0  0  0  0  0  0  0  0
   -0.6287    3.3551    4.8342 Cl  0  0  0  0  0  0  0  0  0  0  0  0
   -1.3345    1.7040    2.7481 F   0  0  0  0  0  0  0  0  0  0  0  0
   -2.1085    0.9707    0.2885 F   0  0  0  0  0  0  0  0  0  0  0  0
   -0.4085    1.2606   -1.8441 F   0  0  0  0  0  0  0  0  0  0  0  0
    2.1138    2.2579   -1.4046 F   0  0  0  0  0  0  0  0  0  0  0  0
    2.8686    2.9723    1.0795 F   0  0  0  0  0  0  0  0  0  0  0  0
    1.7044    5.1215    2.7329 C   0  0  2  0  0  0  0  0  0  0  0  0
    2.9861    4.7303    3.1866 C   0  0  0  0  0  3  0  0  0  0  0  0
    2.9735    4.8409    4.5953 C   0  0  0  0  0  0  0  0  0  0  0  0
    1.7200    5.3428    5.0205 C   0  0  0  0  0  0  0  0  0  0  0  0
    0.9437    5.5205    3.8682 C   0  0  1  0  0  3  0  0  0  0  0  0
   -0.2341    6.2947    3.3597 C   0  0  1  0  0  0  0  0  0  0  0  0
    0.3736    7.6335    2.8758 C   0  0  0  0  0  0  0  0  0  0  0  0
    1.2113    7.2252    1.6451 C   0  0  0  0  0  0  0  0  0  0  0  0
    0.9906    5.6959    1.5394 C   0  0  2  0  0  0  0  0  0  0  0  0
   -0.4712    5.5944    2.0117 C   0  0  0  0  0  0  0  0  0  0  0  0
    1.4011    1.4073    5.5011 C   0  0  2  0  0  3  0  0  0  0  0  0
    1.2997    0.7609    4.2679 C   0  0  0  0  0  0  0  0  0  0  0  0
    2.4810    1.0880    3.5353 C   0  0  0  0  0  0  0  0  0  0  0  0
    3.3157    1.8988    4.3311 C   0  0  0  0  0  3  0  0  0  0  0  0
    2.6213    2.1401    5.5390 C   0  0  1  0  0  0  0  0  0  0  0  0
    2.8566    2.4730    6.9866 C   0  0  2  0  0  0  0  0  0  0  0  0
    3.1886    1.1152    7.6544 C   0  0  0  0  0  0  0  0  0  0  0  0
    1.8500    0.3478    7.6097 C   0  0  0  0  0  0  0  0  0  0  0  0
    0.8888    1.3373    6.9081 C   0  0  1  0  0  0  0  0  0  0  0  0
    1.4086    2.6718    7.4669 C   0  0  0  0  0  0  0  0  0  0  0  0
    0.7556    2.5051    2.0029 C   0  0  0  0  0  0  0  0  0  0  0  0
   -0.4810    1.9249    1.7265 C   0  0  0  0  0  0  0  0  0  0  0  0
   -0.8941    1.5075    0.4636 C   0  0  0  0  0  0  0  0  0  0  0  0
   -0.0333    1.6424   -0.6185 C   0  0  0  0  0  0  0  0  0  0  0  0
    1.2386    2.1561   -0.3937 C   0  0  0  0  0  0  0  0  0  0  0  0
    1.5900    2.5554    0.8896 C   0  0  0  0  0  0  0  0  0  0  0  0
    3.8584    4.5195    2.5858 H   0  0  0  0  0  0  0  0  0  0  0  0
    3.8364    4.7003    5.2327 H   0  0  0  0  0  0  0  0  0  0  0  0
    1.4602    5.6360    6.0285 H   0  0  0  0  0  0  0  0  0  0  0  0
   -1.0909    6.3926    4.0226 H   0  0  0  0  0  0  0  0  0  0  0  0
   -0.4203    8.3266    2.5999 H   0  0  0  0  0  0  0  0  0  0  0  0
    0.9804    8.0979    3.6519 H   0  0  0  0  0  0  0  0  0  0  0  0
    0.8510    7.7178    0.7425 H   0  0  0  0  0  0  0  0  0  0  0  0
    2.2669    7.4635    1.7674 H   0  0  0  0  0  0  0  0  0  0  0  0
    1.2255    5.2831    0.5595 H   0  0  0  0  0  0  0  0  0  0  0  0
   -0.8221    4.5675    2.1332 H   0  0  0  0  0  0  0  0  0  0  0  0
   -1.1568    6.1459    1.3696 H   0  0  0  0  0  0  0  0  0  0  0  0
    0.5279    0.0716    3.9517 H   0  0  0  0  0  0  0  0  0  0  0  0
    2.7642    0.6489    2.5872 H   0  0  0  0  0  0  0  0  0  0  0  0
    4.3266    2.1908    4.0800 H   0  0  0  0  0  0  0  0  0  0  0  0
    3.5680    3.2638    7.2218 H   0  0  0  0  0  0  0  0  0  0  0  0
    3.9806    0.5933    7.1185 H   0  0  0  0  0  0  0  0  0  0  0  0
    3.5175    1.2743    8.6812 H   0  0  0  0  0  0  0  0  0  0  0  0
    1.9294   -0.5882    7.0589 H   0  0  0  0  0  0  0  0  0  0  0  0
    1.4899    0.1254    8.6137 H   0  0  0  0  0  0  0  0  0  0  0  0
   -0.1685    1.1231    7.0436 H   0  0  0  0  0  0  0  0  0  0  0  0
    1.3320    2.7275    8.5522 H   0  0  0  0  0  0  0  0  0  0  0  0
    0.9116    3.5312    7.0149 H   0  0  0  0  0  0  0  0  0  0  0  0
  1  2  1  1  0  0  0
  4 30  1  0  0  0  0
  5 31  1  0  0  0  0
  6 32  1  0  0  0  0
  8  9  1  0  0  0  0
  8 12  1  0  0  0  0
  8  1  1  6  0  0  0
  9 10  1  0  0  0  0
 10 11  2  0  0  0  0
 10 35  1  0  0  0  0
 11 36  1  0  0  0  0
 12 11  1  1  0  0  0
 13 12  1  0  0  0  0
 13 37  1  1  0  0  0
 14 13  1  0  0  0  0
 14 39  1  0  0  0  0
 15 41  1  0  0  0  0
 15 14  1  0  0  0  0
 16 42  1  6  0  0  0
 16 15  1  0  0  0  0
 16 17  1  0  0  0  0
 16  8  1  0  0  0  0
 17 43  1  0  0  0  0
 17 13  1  0  0  0  0
 18 19  1  1  0  0  0
 18 22  1  0  0  0  0
 18 26  1  0  0  0  0
 20 19  2  0  0  0  0
 20 21  1  0  0  0  0
 21 22  1  0  0  0  0
 22  1  1  6  0  0  0
 22 23  1  0  0  0  0
 23 48  1  1  0  0  0
 23 27  1  0  0  0  0
 23 24  1  0  0  0  0
 24 50  1  0  0  0  0
 25 24  1  0  0  0  0
 25 52  1  0  0  0  0
 26 53  1  1  0  0  0
 26 27  1  0  0  0  0
 26 25  1  0  0  0  0
 27 54  1  0  0  0  0
 28  1  1  0  0  0  0
 29 28  1  0  0  0  0
 29  3  1  0  0  0  0
 30 29  2  0  0  0  0
 31 32  2  0  0  0  0
 31 30  1  0  0  0  0
 32 33  1  0  0  0  0
 33  7  1  0  0  0  0
 33 28  2  0  0  0  0
 34  9  1  0  0  0  0
 38 14  1  0  0  0  0
 40 15  1  0  0  0  0
 44 17  1  0  0  0  0
 45 19  1  0  0  0  0
 46 20  1  0  0  0  0
 47 21  1  0  0  0  0
 49 24  1  0  0  0  0
 51 25  1  0  0  0  0
 55 27  1  0  0  0  0
M  END
$$$$
