CSD_code = ZITHOC | q = 0 | S = 0 | Stoichiometry = C18H29Cl2F3N2Zr | MND = 9
 OpenBabel04212202133D

 55 56  0  0  1  0  0  0  0  0999 V2000
    1.2832   11.9567    5.8248 Zr  0  0  0  0  0  0  0  0  0  0  0  0
    1.8893   13.7255    4.3856 Cl  0  0  0  0  0  0  0  0  0  0  0  0
   -0.9101   12.6237    5.3002 Cl  0  0  0  0  0  0  0  0  0  0  0  0
    2.2756    9.8484    4.7024 C   0  0  2  0  0  3  0  0  0  0  0  0
    2.8604    8.6129    4.0063 C   0  0  0  0  0  0  0  0  0  0  0  0
    2.9091    7.5722    4.8590 F   0  0  0  0  0  0  0  0  0  0  0  0
    2.1540    8.2229    2.9322 F   0  0  0  0  0  0  0  0  0  0  0  0
    4.1181    8.7443    3.5671 F   0  0  0  0  0  0  0  0  0  0  0  0
    2.9510   10.9603    4.8916 N   0  0  0  0  0  0  0  0  0  0  0  0
    4.2371   11.3364    4.3354 C   0  0  0  0  0  0  0  0  0  0  0  0
    5.0091   10.5820    4.5291 H   0  0  0  0  0  0  0  0  0  0  0  0
    4.5156   12.2612    4.8546 H   0  0  0  0  0  0  0  0  0  0  0  0
    4.1463   11.6386    2.8363 C   0  0  0  0  0  0  0  0  0  0  0  0
    3.8810   10.7531    2.2638 H   0  0  0  0  0  0  0  0  0  0  0  0
    5.1065   12.0028    2.4816 H   0  0  0  0  0  0  0  0  0  0  0  0
    3.3946   12.4080    2.6672 H   0  0  0  0  0  0  0  0  0  0  0  0
    1.0862    9.8543    5.2826 N   0  0  0  0  0  0  0  0  0  0  0  0
   -0.0925    9.0150    5.0422 C   0  0  0  0  0  0  0  0  0  0  0  0
   -1.0717    9.3519    6.1806 C   0  0  0  0  0  0  0  0  0  0  0  0
   -2.0471    8.9241    5.9622 H   0  0  0  0  0  0  0  0  0  0  0  0
   -1.1800   10.4328    6.2824 H   0  0  0  0  0  0  0  0  0  0  0  0
   -0.7125    8.9303    7.1161 H   0  0  0  0  0  0  0  0  0  0  0  0
   -0.7037    9.4543    3.6992 C   0  0  0  0  0  0  0  0  0  0  0  0
   -0.0428    9.2083    2.8702 H   0  0  0  0  0  0  0  0  0  0  0  0
   -0.8759   10.5337    3.7058 H   0  0  0  0  0  0  0  0  0  0  0  0
   -1.6539    8.9510    3.5408 H   0  0  0  0  0  0  0  0  0  0  0  0
    0.1218    7.4947    5.0654 C   0  0  0  0  0  0  0  0  0  0  0  0
    0.5865    7.1195    4.1603 H   0  0  0  0  0  0  0  0  0  0  0  0
   -0.8494    7.0134    5.1517 H   0  0  0  0  0  0  0  0  0  0  0  0
    0.7227    7.2019    5.9235 H   0  0  0  0  0  0  0  0  0  0  0  0
    2.8475   11.7061    7.7577 C   0  0  0  0  0  0  0  0  0  0  0  0
    1.5967   11.1520    8.1571 C   0  0  0  0  0  0  0  0  0  0  0  0
    0.6250   12.1929    8.1474 C   0  0  0  0  0  0  0  0  0  0  0  0
    1.2814   13.3898    7.7225 C   0  0  1  0  0  0  0  0  0  0  0  0
    2.6589   13.0901    7.4978 C   0  0  0  0  0  0  0  0  0  0  0  0
    4.1463   10.9519    7.8083 C   0  0  0  0  0  0  0  0  0  0  0  0
    4.4507   10.8002    8.8469 H   0  0  0  0  0  0  0  0  0  0  0  0
    4.9417   11.4933    7.3016 H   0  0  0  0  0  0  0  0  0  0  0  0
    4.0479    9.9691    7.3455 H   0  0  0  0  0  0  0  0  0  0  0  0
    1.4503    9.7522    8.6866 C   0  0  0  0  0  0  0  0  0  0  0  0
    1.6608    9.0093    7.9138 H   0  0  0  0  0  0  0  0  0  0  0  0
    0.4502    9.5804    9.0776 H   0  0  0  0  0  0  0  0  0  0  0  0
    2.1587    9.5899    9.5013 H   0  0  0  0  0  0  0  0  0  0  0  0
   -0.7931   12.1284    8.6497 C   0  0  0  0  0  0  0  0  0  0  0  0
   -0.8944   12.7372    9.5505 H   0  0  0  0  0  0  0  0  0  0  0  0
   -1.0768   11.1081    8.8985 H   0  0  0  0  0  0  0  0  0  0  0  0
   -1.4956   12.5099    7.9060 H   0  0  0  0  0  0  0  0  0  0  0  0
    0.6573   14.7525    7.5889 C   0  0  0  0  0  0  0  0  0  0  0  0
   -0.4251   14.6722    7.4876 H   0  0  0  0  0  0  0  0  0  0  0  0
    1.0516   15.2673    6.7092 H   0  0  0  0  0  0  0  0  0  0  0  0
    0.8747   15.3657    8.4669 H   0  0  0  0  0  0  0  0  0  0  0  0
    3.7119   14.1161    7.1789 C   0  0  0  0  0  0  0  0  0  0  0  0
    3.7303   14.8815    7.9569 H   0  0  0  0  0  0  0  0  0  0  0  0
    3.5065   14.6102    6.2265 H   0  0  0  0  0  0  0  0  0  0  0  0
    4.6992   13.6613    7.1307 H   0  0  0  0  0  0  0  0  0  0  0  0
  1 34  1  0  0  0  0
  2  1  1  0  0  0  0
  3  1  1  0  0  0  0
  4  5  1  1  0  0  0
  4  9  1  0  0  0  0
  4 17  1  0  0  0  0
  5  6  1  0  0  0  0
  7  5  1  0  0  0  0
  8  5  1  0  0  0  0
  9  1  1  0  0  0  0
 10 11  1  0  0  0  0
 10 12  1  0  0  0  0
 10  9  1  0  0  0  0
 13 10  1  0  0  0  0
 14 13  1  0  0  0  0
 15 13  1  0  0  0  0
 16 13  1  0  0  0  0
 17  1  1  0  0  0  0
 18 27  1  0  0  0  0
 18 17  1  0  0  0  0
 18 19  1  0  0  0  0
 19 21  1  0  0  0  0
 19 22  1  0  0  0  0
 20 19  1  0  0  0  0
 23 25  1  0  0  0  0
 23 18  1  0  0  0  0
 24 23  1  0  0  0  0
 26 23  1  0  0  0  0
 27 29  1  0  0  0  0
 27 30  1  0  0  0  0
 28 27  1  0  0  0  0
 31 36  1  0  0  0  0
 31 32  1  0  0  0  0
 32 40  1  0  0  0  0
 33 32  2  0  0  0  0
 33 44  1  0  0  0  0
 34 48  1  1  0  0  0
 34 33  1  0  0  0  0
 35 34  1  0  0  0  0
 35 31  2  0  0  0  0
 36 37  1  0  0  0  0
 38 36  1  0  0  0  0
 39 36  1  0  0  0  0
 40 42  1  0  0  0  0
 40 43  1  0  0  0  0
 41 40  1  0  0  0  0
 44 46  1  0  0  0  0
 44 45  1  0  0  0  0
 47 44  1  0  0  0  0
 48 51  1  0  0  0  0
 49 48  1  0  0  0  0
 50 48  1  0  0  0  0
 52 35  1  0  0  0  0
 52 53  1  0  0  0  0
 54 52  1  0  0  0  0
 55 52  1  0  0  0  0
M  END
$$$$
