CSD_code = ZITYEI | q = 0 | S = 0 | Stoichiometry = C25H22F3NbO3P2 | MND = 6
 OpenBabel04212202133D

 56 60  0  0  0  0  0  0  0  0999 V2000
   10.8250   -0.0018   14.1759 Nb  0  0  0  0  0  0  0  0  0  0  0  0
   10.5107    2.3151   11.6427 P   0  0  0  0  0  4  0  0  0  0  0  0
    9.6459    2.9450   14.3718 P   0  0  0  0  0  4  0  0  0  0  0  0
   10.6032   -1.6095   13.2390 F   0  0  0  0  0  0  0  0  0  0  0  0
   12.6558    0.1871   13.9708 F   0  0  0  0  0  0  0  0  0  0  0  0
    9.0055    0.5239   13.8663 F   0  0  0  0  0  0  0  0  0  0  0  0
   10.8561    0.9070   11.9123 O   0  0  0  0  0  0  0  0  0  0  0  0
   10.9268    2.1964   14.5565 O   0  0  0  0  0  0  0  0  0  0  0  0
   10.7312   -0.5003   15.7910 O   0  0  0  0  0  1  0  0  0  0  0  0
   10.0485    2.5222    9.8994 C   0  0  0  0  0  0  0  0  0  0  0  0
   10.1651    1.4022    9.0865 C   0  0  0  0  0  0  0  0  0  0  0  0
   10.5058    0.4751    9.5242 H   0  0  0  0  0  0  0  0  0  0  0  0
    9.8418    1.4839    7.7438 C   0  0  0  0  0  0  0  0  0  0  0  0
    9.9310    0.6123    7.1132 H   0  0  0  0  0  0  0  0  0  0  0  0
    9.4051    2.6860    7.2118 C   0  0  0  0  0  0  0  0  0  0  0  0
    9.1524    2.7535    6.1642 H   0  0  0  0  0  0  0  0  0  0  0  0
    9.2913    3.8057    8.0215 C   0  0  0  0  0  0  0  0  0  0  0  0
    8.9514    4.7421    7.6040 H   0  0  0  0  0  0  0  0  0  0  0  0
    9.6128    3.7275    9.3641 C   0  0  0  0  0  0  0  0  0  0  0  0
    9.5262    4.6043    9.9891 H   0  0  0  0  0  0  0  0  0  0  0  0
   11.8611    3.4635   12.0446 C   0  0  0  0  0  0  0  0  0  0  0  0
   13.0964    2.9008   12.3438 C   0  0  0  0  0  0  0  0  0  0  0  0
   13.2096    1.8246   12.3234 H   0  0  0  0  0  0  0  0  0  0  0  0
   14.1613    3.7166   12.6829 C   0  0  0  0  0  0  0  0  0  0  0  0
   15.1157    3.2774   12.9304 H   0  0  0  0  0  0  0  0  0  0  0  0
   13.9988    5.0922   12.7077 C   0  0  0  0  0  0  0  0  0  0  0  0
   14.8286    5.7298   12.9742 H   0  0  0  0  0  0  0  0  0  0  0  0
   12.7730    5.6546   12.3896 C   0  0  0  0  0  0  0  0  0  0  0  0
   12.6466    6.7272   12.4068 H   0  0  0  0  0  0  0  0  0  0  0  0
   11.7025    4.8440   12.0594 C   0  0  0  0  0  0  0  0  0  0  0  0
   10.7487    5.2930   11.8226 H   0  0  0  0  0  0  0  0  0  0  0  0
    9.0568    2.9257   12.6173 C   0  0  0  0  0  0  0  0  0  0  0  0
    8.7551    3.9221   12.2974 H   0  0  0  0  0  0  0  0  0  0  0  0
    8.2281    2.2252   12.4795 H   0  0  0  0  0  0  0  0  0  0  0  0
    8.3367    2.4720   15.5322 C   0  0  0  0  0  0  0  0  0  0  0  0
    7.0170    2.8667   15.3572 C   0  0  0  0  0  0  0  0  0  0  0  0
    6.7302    3.4445   14.4898 H   0  0  0  0  0  0  0  0  0  0  0  0
    6.0665    2.4935   16.2905 C   0  0  0  0  0  0  0  0  0  0  0  0
    5.0363    2.7887   16.1559 H   0  0  0  0  0  0  0  0  0  0  0  0
    6.4339    1.7311   17.3879 C   0  0  0  0  0  0  0  0  0  0  0  0
    5.6853    1.4326   18.1065 H   0  0  0  0  0  0  0  0  0  0  0  0
    7.7528    1.3401   17.5587 C   0  0  0  0  0  0  0  0  0  0  0  0
    8.0347    0.7349   18.4062 H   0  0  0  0  0  0  0  0  0  0  0  0
    8.7136    1.7132   16.6348 C   0  0  0  0  0  0  0  0  0  0  0  0
    9.7461    1.3906   16.7410 H   0  0  0  0  0  0  0  0  0  0  0  0
   10.0191    4.6868   14.7281 C   0  0  0  0  0  0  0  0  0  0  0  0
    9.0992    5.7009   14.4964 C   0  0  0  0  0  0  0  0  0  0  0  0
    8.1269    5.4668   14.0856 H   0  0  0  0  0  0  0  0  0  0  0  0
    9.4274    7.0103   14.7968 C   0  0  0  0  0  0  0  0  0  0  0  0
    8.7145    7.8006   14.6129 H   0  0  0  0  0  0  0  0  0  0  0  0
   10.6693    7.3076   15.3361 C   0  0  0  0  0  0  0  0  0  0  0  0
   10.9221    8.3315   15.5678 H   0  0  0  0  0  0  0  0  0  0  0  0
   11.5813    6.2948   15.5838 C   0  0  0  0  0  0  0  0  0  0  0  0
   12.5454    6.5264   16.0107 H   0  0  0  0  0  0  0  0  0  0  0  0
   11.2563    4.9843   15.2838 C   0  0  0  0  0  0  0  0  0  0  0  0
   11.9539    4.1785   15.4629 H   0  0  0  0  0  0  0  0  0  0  0  0
  1  8  1  0  0  0  0
  1  9  1  0  0  0  0
  2  7  1  0  0  0  0
  2 21  1  0  0  0  0
  2 32  1  0  0  0  0
  3  8  1  0  0  0  0
  3 46  1  0  0  0  0
  3 35  1  0  0  0  0
  4  1  1  0  0  0  0
  5  1  1  0  0  0  0
  6  1  1  0  0  0  0
  7  1  1  0  0  0  0
 10  2  1  0  0  0  0
 11 12  1  0  0  0  0
 11 10  2  0  0  0  0
 13 11  1  0  0  0  0
 14 13  1  0  0  0  0
 15 13  2  0  0  0  0
 15 17  1  0  0  0  0
 16 15  1  0  0  0  0
 17 19  2  0  0  0  0
 18 17  1  0  0  0  0
 19 10  1  0  0  0  0
 19 20  1  0  0  0  0
 21 30  2  0  0  0  0
 21 22  1  0  0  0  0
 22 24  2  0  0  0  0
 23 22  1  0  0  0  0
 24 26  1  0  0  0  0
 24 25  1  0  0  0  0
 26 27  1  0  0  0  0
 28 29  1  0  0  0  0
 28 26  2  0  0  0  0
 30 28  1  0  0  0  0
 31 30  1  0  0  0  0
 32  3  1  0  0  0  0
 33 32  1  0  0  0  0
 34 32  1  0  0  0  0
 35 44  1  0  0  0  0
 36 35  2  0  0  0  0
 36 38  1  0  0  0  0
 37 36  1  0  0  0  0
 38 40  2  0  0  0  0
 39 38  1  0  0  0  0
 40 42  1  0  0  0  0
 40 41  1  0  0  0  0
 42 43  1  0  0  0  0
 44 45  1  0  0  0  0
 44 42  2  0  0  0  0
 46 55  1  0  0  0  0
 47 46  2  0  0  0  0
 47 49  1  0  0  0  0
 48 47  1  0  0  0  0
 49 51  2  0  0  0  0
 50 49  1  0  0  0  0
 51 52  1  0  0  0  0
 51 53  1  0  0  0  0
 53 54  1  0  0  0  0
 55 56  1  0  0  0  0
 55 53  2  0  0  0  0
M  END
$$$$
