CSD_code = ZIVJUL | q = 0 | S = 0 | Stoichiometry = C23H29CoINP2 | MND = 6
 OpenBabel04212202133D

 57 61  0  0  0  0  0  0  0  0999 V2000
    7.5757    0.4545    4.2360 I   0  0  0  0  0  0  0  0  0  0  0  0
    7.6909    1.2439    6.6806 Co  0  0  0  0  0  0  0  0  0  0  0  0
    6.4865    2.9707    6.1132 P   0  0  0  0  0  4  0  0  0  0  0  0
    8.9169   -0.5045    7.1200 P   0  0  0  0  0  4  0  0  0  0  0  0
    7.7641    1.8101    8.4556 N   0  0  0  0  0  0  0  0  0  0  0  0
    6.8360    1.3901    9.2546 C   0  0  0  0  0  3  0  0  0  0  0  0
    6.8044    1.6710   10.3040 H   0  0  0  0  0  0  0  0  0  0  0  0
    5.8580    0.5378    8.6753 C   0  0  0  0  0  0  0  0  0  0  0  0
    4.7835   -0.0104    9.3849 C   0  0  0  0  0  0  0  0  0  0  0  0
    4.6684    0.2107   10.4382 H   0  0  0  0  0  0  0  0  0  0  0  0
    3.8893   -0.8236    8.7290 C   0  0  0  0  0  0  0  0  0  0  0  0
    3.0526   -1.2570    9.2581 H   0  0  0  0  0  0  0  0  0  0  0  0
    4.0705   -1.0849    7.3741 C   0  0  0  0  0  0  0  0  0  0  0  0
    3.3674   -1.7237    6.8573 H   0  0  0  0  0  0  0  0  0  0  0  0
    5.1349   -0.5416    6.6755 C   0  0  0  0  0  0  0  0  0  0  0  0
    5.2269   -0.7789    5.6246 H   0  0  0  0  0  0  0  0  0  0  0  0
    6.0696    0.2893    7.2953 C   0  0  0  0  0  0  0  0  0  0  0  0
    8.8087    2.6457    8.8100 C   0  0  0  0  0  0  0  0  0  0  0  0
    9.0586    3.1853   10.0549 C   0  0  0  0  0  0  0  0  0  0  0  0
    8.4164    2.9831   10.8999 H   0  0  0  0  0  0  0  0  0  0  0  0
   10.1715    4.0155   10.2263 C   0  0  0  0  0  0  0  0  0  0  0  0
   10.3602    4.4343   11.2045 H   0  0  0  0  0  0  0  0  0  0  0  0
   11.0154    4.3016    9.1842 C   0  0  0  0  0  0  0  0  0  0  0  0
   11.8702    4.9454    9.3374 H   0  0  0  0  0  0  0  0  0  0  0  0
   10.7883    3.7667    7.8998 C   0  0  0  0  0  0  0  0  0  0  0  0
   11.6100    4.0161    6.7841 C   0  0  0  0  0  0  0  0  0  0  0  0
   12.4752    4.6547    6.8950 H   0  0  0  0  0  0  0  0  0  0  0  0
   11.3008    3.4471    5.5787 C   0  0  0  0  0  0  0  0  0  0  0  0
   11.9281    3.6347    4.7176 H   0  0  0  0  0  0  0  0  0  0  0  0
   10.1791    2.6161    5.4220 C   0  0  0  0  0  0  0  0  0  0  0  0
   10.0011    2.2041    4.4385 H   0  0  0  0  0  0  0  0  0  0  0  0
    9.3332    2.3314    6.4740 C   0  0  0  0  0  0  0  0  0  0  0  0
    9.6647    2.9265    7.7179 C   0  0  0  0  0  0  0  0  0  0  0  0
    6.0733    4.1522    7.4535 C   0  0  0  0  0  0  0  0  0  0  0  0
    5.4785    4.9708    7.0479 H   0  0  0  0  0  0  0  0  0  0  0  0
    6.9895    4.5525    7.8876 H   0  0  0  0  0  0  0  0  0  0  0  0
    5.5024    3.6431    8.2299 H   0  0  0  0  0  0  0  0  0  0  0  0
    7.1642    4.1226    4.8664 C   0  0  0  0  0  0  0  0  0  0  0  0
    7.3546    3.5833    3.9397 H   0  0  0  0  0  0  0  0  0  0  0  0
    8.1012    4.5420    5.2312 H   0  0  0  0  0  0  0  0  0  0  0  0
    6.4460    4.9227    4.6841 H   0  0  0  0  0  0  0  0  0  0  0  0
    4.8191    2.6672    5.4259 C   0  0  0  0  0  0  0  0  0  0  0  0
    4.2196    2.1200    6.1527 H   0  0  0  0  0  0  0  0  0  0  0  0
    4.9037    2.0723    4.5178 H   0  0  0  0  0  0  0  0  0  0  0  0
    4.3422    3.6205    5.1960 H   0  0  0  0  0  0  0  0  0  0  0  0
    8.1879   -2.1575    6.8356 C   0  0  0  0  0  0  0  0  0  0  0  0
    8.9156   -2.9255    7.0997 H   0  0  0  0  0  0  0  0  0  0  0  0
    7.9151   -2.2578    5.7862 H   0  0  0  0  0  0  0  0  0  0  0  0
    7.2929   -2.2710    7.4463 H   0  0  0  0  0  0  0  0  0  0  0  0
    9.4763   -0.6918    8.8564 C   0  0  0  0  0  0  0  0  0  0  0  0
    8.6117   -0.7697    9.5155 H   0  0  0  0  0  0  0  0  0  0  0  0
   10.0709    0.1741    9.1476 H   0  0  0  0  0  0  0  0  0  0  0  0
   10.0818   -1.5934    8.9495 H   0  0  0  0  0  0  0  0  0  0  0  0
   10.5131   -0.6817    6.2473 C   0  0  0  0  0  0  0  0  0  0  0  0
   11.1493    0.1723    6.4772 H   0  0  0  0  0  0  0  0  0  0  0  0
   10.3379   -0.7138    5.1731 H   0  0  0  0  0  0  0  0  0  0  0  0
   11.0001   -1.6035    6.5671 H   0  0  0  0  0  0  0  0  0  0  0  0
  1  2  1  0  0  0  0
  2  4  1  0  0  0  0
  2 17  1  0  0  0  0
  2  5  1  0  0  0  0
  3  2  1  0  0  0  0
  3 34  1  0  0  0  0
  4 50  1  0  0  0  0
  5 18  1  0  0  0  0
  5  6  1  0  0  0  0
  6  7  1  0  0  0  0
  8  6  1  0  0  0  0
  8  9  1  0  0  0  0
  9 10  1  0  0  0  0
 11 12  1  0  0  0  0
 11  9  2  0  0  0  0
 13 11  1  0  0  0  0
 14 13  1  0  0  0  0
 15 17  1  0  0  0  0
 15 13  2  0  0  0  0
 16 15  1  0  0  0  0
 17  8  2  0  0  0  0
 18 19  1  0  0  0  0
 19 21  2  0  0  0  0
 19 20  1  0  0  0  0
 21 22  1  0  0  0  0
 23 24  1  0  0  0  0
 23 21  1  0  0  0  0
 25 23  2  0  0  0  0
 26 27  1  0  0  0  0
 26 25  1  0  0  0  0
 28 26  2  0  0  0  0
 29 28  1  0  0  0  0
 30 28  1  0  0  0  0
 30 32  2  0  0  0  0
 31 30  1  0  0  0  0
 32  2  1  0  0  0  0
 32 33  1  0  0  0  0
 33 25  1  0  0  0  0
 33 18  2  0  0  0  0
 34 36  1  0  0  0  0
 34 37  1  0  0  0  0
 35 34  1  0  0  0  0
 38 40  1  0  0  0  0
 38  3  1  0  0  0  0
 39 38  1  0  0  0  0
 41 38  1  0  0  0  0
 42  3  1  0  0  0  0
 42 43  1  0  0  0  0
 44 42  1  0  0  0  0
 45 42  1  0  0  0  0
 46 47  1  0  0  0  0
 46  4  1  0  0  0  0
 46 49  1  0  0  0  0
 48 46  1  0  0  0  0
 50 53  1  0  0  0  0
 50 52  1  0  0  0  0
 50 51  1  0  0  0  0
 54 55  1  0  0  0  0
 54 57  1  0  0  0  0
 54  4  1  0  0  0  0
 56 54  1  0  0  0  0
M  END
$$$$
