CSD_code = ZIVKUN | q = 1 | S = 0 | Stoichiometry = C26H31ClN5Pd(1+) | MND = 4
 OpenBabel04212202133D

 64 67  0  0  0  0  0  0  0  0999 V2000
   11.5730    5.2215    2.9225 Pd  0  0  2  0  0  0  0  0  0  0  0  0
   11.1642    7.3555    2.2036 Cl  0  0  0  0  0  0  0  0  0  0  0  0
   10.2896    4.4247    1.5602 N   0  0  0  0  0  0  0  0  0  0  0  0
   13.2183    6.7737    4.9488 N   0  0  0  0  0  2  0  0  0  0  0  0
   13.0386    2.7373    3.6190 N   0  0  0  0  0  0  0  0  0  0  0  0
   11.0457    2.4580    2.5214 N   0  0  0  0  0  0  0  0  0  0  0  0
    9.0856    6.0448    0.4176 N   0  0  0  0  0  0  0  0  0  0  0  0
   12.6825    6.0055    4.2654 C   0  0  0  0  0  2  0  0  0  0  0  0
   13.8337    7.7678    5.7358 C   0  0  0  0  0  0  0  0  0  0  0  0
   14.8966    7.0990    6.6096 C   0  0  0  0  0  0  0  0  0  0  0  0
   14.4460    6.3547    7.2624 H   0  0  0  0  0  0  0  0  0  0  0  0
   15.3809    7.8506    7.2257 H   0  0  0  0  0  0  0  0  0  0  0  0
   15.6534    6.6170    5.9946 H   0  0  0  0  0  0  0  0  0  0  0  0
   14.4575    8.7841    4.7754 C   0  0  0  0  0  0  0  0  0  0  0  0
   15.2220    8.3145    4.1606 H   0  0  0  0  0  0  0  0  0  0  0  0
   14.9134    9.5884    5.3452 H   0  0  0  0  0  0  0  0  0  0  0  0
   13.6975    9.2065    4.1220 H   0  0  0  0  0  0  0  0  0  0  0  0
   12.7391    8.4153    6.5883 C   0  0  0  0  0  0  0  0  0  0  0  0
   11.9690    8.8479    5.9538 H   0  0  0  0  0  0  0  0  0  0  0  0
   13.1736    9.2039    7.1955 H   0  0  0  0  0  0  0  0  0  0  0  0
   12.2783    7.6819    7.2461 H   0  0  0  0  0  0  0  0  0  0  0  0
   11.9242    3.2616    3.1665 C   0  0  0  0  0  0  0  0  0  0  0  0
   13.5508    1.3657    3.4297 C   0  0  0  0  0  0  0  0  0  0  0  0
   14.8932    1.2969    4.1537 C   0  0  0  0  0  0  0  0  0  0  0  0
   15.5960    2.0180    3.7407 H   0  0  0  0  0  0  0  0  0  0  0  0
   15.3238    0.3065    4.0395 H   0  0  0  0  0  0  0  0  0  0  0  0
   14.7701    1.4885    5.2176 H   0  0  0  0  0  0  0  0  0  0  0  0
   13.7435    1.1139    1.9341 C   0  0  0  0  0  0  0  0  0  0  0  0
   12.7991    1.2161    1.4072 H   0  0  0  0  0  0  0  0  0  0  0  0
   14.1240    0.1097    1.7733 H   0  0  0  0  0  0  0  0  0  0  0  0
   14.4533    1.8246    1.5160 H   0  0  0  0  0  0  0  0  0  0  0  0
   12.5656    0.3678    4.0395 C   0  0  0  0  0  0  0  0  0  0  0  0
   12.4388    0.5631    5.1015 H   0  0  0  0  0  0  0  0  0  0  0  0
   12.9483   -0.6412    3.9180 H   0  0  0  0  0  0  0  0  0  0  0  0
   11.5969    0.4374    3.5552 H   0  0  0  0  0  0  0  0  0  0  0  0
    9.2809    4.7962    0.7656 C   0  0  0  0  0  0  0  0  0  0  0  0
    8.5069    3.6148    0.3533 C   0  0  0  0  0  0  0  0  0  0  0  0
    7.3925    3.6896   -0.5800 C   0  0  0  0  0  0  0  0  0  0  0  0
    6.3929    4.6515   -0.4179 C   0  0  0  0  0  0  0  0  0  0  0  0
    6.4032    5.3008    0.4467 H   0  0  0  0  0  0  0  0  0  0  0  0
    5.3489    4.7302   -1.3211 C   0  0  0  0  0  0  0  0  0  0  0  0
    4.5736    5.4675   -1.1790 H   0  0  0  0  0  0  0  0  0  0  0  0
    5.2956    3.8643   -2.4013 C   0  0  0  0  0  0  0  0  0  0  0  0
    4.4827    3.9316   -3.1072 H   0  0  0  0  0  0  0  0  0  0  0  0
    6.2849    2.9068   -2.5695 C   0  0  0  0  0  0  0  0  0  0  0  0
    6.2450    2.2309   -3.4095 H   0  0  0  0  0  0  0  0  0  0  0  0
    7.3243    2.8136   -1.6656 C   0  0  0  0  0  0  0  0  0  0  0  0
    8.0992    2.0737   -1.7974 H   0  0  0  0  0  0  0  0  0  0  0  0
    9.0992    2.5282    0.9440 C   0  0  0  0  0  0  0  0  0  0  0  0
    8.7070    1.1347    0.9402 C   0  0  0  0  0  0  0  0  0  0  0  0
    7.3612    0.7726    0.8172 C   0  0  0  0  0  0  0  0  0  0  0  0
    6.6074    1.5400    0.7331 H   0  0  0  0  0  0  0  0  0  0  0  0
    6.9937   -0.5571    0.8356 C   0  0  0  0  0  0  0  0  0  0  0  0
    5.9520   -0.8247    0.7480 H   0  0  0  0  0  0  0  0  0  0  0  0
    7.9558   -1.5479    0.9696 C   0  0  0  0  0  0  0  0  0  0  0  0
    7.6642   -2.5867    0.9773 H   0  0  0  0  0  0  0  0  0  0  0  0
    9.2915   -1.1997    1.0965 C   0  0  0  0  0  0  0  0  0  0  0  0
   10.0424   -1.9679    1.2012 H   0  0  0  0  0  0  0  0  0  0  0  0
    9.6664    0.1291    1.0868 C   0  0  0  0  0  0  0  0  0  0  0  0
   10.7066    0.3986    1.1722 H   0  0  0  0  0  0  0  0  0  0  0  0
   10.2153    3.0636    1.7292 C   0  0  0  0  0  0  0  0  0  0  0  0
    9.7182    6.7538    0.8364 H   0  0  0  0  0  0  0  0  0  0  0  0
    8.3105    6.3039   -0.1733 H   0  0  0  0  0  0  0  0  0  0  0  0
   13.6430    3.3336    4.1741 H   0  0  0  0  0  0  0  0  0  0  0  0
  1  2  1  6  0  0  0
  1 22  1  0  0  0  0
  1  8  1  0  0  0  0
  3 61  1  0  0  0  0
  3  1  1  0  0  0  0
  4  9  1  0  0  0  0
  5 64  1  0  0  0  0
  6 22  2  0  0  0  0
  7 36  1  0  0  0  0
  7 62  1  0  0  0  0
  8  4  1  0  0  0  0
  9 18  1  0  0  0  0
  9 10  1  0  0  0  0
 10 12  1  0  0  0  0
 10 11  1  0  0  0  0
 13 10  1  0  0  0  0
 14 16  1  0  0  0  0
 14  9  1  0  0  0  0
 15 14  1  0  0  0  0
 17 14  1  0  0  0  0
 18 20  1  0  0  0  0
 18 21  1  0  0  0  0
 19 18  1  0  0  0  0
 22  5  1  0  0  0  0
 23  5  1  0  0  0  0
 23 32  1  0  0  0  0
 23 24  1  0  0  0  0
 24 27  1  0  0  0  0
 25 24  1  0  0  0  0
 26 24  1  0  0  0  0
 28 23  1  0  0  0  0
 29 28  1  0  0  0  0
 30 28  1  0  0  0  0
 31 28  1  0  0  0  0
 32 33  1  0  0  0  0
 34 32  1  0  0  0  0
 35 32  1  0  0  0  0
 36  3  1  0  0  0  0
 37 36  2  0  0  0  0
 37 49  1  0  0  0  0
 38 39  1  0  0  0  0
 38 37  1  0  0  0  0
 39 40  1  0  0  0  0
 41 42  1  0  0  0  0
 41 39  2  0  0  0  0
 43 41  1  0  0  0  0
 44 43  1  0  0  0  0
 45 43  2  0  0  0  0
 45 47  1  0  0  0  0
 46 45  1  0  0  0  0
 47 38  2  0  0  0  0
 48 47  1  0  0  0  0
 49 61  2  0  0  0  0
 50 49  1  0  0  0  0
 50 59  1  0  0  0  0
 51 53  1  0  0  0  0
 51 50  2  0  0  0  0
 52 51  1  0  0  0  0
 53 55  2  0  0  0  0
 54 53  1  0  0  0  0
 55 56  1  0  0  0  0
 55 57  1  0  0  0  0
 57 58  1  0  0  0  0
 59 57  2  0  0  0  0
 59 60  1  0  0  0  0
 61  6  1  0  0  0  0
 63  7  1  0  0  0  0
M  END
$$$$
