CSD_code = ZIVZUB | q = 0 | S = 0 | Stoichiometry = C8H10Cl2N6O4Pd | MND = 4
 OpenBabel04212202133D

 31 32  0  0  1  0  0  0  0  0999 V2000
    3.9490    0.0002   -0.0000 Pd  0  0  0  0  0  0  0  0  0  0  0  0
    1.9868    1.1618    0.2056 Cl  0  0  0  0  0  0  0  0  0  0  0  0
    5.3787    2.3369    0.5074 O   0  0  0  0  0  0  0  0  0  0  0  0
    6.0982    3.2597    2.3199 O   0  0  0  0  0  0  0  0  0  0  0  0
    4.3181    0.2870    1.8781 N   0  0  0  0  0  0  0  0  0  0  0  0
    4.3463   -0.0629    4.0307 N   0  0  0  0  0  0  0  0  0  0  0  0
    4.1849   -0.5047    4.9229 H   0  0  0  0  0  0  0  0  0  0  0  0
    5.5230    2.3759    1.7169 N   0  0  0  0  0  0  0  0  0  0  0  0
    3.9378   -0.5391    2.8247 C   0  0  2  0  0  3  0  0  0  0  0  0
    5.0085    1.1064    3.8371 C   0  0  0  0  0  0  0  0  0  0  0  0
    5.4361    1.6934    4.6224 H   0  0  0  0  0  0  0  0  0  0  0  0
    4.9833    1.3144    2.4762 C   0  0  0  0  0  0  0  0  0  0  0  0
    3.1859   -1.7843    2.5684 C   0  0  0  0  0  0  0  0  0  0  0  0
    2.2691   -1.5455    2.0179 H   0  0  0  0  0  0  0  0  0  0  0  0
    2.9412   -2.3037    3.4903 H   0  0  0  0  0  0  0  0  0  0  0  0
    3.7783   -2.4370    1.9183 H   0  0  0  0  0  0  0  0  0  0  0  0
    5.9110   -1.1617   -0.2055 Cl  0  0  0  0  0  0  0  0  0  0  0  0
    2.5188   -2.3366   -0.5074 O   0  0  0  0  0  0  0  0  0  0  0  0
    1.7989   -3.2592   -2.3199 O   0  0  0  0  0  0  0  0  0  0  0  0
    3.5801   -0.2870   -1.8781 N   0  0  0  0  0  0  0  0  0  0  0  0
    3.5517    0.0630   -4.0306 N   0  0  0  0  0  0  0  0  0  0  0  0
    3.7133    0.5047   -4.9229 H   0  0  0  0  0  0  0  0  0  0  0  0
    2.3743   -2.3755   -1.7169 N   0  0  0  0  0  0  0  0  0  0  0  0
    3.9605    0.5389   -2.8248 C   0  0  1  0  0  3  0  0  0  0  0  0
    2.8891   -1.1061   -3.8371 C   0  0  0  0  0  0  0  0  0  0  0  0
    2.4611   -1.6929   -4.6224 H   0  0  0  0  0  0  0  0  0  0  0  0
    2.9144   -1.3142   -2.4762 C   0  0  0  0  0  0  0  0  0  0  0  0
    4.7131    1.7838   -2.5685 C   0  0  0  0  0  0  0  0  0  0  0  0
    5.6308    1.5443   -2.0198 H   0  0  0  0  0  0  0  0  0  0  0  0
    4.9563    2.3041   -3.4903 H   0  0  0  0  0  0  0  0  0  0  0  0
    4.1219    2.4359   -1.9166 H   0  0  0  0  0  0  0  0  0  0  0  0
  1  2  1  0  0  0  0
  1  5  1  0  0  0  0
  3  8  2  0  0  0  0
  5 12  1  0  0  0  0
  5  9  1  0  0  0  0
  6  7  1  0  0  0  0
  8  4  2  0  0  0  0
  8 12  1  0  0  0  0
  9 13  1  6  0  0  0
  9  6  1  0  0  0  0
 10  6  1  0  0  0  0
 10 11  1  0  0  0  0
 12 10  2  0  0  0  0
 13 15  1  0  0  0  0
 14 13  1  0  0  0  0
 16 13  1  0  0  0  0
 17  1  1  0  0  0  0
 19 23  2  0  0  0  0
 20  1  1  0  0  0  0
 21 25  1  0  0  0  0
 21 24  1  0  0  0  0
 22 21  1  0  0  0  0
 23 18  2  0  0  0  0
 24 28  1  1  0  0  0
 24 20  1  0  0  0  0
 25 27  2  0  0  0  0
 26 25  1  0  0  0  0
 27 20  1  0  0  0  0
 27 23  1  0  0  0  0
 28 29  1  0  0  0  0
 28 31  1  0  0  0  0
 30 28  1  0  0  0  0
M  END
$$$$
