CSD_code = ZIWFAO | q = 0 | S = 0 | Stoichiometry = C22H24Cl2N2O8Pt | MND = 4
 OpenBabel04212202133D

 59 61  0  0  0  0  0  0  0  0999 V2000
    3.4913    6.7087    1.6443 Pt  0  0  0  0  0  0  0  0  0  0  0  0
    5.1150    7.6346    0.3424 Cl  0  0  0  0  0  0  0  0  0  0  0  0
    4.5272    4.7493    1.1726 Cl  0  0  0  0  0  0  0  0  0  0  0  0
    3.1513    5.5023    6.6563 O   0  0  0  0  0  0  0  0  0  0  0  0
    1.2803    5.3892    5.4331 O   0  0  0  0  0  0  0  0  0  0  0  0
    5.6112    4.4468    5.1469 O   0  0  0  0  0  0  0  0  0  0  0  0
    4.2717    2.6901    5.5181 O   0  0  0  0  0  0  0  0  0  0  0  0
    4.0300    9.7472    5.4058 O   0  0  0  0  0  0  0  0  0  0  0  0
    3.2962    7.8292    4.5173 O   0  0  0  0  0  0  0  0  0  0  0  0
    6.9129    8.9290    4.6865 O   0  0  0  0  0  0  0  0  0  0  0  0
    6.5426   10.9151    3.7169 O   0  0  0  0  0  0  0  0  0  0  0  0
    1.7616    5.9170    2.4042 N   0  0  0  0  0  0  0  0  0  0  0  0
    2.4614    8.4128    1.9237 N   0  0  0  0  0  0  0  0  0  0  0  0
    1.4746    4.6886    2.8402 C   0  0  0  0  0  0  0  0  0  0  0  0
    0.1814    4.1789    2.7371 C   0  0  0  0  0  0  0  0  0  0  0  0
   -0.0168    3.1729    3.0688 H   0  0  0  0  0  0  0  0  0  0  0  0
   -0.8291    4.9666    2.2219 C   0  0  0  0  0  0  0  0  0  0  0  0
   -1.8297    4.5789    2.1084 H   0  0  0  0  0  0  0  0  0  0  0  0
   -0.5457    6.2819    1.8958 C   0  0  0  0  0  0  0  0  0  0  0  0
   -1.3270    6.9320    1.5395 H   0  0  0  0  0  0  0  0  0  0  0  0
    0.7616    6.7408    2.0169 C   0  0  0  0  0  0  0  0  0  0  0  0
    1.1387    8.1473    1.8507 C   0  0  0  0  0  0  0  0  0  0  0  0
    0.2016    9.1733    1.7555 C   0  0  0  0  0  0  0  0  0  0  0  0
   -0.8487    8.9503    1.6773 H   0  0  0  0  0  0  0  0  0  0  0  0
    0.6342   10.4857    1.7771 C   0  0  0  0  0  0  0  0  0  0  0  0
   -0.0698   11.2982    1.6862 H   0  0  0  0  0  0  0  0  0  0  0  0
    1.9831   10.7357    1.9648 C   0  0  0  0  0  0  0  0  0  0  0  0
    2.3484   11.7468    2.0471 H   0  0  0  0  0  0  0  0  0  0  0  0
    2.8819    9.6770    2.0458 C   0  0  0  0  0  0  0  0  0  0  0  0
    2.5573    3.8598    3.4504 C   0  0  0  0  0  0  0  0  0  0  0  0
    3.2387    3.5273    2.6596 H   0  0  0  0  0  0  0  0  0  0  0  0
    2.1272    2.9876    3.9430 H   0  0  0  0  0  0  0  0  0  0  0  0
    3.3747    4.6680    4.4642 C   0  0  0  0  0  0  0  0  0  0  0  0
    3.8656    5.5167    3.9662 H   0  0  0  0  0  0  0  0  0  0  0  0
    2.4663    5.2275    5.5453 C   0  0  0  0  0  0  0  0  0  0  0  0
    4.4510    3.8039    5.1031 C   0  0  0  0  0  0  0  0  0  0  0  0
    6.7059    3.7411    5.7155 C   0  0  0  0  0  0  0  0  0  0  0  0
    6.5338    3.5707    6.7803 H   0  0  0  0  0  0  0  0  0  0  0  0
    7.5819    4.3658    5.5635 H   0  0  0  0  0  0  0  0  0  0  0  0
    6.8309    2.7770    5.2192 H   0  0  0  0  0  0  0  0  0  0  0  0
    2.3924    5.9905    7.7539 C   0  0  0  0  0  0  0  0  0  0  0  0
    1.7393    6.8033    7.4308 H   0  0  0  0  0  0  0  0  0  0  0  0
    3.1086    6.3360    8.4955 H   0  0  0  0  0  0  0  0  0  0  0  0
    1.7777    5.1890    8.1691 H   0  0  0  0  0  0  0  0  0  0  0  0
    4.3313    9.9726    2.2850 C   0  0  0  0  0  0  0  0  0  0  0  0
    4.4468   11.0164    2.5812 H   0  0  0  0  0  0  0  0  0  0  0  0
    4.8795    9.8096    1.3510 H   0  0  0  0  0  0  0  0  0  0  0  0
    4.9919    9.0866    3.3574 C   0  0  0  0  0  0  0  0  0  0  0  0
    5.2819    8.1185    2.9207 H   0  0  0  0  0  0  0  0  0  0  0  0
    4.0195    8.7928    4.4812 C   0  0  0  0  0  0  0  0  0  0  0  0
    6.2294    9.7745    3.9175 C   0  0  0  0  0  0  0  0  0  0  0  0
    3.1425    9.5853    6.5050 C   0  0  0  0  0  0  0  0  0  0  0  0
    2.1409    9.3355    6.1488 H   0  0  0  0  0  0  0  0  0  0  0  0
    3.1374   10.5343    7.0350 H   0  0  0  0  0  0  0  0  0  0  0  0
    3.5005    8.7863    7.1566 H   0  0  0  0  0  0  0  0  0  0  0  0
    8.1003    9.4395    5.2806 C   0  0  0  0  0  0  0  0  0  0  0  0
    8.8224    9.7070    4.5072 H   0  0  0  0  0  0  0  0  0  0  0  0
    8.4915    8.6440    5.9089 H   0  0  0  0  0  0  0  0  0  0  0  0
    7.8747   10.3271    5.8749 H   0  0  0  0  0  0  0  0  0  0  0  0
  1 13  1  0  0  0  0
  1 12  1  0  0  0  0
  2  1  1  0  0  0  0
  3  1  1  0  0  0  0
  4 41  1  0  0  0  0
  5 35  2  0  0  0  0
  6 37  1  0  0  0  0
  8 52  1  0  0  0  0
 10 56  1  0  0  0  0
 11 51  2  0  0  0  0
 12 14  1  0  0  0  0
 13 29  1  0  0  0  0
 14 30  1  0  0  0  0
 15 14  2  0  0  0  0
 15 16  1  0  0  0  0
 17 15  1  0  0  0  0
 18 17  1  0  0  0  0
 19 21  1  0  0  0  0
 19 17  2  0  0  0  0
 20 19  1  0  0  0  0
 21 12  1  0  0  0  0
 22 13  1  0  0  0  0
 22 21  2  0  0  0  0
 23 25  2  0  0  0  0
 23 22  1  0  0  0  0
 24 23  1  0  0  0  0
 25 27  1  0  0  0  0
 26 25  1  0  0  0  0
 27 29  2  0  0  0  0
 27 28  1  0  0  0  0
 29 45  1  0  0  0  0
 30 32  1  0  0  0  0
 30 33  1  0  0  0  0
 31 30  1  0  0  0  0
 33 36  1  0  0  0  0
 33 35  1  0  0  0  0
 34 33  1  0  0  0  0
 35  4  1  0  0  0  0
 36  6  1  0  0  0  0
 36  7  2  0  0  0  0
 37 38  1  0  0  0  0
 39 37  1  0  0  0  0
 40 37  1  0  0  0  0
 41 44  1  0  0  0  0
 41 43  1  0  0  0  0
 42 41  1  0  0  0  0
 45 46  1  0  0  0  0
 45 48  1  0  0  0  0
 47 45  1  0  0  0  0
 48 51  1  0  0  0  0
 48 50  1  0  0  0  0
 49 48  1  0  0  0  0
 50  9  2  0  0  0  0
 50  8  1  0  0  0  0
 51 10  1  0  0  0  0
 52 54  1  0  0  0  0
 52 55  1  0  0  0  0
 53 52  1  0  0  0  0
 56 59  1  0  0  0  0
 56 58  1  0  0  0  0
 57 56  1  0  0  0  0
M  END
$$$$
