CSD_code = ZIWTEH | q = 0 | S = 0 | Stoichiometry = C14H12Cl2N4Pd | MND = 4
 OpenBabel04212202133D

 33 36  0  0  0  0  0  0  0  0999 V2000
    6.8620    6.6306   -0.0030 Pd  0  0  0  0  0  0  0  0  0  0  0  0
    7.0705    5.5824   -2.0209 Cl  0  0  0  0  0  0  0  0  0  0  0  0
    4.9106    6.4837   -0.1292 N   0  0  0  0  0  0  0  0  0  0  0  0
    2.7183    6.5340   -0.3891 N   0  0  0  0  0  0  0  0  0  0  0  0
    1.8099    6.8706   -0.6611 H   0  0  0  0  0  0  0  0  0  0  0  0
    4.3914    5.3333    0.4123 C   0  0  0  0  0  0  0  0  0  0  0  0
    5.0458    4.2717    1.0328 C   0  0  0  0  0  0  0  0  0  0  0  0
    6.1354    4.2873    1.1410 H   0  0  0  0  0  0  0  0  0  0  0  0
    4.2560    3.2367    1.4851 C   0  0  0  0  0  0  0  0  0  0  0  0
    4.7109    2.3887    1.9736 H   0  0  0  0  0  0  0  0  0  0  0  0
    2.8656    3.2553    1.3270 C   0  0  0  0  0  0  0  0  0  0  0  0
    2.2898    2.4209    1.6980 H   0  0  0  0  0  0  0  0  0  0  0  0
    2.2078    4.3026    0.7136 C   0  0  0  0  0  0  0  0  0  0  0  0
    1.1351    4.3049    0.5974 H   0  0  0  0  0  0  0  0  0  0  0  0
    2.9921    5.3513    0.2537 C   0  0  0  0  0  0  0  0  0  0  0  0
    3.9026    7.1685   -0.5922 C   0  0  0  0  0  3  0  0  0  0  0  0
    3.9775    8.1242   -1.0801 H   0  0  0  0  0  0  0  0  0  0  0  0
    6.6534    7.6771    2.0159 Cl  0  0  0  0  0  0  0  0  0  0  0  0
    8.8128    6.7757    0.1245 N   0  0  0  0  0  0  0  0  0  0  0  0
   11.0039    6.7194    0.3915 N   0  0  0  0  0  0  0  0  0  0  0  0
   11.9106    6.3802    0.6663 H   0  0  0  0  0  0  0  0  0  0  0  0
    9.3366    7.9249   -0.4148 C   0  0  0  0  0  0  0  0  0  0  0  0
    8.6869    8.9885   -1.0367 C   0  0  0  0  0  0  0  0  0  0  0  0
    7.5977    8.9754   -1.1482 H   0  0  0  0  0  0  0  0  0  0  0  0
    9.4809   10.0216   -1.4859 C   0  0  0  0  0  0  0  0  0  0  0  0
    9.0297   10.8712   -1.9753 H   0  0  0  0  0  0  0  0  0  0  0  0
   10.8707    9.9994   -1.3233 C   0  0  0  0  0  0  0  0  0  0  0  0
   11.4498   10.8324   -1.6920 H   0  0  0  0  0  0  0  0  0  0  0  0
   11.5239    8.9500   -0.7084 C   0  0  0  0  0  0  0  0  0  0  0  0
   12.5962    8.9449   -0.5888 H   0  0  0  0  0  0  0  0  0  0  0  0
   10.7353    7.9031   -0.2517 C   0  0  0  0  0  0  0  0  0  0  0  0
    9.8173    6.0880    0.5905 C   0  0  0  0  0  3  0  0  0  0  0  0
    9.7382    5.1323    1.0777 H   0  0  0  0  0  0  0  0  0  0  0  0
  1 19  1  0  0  0  0
  1 18  1  0  0  0  0
  2  1  1  0  0  0  0
  3  1  1  0  0  0  0
  3  6  1  0  0  0  0
  4 15  1  0  0  0  0
  5  4  1  0  0  0  0
  6  7  1  0  0  0  0
  7  8  1  0  0  0  0
  7  9  2  0  0  0  0
  9 10  1  0  0  0  0
 11  9  1  0  0  0  0
 11 12  1  0  0  0  0
 13 11  2  0  0  0  0
 14 13  1  0  0  0  0
 15  6  2  0  0  0  0
 15 13  1  0  0  0  0
 16  4  1  0  0  0  0
 16  3  1  0  0  0  0
 17 16  1  0  0  0  0
 19 32  1  0  0  0  0
 20 32  1  0  0  0  0
 20 21  1  0  0  0  0
 22 31  1  0  0  0  0
 22 19  1  0  0  0  0
 23 22  2  0  0  0  0
 24 23  1  0  0  0  0
 25 27  2  0  0  0  0
 25 23  1  0  0  0  0
 26 25  1  0  0  0  0
 27 29  1  0  0  0  0
 28 27  1  0  0  0  0
 29 30  1  0  0  0  0
 29 31  2  0  0  0  0
 31 20  1  0  0  0  0
 32 33  1  0  0  0  0
M  END
$$$$
