CSD_code = ZIXVOU | q = 0 | S = 0 | Stoichiometry = C14H16Cl4N6S4Zn | MND = 4
 OpenBabel04212202133D

 45 46  0  0  0  0  0  0  0  0999 V2000
   -0.8085   11.8213    4.8074 Zn  0  0  0  0  0  0  0  0  0  0  0  0
    0.9507   10.0684    5.4656 S   0  0  0  0  0  0  0  0  0  0  0  0
    0.0320   12.8295    2.9782 Cl  0  0  0  0  0  0  0  0  0  0  0  0
    1.6973    7.0242   -0.1091 S   0  0  0  0  0  0  0  0  0  0  0  0
    2.3087    5.0344   -2.2563 Cl  0  0  0  0  0  0  0  0  0  0  0  0
    0.5153    9.3873    0.5771 C   0  0  0  0  0  0  0  0  0  0  0  0
    0.7927    9.7761    2.8251 N   0  0  0  0  0  0  0  0  0  0  0  0
    0.4417   10.7448    2.7653 H   0  0  0  0  0  0  0  0  0  0  0  0
    0.9773    9.0194    1.7195 N   0  0  0  0  0  0  0  0  0  0  0  0
    0.7944    8.4662   -0.4926 C   0  0  0  0  0  0  0  0  0  0  0  0
    1.1893    9.2727    3.9984 C   0  0  0  0  0  0  0  0  0  0  0  0
    1.7741    8.0728    3.9905 N   0  0  0  0  0  4  0  0  0  0  0  0
    1.9343    7.6365    3.0938 H   0  0  0  0  0  0  0  0  0  0  0  0
    2.0943    7.6644    4.8496 H   0  0  0  0  0  0  0  0  0  0  0  0
    0.4645    8.5021   -1.8221 C   0  0  0  0  0  0  0  0  0  0  0  0
   -0.0904    9.2984   -2.2829 H   0  0  0  0  0  0  0  0  0  0  0  0
    0.9216    7.3860   -2.5444 C   0  0  0  0  0  0  0  0  0  0  0  0
    0.7577    7.2394   -3.5959 H   0  0  0  0  0  0  0  0  0  0  0  0
    1.6020    6.5038   -1.7578 C   0  0  0  0  0  0  0  0  0  0  0  0
   -0.2685   10.6353    0.3329 C   0  0  0  0  0  0  0  0  0  0  0  0
   -1.1741   10.6199    0.9409 H   0  0  0  0  0  0  0  0  0  0  0  0
   -0.5460   10.7356   -0.7094 H   0  0  0  0  0  0  0  0  0  0  0  0
    0.3035   11.5125    0.6346 H   0  0  0  0  0  0  0  0  0  0  0  0
   -2.5685   10.0687    4.1487 S   0  0  0  0  0  0  0  0  0  0  0  0
   -1.6496   12.8296    6.6362 Cl  0  0  0  0  0  0  0  0  0  0  0  0
   -3.3149    7.0242    9.7233 S   0  0  0  0  0  0  0  0  0  0  0  0
   -3.9262    5.0342   11.8705 Cl  0  0  0  0  0  0  0  0  0  0  0  0
   -2.1330    9.3874    9.0372 C   0  0  0  0  0  0  0  0  0  0  0  0
   -2.4105    9.7763    6.7893 N   0  0  0  0  0  0  0  0  0  0  0  0
   -2.0594   10.7450    6.8491 H   0  0  0  0  0  0  0  0  0  0  0  0
   -2.5950    9.0195    7.8948 N   0  0  0  0  0  0  0  0  0  0  0  0
   -2.4121    8.4663   10.1069 C   0  0  0  0  0  0  0  0  0  0  0  0
   -2.8071    9.2729    5.6160 C   0  0  0  0  0  0  0  0  0  0  0  0
   -3.3918    8.0730    5.6238 N   0  0  0  0  0  4  0  0  0  0  0  0
   -3.5519    7.6366    6.5205 H   0  0  0  0  0  0  0  0  0  0  0  0
   -3.7119    7.6646    4.7647 H   0  0  0  0  0  0  0  0  0  0  0  0
   -2.0822    8.5021   11.4364 C   0  0  0  0  0  0  0  0  0  0  0  0
   -1.5273    9.2984   11.8972 H   0  0  0  0  0  0  0  0  0  0  0  0
   -2.5391    7.3859   12.1587 C   0  0  0  0  0  0  0  0  0  0  0  0
   -2.3752    7.2393   13.2102 H   0  0  0  0  0  0  0  0  0  0  0  0
   -3.2195    6.5038   11.3721 C   0  0  0  0  0  0  0  0  0  0  0  0
   -1.3493   10.6355    9.2816 C   0  0  0  0  0  0  0  0  0  0  0  0
   -0.4438   10.6202    8.6735 H   0  0  0  0  0  0  0  0  0  0  0  0
   -1.0719   10.7358   10.3238 H   0  0  0  0  0  0  0  0  0  0  0  0
   -1.9215   11.5126    8.9798 H   0  0  0  0  0  0  0  0  0  0  0  0
  1  2  1  0  0  0  0
  1 25  1  0  0  0  0
  3  1  1  0  0  0  0
  5 19  1  0  0  0  0
  6  9  2  0  0  0  0
  7 11  1  0  0  0  0
  8  7  1  0  0  0  0
  9  7  1  0  0  0  0
 10  4  1  0  0  0  0
 10  6  1  0  0  0  0
 11  2  1  0  0  0  0
 12 11  2  0  0  0  0
 12 14  1  0  0  0  0
 13 12  1  0  0  0  0
 15 10  2  0  0  0  0
 16 15  1  0  0  0  0
 17 15  1  0  0  0  0
 17 19  2  0  0  0  0
 18 17  1  0  0  0  0
 19  4  1  0  0  0  0
 20  6  1  0  0  0  0
 20 23  1  0  0  0  0
 20 21  1  0  0  0  0
 22 20  1  0  0  0  0
 24  1  1  0  0  0  0
 24 33  1  0  0  0  0
 26 32  1  0  0  0  0
 26 41  1  0  0  0  0
 28 42  1  0  0  0  0
 28 32  1  0  0  0  0
 29 30  1  0  0  0  0
 29 31  1  0  0  0  0
 31 28  2  0  0  0  0
 32 37  2  0  0  0  0
 33 34  2  0  0  0  0
 33 29  1  0  0  0  0
 34 35  1  0  0  0  0
 36 34  1  0  0  0  0
 37 38  1  0  0  0  0
 37 39  1  0  0  0  0
 39 40  1  0  0  0  0
 41 27  1  0  0  0  0
 41 39  2  0  0  0  0
 42 44  1  0  0  0  0
 43 42  1  0  0  0  0
 45 42  1  0  0  0  0
M  END
$$$$
