CSD_code = ZIYCES | q = 0 | S = 0 | Stoichiometry = C14H22Br2N2OZn | MND = 4
 OpenBabel04212202133D

 42 43  0  0  0  0  0  0  0  0999 V2000
    2.6784    9.8608    5.9656 Zn  0  0  0  0  0  0  0  0  0  0  0  0
    0.4590    9.4546    6.8645 Br  0  0  0  0  0  0  0  0  0  0  0  0
    3.4408    8.1031    4.5817 Br  0  0  0  0  0  0  0  0  0  0  0  0
    2.9333   11.6409    5.6005 O   0  0  0  0  0  0  0  0  0  0  0  0
    3.7535    9.8451    7.7660 N   0  0  0  0  0  0  0  0  0  0  0  0
    2.2637    5.6261    8.0359 N   0  0  0  0  0  4  0  0  0  0  0  0
    3.1928   12.2238    7.9094 C   0  0  0  0  0  0  0  0  0  0  0  0
    3.0989   13.2661    8.8573 C   0  0  0  0  0  0  0  0  0  0  0  0
    3.3452   13.0399    9.8869 H   0  0  0  0  0  0  0  0  0  0  0  0
    2.7011   14.5277    8.5150 C   0  0  0  0  0  0  0  0  0  0  0  0
    2.6283   15.3027    9.2627 H   0  0  0  0  0  0  0  0  0  0  0  0
    2.3914   14.8086    7.1787 C   0  0  0  0  0  0  0  0  0  0  0  0
    2.0799   15.8057    6.9011 H   0  0  0  0  0  0  0  0  0  0  0  0
    2.4803   13.8333    6.2267 C   0  0  0  0  0  0  0  0  0  0  0  0
    2.2423   14.0356    5.1927 H   0  0  0  0  0  0  0  0  0  0  0  0
    2.8687   12.5063    6.5455 C   0  0  0  0  0  0  0  0  0  0  0  0
    3.6655   10.9742    8.3871 C   0  0  0  0  0  3  0  0  0  0  0  0
    4.0181   11.0027    9.4272 H   0  0  0  0  0  0  0  0  0  0  0  0
    4.4349    8.7853    8.4821 C   0  0  0  0  0  0  0  0  0  0  0  0
    4.2598    8.8882    9.5643 H   0  0  0  0  0  0  0  0  0  0  0  0
    5.5120    8.9056    8.3070 H   0  0  0  0  0  0  0  0  0  0  0  0
    4.0599    7.3704    8.0329 C   0  0  0  0  0  0  0  0  0  0  0  0
    4.2569    7.2861    6.9657 H   0  0  0  0  0  0  0  0  0  0  0  0
    4.7236    6.6771    8.5596 H   0  0  0  0  0  0  0  0  0  0  0  0
    2.6084    7.0378    8.3549 C   0  0  0  0  0  0  0  0  0  0  0  0
    2.4355    7.1981    9.4217 H   0  0  0  0  0  0  0  0  0  0  0  0
    1.9244    7.6880    7.8080 H   0  0  0  0  0  0  0  0  0  0  0  0
    1.0711    5.1896    8.8037 C   0  0  0  0  0  0  0  0  0  0  0  0
    1.2347    5.4478    9.8522 H   0  0  0  0  0  0  0  0  0  0  0  0
    0.2160    5.7605    8.4414 H   0  0  0  0  0  0  0  0  0  0  0  0
    0.8263    3.6939    8.6938 C   0  0  0  0  0  0  0  0  0  0  0  0
    0.5509    3.3991    7.6864 H   0  0  0  0  0  0  0  0  0  0  0  0
    0.0081    3.4215    9.3543 H   0  0  0  0  0  0  0  0  0  0  0  0
    1.7059    3.1294    8.9982 H   0  0  0  0  0  0  0  0  0  0  0  0
    2.1312    5.3690    6.5630 C   0  0  0  0  0  0  0  0  0  0  0  0
    2.2824    4.3012    6.4005 H   0  0  0  0  0  0  0  0  0  0  0  0
    2.9291    5.9090    6.0517 H   0  0  0  0  0  0  0  0  0  0  0  0
    0.8081    5.8053    5.9625 C   0  0  0  0  0  0  0  0  0  0  0  0
   -0.0090    5.1333    6.2065 H   0  0  0  0  0  0  0  0  0  0  0  0
    0.9322    5.8156    4.8838 H   0  0  0  0  0  0  0  0  0  0  0  0
    0.5358    6.8135    6.2588 H   0  0  0  0  0  0  0  0  0  0  0  0
    3.0574    5.0556    8.3465 H   0  0  0  0  0  0  0  0  0  0  0  0
  1  2  1  0  0  0  0
  1  5  1  0  0  0  0
  3  1  1  0  0  0  0
  4  1  1  0  0  0  0
  4 16  1  0  0  0  0
  5 17  1  0  0  0  0
  5 19  1  0  0  0  0
  6 42  1  0  0  0  0
  6 25  1  0  0  0  0
  6 28  1  0  0  0  0
  7 17  1  0  0  0  0
  7  8  1  0  0  0  0
  8  9  1  0  0  0  0
 10  8  2  0  0  0  0
 10 11  1  0  0  0  0
 12 10  1  0  0  0  0
 13 12  1  0  0  0  0
 14 16  1  0  0  0  0
 14 12  2  0  0  0  0
 15 14  1  0  0  0  0
 16  7  2  0  0  0  0
 17 18  1  0  0  0  0
 19 20  1  0  0  0  0
 21 19  1  0  0  0  0
 22 25  1  0  0  0  0
 22 19  1  0  0  0  0
 22 24  1  0  0  0  0
 23 22  1  0  0  0  0
 25 26  1  0  0  0  0
 27 25  1  0  0  0  0
 28 29  1  0  0  0  0
 30 28  1  0  0  0  0
 31 28  1  0  0  0  0
 31 34  1  0  0  0  0
 31 33  1  0  0  0  0
 32 31  1  0  0  0  0
 35  6  1  0  0  0  0
 36 35  1  0  0  0  0
 37 35  1  0  0  0  0
 38 39  1  0  0  0  0
 38 41  1  0  0  0  0
 38 35  1  0  0  0  0
 40 38  1  0  0  0  0
M  END
$$$$
