CSD_code = ZIYXEK | q = 0 | S = 0 | Stoichiometry = C16H24HgI2O6 | MND = 8
 OpenBabel04212202133D

 49 49  0  0  0  0  0  0  0  0999 V2000
    1.2314    1.9193   10.2840 Hg  0  0  0  0  0  0  0  0  0  0  0  0
    0.1541    4.2434    9.7470 I   0  0  0  0  0  0  0  0  0  0  0  0
    2.2855   -0.4003   10.8422 I   0  0  0  0  0  0  0  0  0  0  0  0
   -0.6821    0.5489    8.7780 O   0  0  0  0  0  0  0  0  0  0  0  0
   -1.6644   -0.0553    9.5873 C   0  0  0  0  0  0  0  0  0  0  0  0
   -2.4985   -0.4328    8.9889 H   0  0  0  0  0  0  0  0  0  0  0  0
   -1.1558   -0.8984   10.0655 H   0  0  0  0  0  0  0  0  0  0  0  0
   -2.1674    0.8815   10.6894 C   0  0  0  0  0  0  0  0  0  0  0  0
   -3.0199    0.4187   11.2078 H   0  0  0  0  0  0  0  0  0  0  0  0
   -2.4875    1.8454   10.2667 H   0  0  0  0  0  0  0  0  0  0  0  0
   -1.0991    1.0689   11.5932 O   0  0  0  0  0  0  0  0  0  0  0  0
   -1.4093    1.8649   12.7150 C   0  0  0  0  0  0  0  0  0  0  0  0
   -1.6945    2.8788   12.4019 H   0  0  0  0  0  0  0  0  0  0  0  0
   -2.2408    1.4131   13.2750 H   0  0  0  0  0  0  0  0  0  0  0  0
   -0.1732    1.9348   13.6050 C   0  0  0  0  0  0  0  0  0  0  0  0
    0.1983    0.9172   13.7916 H   0  0  0  0  0  0  0  0  0  0  0  0
   -0.4364    2.4030   14.5648 H   0  0  0  0  0  0  0  0  0  0  0  0
    0.8108    2.7034   12.9502 O   0  0  0  0  0  0  0  0  0  0  0  0
    2.0168    2.8232   13.6709 C   0  0  0  0  0  0  0  0  0  0  0  0
    1.8257    3.3027   14.6422 H   0  0  0  0  0  0  0  0  0  0  0  0
    2.4614    1.8322   13.8406 H   0  0  0  0  0  0  0  0  0  0  0  0
    2.9847    3.6804   12.8630 C   0  0  0  0  0  0  0  0  0  0  0  0
    3.8617    3.9237   13.4805 H   0  0  0  0  0  0  0  0  0  0  0  0
    2.4855    4.6130   12.5638 H   0  0  0  0  0  0  0  0  0  0  0  0
    3.3877    2.9516   11.7247 O   0  0  0  0  0  0  0  0  0  0  0  0
    4.3197    3.6268   10.9105 C   0  0  0  0  0  0  0  0  0  0  0  0
    3.9085    4.5891   10.5742 H   0  0  0  0  0  0  0  0  0  0  0  0
    5.2458    3.8090   11.4751 H   0  0  0  0  0  0  0  0  0  0  0  0
    4.6224    2.7562    9.6961 C   0  0  0  0  0  0  0  0  0  0  0  0
    4.8619    1.7366   10.0281 H   0  0  0  0  0  0  0  0  0  0  0  0
    5.4837    3.1682    9.1506 H   0  0  0  0  0  0  0  0  0  0  0  0
    3.4857    2.7522    8.8599 O   0  0  0  0  0  0  0  0  0  0  0  0
    3.6265    1.9669    7.6949 C   0  0  0  0  0  0  0  0  0  0  0  0
    4.5205    2.2834    7.1388 H   0  0  0  0  0  0  0  0  0  0  0  0
    3.7238    0.9032    7.9524 H   0  0  0  0  0  0  0  0  0  0  0  0
    2.3923    2.1822    6.8252 C   0  0  0  0  0  0  0  0  0  0  0  0
    2.5686    1.7510    5.8308 H   0  0  0  0  0  0  0  0  0  0  0  0
    2.2126    3.2616    6.7363 H   0  0  0  0  0  0  0  0  0  0  0  0
    1.2887    1.5520    7.4399 O   0  0  0  0  0  0  0  0  0  0  0  0
    0.0386    1.8007    6.9291 C   0  0  0  0  0  0  0  0  0  0  0  0
   -0.2148    2.5206    5.7753 C   0  0  0  0  0  0  0  0  0  0  0  0
    0.5972    2.9202    5.1900 H   0  0  0  0  0  0  0  0  0  0  0  0
   -1.5202    2.7430    5.3601 C   0  0  0  0  0  0  0  0  0  0  0  0
   -1.6993    3.3102    4.4603 H   0  0  0  0  0  0  0  0  0  0  0  0
   -2.5751    2.2557    6.0999 C   0  0  0  0  0  0  0  0  0  0  0  0
   -3.5923    2.4405    5.7917 H   0  0  0  0  0  0  0  0  0  0  0  0
   -2.3375    1.5257    7.2560 C   0  0  0  0  0  0  0  0  0  0  0  0
   -3.1773    1.1668    7.8301 H   0  0  0  0  0  0  0  0  0  0  0  0
   -1.0423    1.2783    7.6722 C   0  0  0  0  0  0  0  0  0  0  0  0
  1  3  1  0  0  0  0
  2  1  1  0  0  0  0
  4  5  1  0  0  0  0
  5  7  1  0  0  0  0
  5  8  1  0  0  0  0
  6  5  1  0  0  0  0
  8  9  1  0  0  0  0
  8 11  1  0  0  0  0
 10  8  1  0  0  0  0
 11 12  1  0  0  0  0
 12 14  1  0  0  0  0
 12 15  1  0  0  0  0
 13 12  1  0  0  0  0
 15 16  1  0  0  0  0
 15 17  1  0  0  0  0
 18 15  1  0  0  0  0
 18 19  1  0  0  0  0
 19 21  1  0  0  0  0
 19 20  1  0  0  0  0
 22 23  1  0  0  0  0
 22 19  1  0  0  0  0
 24 22  1  0  0  0  0
 25 22  1  0  0  0  0
 26 28  1  0  0  0  0
 26 25  1  0  0  0  0
 27 26  1  0  0  0  0
 29 30  1  0  0  0  0
 29 26  1  0  0  0  0
 31 29  1  0  0  0  0
 32 29  1  0  0  0  0
 33 35  1  0  0  0  0
 33 32  1  0  0  0  0
 34 33  1  0  0  0  0
 36 39  1  0  0  0  0
 36 33  1  0  0  0  0
 37 36  1  0  0  0  0
 38 36  1  0  0  0  0
 40 39  1  0  0  0  0
 40 49  1  0  0  0  0
 41 40  2  0  0  0  0
 42 41  1  0  0  0  0
 43 41  1  0  0  0  0
 43 45  2  0  0  0  0
 44 43  1  0  0  0  0
 45 47  1  0  0  0  0
 46 45  1  0  0  0  0
 47 49  2  0  0  0  0
 47 48  1  0  0  0  0
 49  4  1  0  0  0  0
M  END
$$$$
