CSD_code = ZIZCOC | q = 1 | S = 0 | Stoichiometry = C14H20ClN4OZn(1+) | MND = 6
 OpenBabel04212202133D

 41 44  0  0  1  0  0  0  0  0999 V2000
    2.3383    7.4511    0.8701 C   0  0  2  0  0  3  0  0  0  0  0  0
    1.4408    5.4091    1.3905 C   0  0  0  0  0  0  0  0  0  0  0  0
    1.0316    4.7740    2.1637 H   0  0  0  0  0  0  0  0  0  0  0  0
    1.5038    4.9793    0.0795 C   0  0  0  0  0  0  0  0  0  0  0  0
    1.1587    3.9945   -0.1893 H   0  0  0  0  0  0  0  0  0  0  0  0
    2.0243    5.8439   -0.8738 C   0  0  0  0  0  0  0  0  0  0  0  0
    2.1015    5.5445   -1.9072 H   0  0  0  0  0  0  0  0  0  0  0  0
    2.4363    7.1015   -0.4721 C   0  0  0  0  0  0  0  0  0  0  0  0
    2.8392    7.8064   -1.1821 H   0  0  0  0  0  0  0  0  0  0  0  0
    2.8079    8.7987    1.3461 C   0  0  0  0  0  0  0  0  0  0  0  0
    3.8975    8.7484    1.4378 H   0  0  0  0  0  0  0  0  0  0  0  0
    2.5601    9.5640    0.5989 H   0  0  0  0  0  0  0  0  0  0  0  0
    0.8407    9.4787    2.6254 C   0  0  0  0  0  0  0  0  0  0  0  0
    0.6941   10.5330    2.3655 H   0  0  0  0  0  0  0  0  0  0  0  0
    0.3464    8.8650    1.8688 H   0  0  0  0  0  0  0  0  0  0  0  0
    0.2181    9.1859    3.9870 C   0  0  0  0  0  0  0  0  0  0  0  0
    0.7486    9.7573    4.7520 H   0  0  0  0  0  0  0  0  0  0  0  0
   -0.8341    9.4933    3.9918 H   0  0  0  0  0  0  0  0  0  0  0  0
    0.2145    7.4745    5.7137 C   0  0  0  0  0  0  0  0  0  0  0  0
    0.0795    6.3959    5.8335 H   0  0  0  0  0  0  0  0  0  0  0  0
   -0.6579    7.9817    6.1457 H   0  0  0  0  0  0  0  0  0  0  0  0
    1.4592    7.8607    6.4682 C   0  0  1  0  0  3  0  0  0  0  0  0
    3.7326    8.1712    6.3864 C   0  0  0  0  0  0  0  0  0  0  0  0
    4.6183    8.1534    5.7676 H   0  0  0  0  0  0  0  0  0  0  0  0
    3.7930    8.4703    7.7355 C   0  0  0  0  0  0  0  0  0  0  0  0
    4.7378    8.7032    8.1981 H   0  0  0  0  0  0  0  0  0  0  0  0
    2.6165    8.4594    8.4703 C   0  0  0  0  0  0  0  0  0  0  0  0
    2.6221    8.6863    9.5250 H   0  0  0  0  0  0  0  0  0  0  0  0
    1.4299    8.1507    7.8254 C   0  0  0  0  0  0  0  0  0  0  0  0
    0.4953    8.1288    8.3634 H   0  0  0  0  0  0  0  0  0  0  0  0
    1.8564    6.6105    1.7832 N   0  0  0  0  0  0  0  0  0  0  0  0
    2.2562    9.1115    2.6592 N   0  0  1  0  0  4  0  0  0  0  0  0
    0.3724    7.7647    4.2952 N   0  0  2  0  0  4  0  0  0  0  0  0
    2.5916    7.8773    5.7715 N   0  0  0  0  0  0  0  0  0  0  0  0
    2.4176    5.1210    4.6514 O   0  0  0  0  0  0  0  0  0  0  0  0
    4.5883    6.8386    3.4078 Cl  0  0  0  0  0  0  0  0  0  0  0  0
    2.4339    7.2472    3.7612 Zn  0  0  0  0  0  0  0  0  0  0  0  0
    3.3838    5.0952    4.7207 H   0  0  0  0  0  0  0  0  0  0  0  0
    2.7913    9.8739    3.0662 H   0  0  0  0  0  0  0  0  0  0  0  0
    2.1656    4.2895    4.2375 H   0  0  0  0  0  0  0  0  0  0  0  0
   -0.3098    7.2370    3.7607 H   0  0  0  0  0  0  0  0  0  0  0  0
  1  8  1  1  0  0  0
  1 10  1  0  0  0  0
  1 31  1  0  0  0  0
  2 31  1  0  0  0  0
  2  3  1  0  0  0  0
  4  2  2  0  0  0  0
  5  4  1  0  0  0  0
  6  8  2  0  0  0  0
  6  4  1  0  0  0  0
  7  6  1  0  0  0  0
  9  8  1  0  0  0  0
 10 11  1  0  0  0  0
 10 32  1  0  0  0  0
 12 10  1  0  0  0  0
 13 32  1  0  0  0  0
 13 16  1  0  0  0  0
 14 13  1  0  0  0  0
 15 13  1  0  0  0  0
 16 18  1  0  0  0  0
 16 33  1  0  0  0  0
 16 17  1  0  0  0  0
 19 20  1  0  0  0  0
 19 21  1  0  0  0  0
 19 22  1  0  0  0  0
 22 29  1  1  0  0  0
 23 25  2  0  0  0  0
 24 23  1  0  0  0  0
 25 26  1  0  0  0  0
 25 27  1  0  0  0  0
 27 28  1  0  0  0  0
 29 30  1  0  0  0  0
 29 27  2  0  0  0  0
 31 37  1  0  0  0  0
 32 39  1  1  0  0  0
 32 37  1  0  0  0  0
 33 41  1  6  0  0  0
 33 19  1  0  0  0  0
 34 23  1  0  0  0  0
 34 22  1  0  0  0  0
 35 38  1  0  0  0  0
 36 37  1  0  0  0  0
 37 33  1  0  0  0  0
 37 34  1  0  0  0  0
 40 35  1  0  0  0  0
M  END
$$$$
