CSD_code = ZIZGUM | q = 0 | S = 0 | Stoichiometry = C30H24AuIP2Se | MND = 2
 OpenBabel04212202133D

 59 63  0  0  0  0  0  0  0  0999 V2000
    3.6587    4.4378    9.2560 Au  0  0  0  0  0  0  0  0  0  0  0  0
    1.3281    3.4630    8.9017 I   0  0  0  0  0  0  0  0  0  0  0  0
    5.1375    4.9044   12.4281 P   0  0  0  0  0  4  0  0  0  0  0  0
    5.7002    5.4023    9.2223 P   0  0  0  0  0  4  0  0  0  0  0  0
    5.8059    3.0298   11.7672 Se  0  0  0  0  0  1  0  0  0  0  0  0
    6.1451    6.3168   11.8507 C   0  0  0  0  0  0  0  0  0  0  0  0
    6.3866    6.5203   10.4878 C   0  0  0  0  0  0  0  0  0  0  0  0
    7.1872    7.5887   10.0898 C   0  0  0  0  0  0  0  0  0  0  0  0
    7.3679    7.7533    9.0363 H   0  0  0  0  0  0  0  0  0  0  0  0
    7.7575    8.4309   11.0264 C   0  0  0  0  0  0  0  0  0  0  0  0
    8.3804    9.2508   10.7012 H   0  0  0  0  0  0  0  0  0  0  0  0
    7.5362    8.2134   12.3762 C   0  0  0  0  0  0  0  0  0  0  0  0
    7.9859    8.8614   13.1136 H   0  0  0  0  0  0  0  0  0  0  0  0
    6.7365    7.1612   12.7845 C   0  0  0  0  0  0  0  0  0  0  0  0
    6.5660    6.9941   13.8386 H   0  0  0  0  0  0  0  0  0  0  0  0
    3.4002    5.3466   12.1026 C   0  0  0  0  0  0  0  0  0  0  0  0
    2.4569    4.4037   12.4963 C   0  0  0  0  0  0  0  0  0  0  0  0
    2.7964    3.4580   12.9016 H   0  0  0  0  0  0  0  0  0  0  0  0
    1.1114    4.6704   12.3304 C   0  0  0  0  0  0  0  0  0  0  0  0
    0.3763    3.9317   12.6085 H   0  0  0  0  0  0  0  0  0  0  0  0
    0.7109    5.8780   11.7800 C   0  0  0  0  0  0  0  0  0  0  0  0
   -0.3389    6.0772   11.6319 H   0  0  0  0  0  0  0  0  0  0  0  0
    1.6515    6.8217   11.3993 C   0  0  0  0  0  0  0  0  0  0  0  0
    1.3340    7.7596   10.9672 H   0  0  0  0  0  0  0  0  0  0  0  0
    3.0015    6.5632   11.5597 C   0  0  0  0  0  0  0  0  0  0  0  0
    3.7431    7.2968   11.2655 H   0  0  0  0  0  0  0  0  0  0  0  0
    5.1914    5.0167   14.2487 C   0  0  0  0  0  0  0  0  0  0  0  0
    4.3625    5.9006   14.9347 C   0  0  0  0  0  0  0  0  0  0  0  0
    3.6841    6.5434   14.3898 H   0  0  0  0  0  0  0  0  0  0  0  0
    4.4120    5.9516   16.3153 C   0  0  0  0  0  0  0  0  0  0  0  0
    3.7662    6.6337   16.8484 H   0  0  0  0  0  0  0  0  0  0  0  0
    5.2827    5.1285   17.0132 C   0  0  0  0  0  0  0  0  0  0  0  0
    5.3134    5.1703   18.0918 H   0  0  0  0  0  0  0  0  0  0  0  0
    6.1076    4.2498   16.3305 C   0  0  0  0  0  0  0  0  0  0  0  0
    6.7838    3.6058   16.8729 H   0  0  0  0  0  0  0  0  0  0  0  0
    6.0608    4.1914   14.9494 C   0  0  0  0  0  0  0  0  0  0  0  0
    6.6880    3.4987   14.4039 H   0  0  0  0  0  0  0  0  0  0  0  0
    7.0718    4.2726    8.8836 C   0  0  0  0  0  0  0  0  0  0  0  0
    8.3489    4.4076    9.4143 C   0  0  0  0  0  0  0  0  0  0  0  0
    8.5844    5.2300   10.0760 H   0  0  0  0  0  0  0  0  0  0  0  0
    9.3164    3.4697    9.1012 C   0  0  0  0  0  0  0  0  0  0  0  0
   10.3081    3.5680    9.5181 H   0  0  0  0  0  0  0  0  0  0  0  0
    9.0170    2.4054    8.2670 C   0  0  0  0  0  0  0  0  0  0  0  0
    9.7766    1.6742    8.0341 H   0  0  0  0  0  0  0  0  0  0  0  0
    7.7418    2.2685    7.7411 C   0  0  0  0  0  0  0  0  0  0  0  0
    7.5040    1.4331    7.0997 H   0  0  0  0  0  0  0  0  0  0  0  0
    6.7682    3.1967    8.0530 C   0  0  0  0  0  0  0  0  0  0  0  0
    5.7610    3.0922    7.6657 H   0  0  0  0  0  0  0  0  0  0  0  0
    5.6944    6.4843    7.7616 C   0  0  0  0  0  0  0  0  0  0  0  0
    6.6108    6.3898    6.7209 C   0  0  0  0  0  0  0  0  0  0  0  0
    7.4141    5.6671    6.7700 H   0  0  0  0  0  0  0  0  0  0  0  0
    6.4870    7.2226    5.6221 C   0  0  0  0  0  0  0  0  0  0  0  0
    7.1980    7.1466    4.8125 H   0  0  0  0  0  0  0  0  0  0  0  0
    5.4573    8.1464    5.5572 C   0  0  0  0  0  0  0  0  0  0  0  0
    5.3651    8.7911    4.6961 H   0  0  0  0  0  0  0  0  0  0  0  0
    4.5374    8.2384    6.5910 C   0  0  0  0  0  0  0  0  0  0  0  0
    3.7283    8.9516    6.5362 H   0  0  0  0  0  0  0  0  0  0  0  0
    4.6505    7.4044    7.6853 C   0  0  0  0  0  0  0  0  0  0  0  0
    3.9264    7.4515    8.4911 H   0  0  0  0  0  0  0  0  0  0  0  0
  2  1  1  0  0  0  0
  3 27  1  0  0  0  0
  4  1  1  0  0  0  0
  4  7  1  0  0  0  0
  5  3  1  0  0  0  0
  6  3  1  0  0  0  0
  6 14  1  0  0  0  0
  7  6  2  0  0  0  0
  8  7  1  0  0  0  0
  8 10  2  0  0  0  0
  9  8  1  0  0  0  0
 10 12  1  0  0  0  0
 11 10  1  0  0  0  0
 12 14  2  0  0  0  0
 12 13  1  0  0  0  0
 14 15  1  0  0  0  0
 16  3  1  0  0  0  0
 16 17  1  0  0  0  0
 17 18  1  0  0  0  0
 19 17  2  0  0  0  0
 19 20  1  0  0  0  0
 21 19  1  0  0  0  0
 22 21  1  0  0  0  0
 23 25  1  0  0  0  0
 23 21  2  0  0  0  0
 24 23  1  0  0  0  0
 25 16  2  0  0  0  0
 26 25  1  0  0  0  0
 27 28  2  0  0  0  0
 27 36  1  0  0  0  0
 28 30  1  0  0  0  0
 29 28  1  0  0  0  0
 30 31  1  0  0  0  0
 30 32  2  0  0  0  0
 32 33  1  0  0  0  0
 34 35  1  0  0  0  0
 34 32  1  0  0  0  0
 36 34  2  0  0  0  0
 37 36  1  0  0  0  0
 38  4  1  0  0  0  0
 38 39  1  0  0  0  0
 39 40  1  0  0  0  0
 41 39  2  0  0  0  0
 41 42  1  0  0  0  0
 43 41  1  0  0  0  0
 44 43  1  0  0  0  0
 45 47  1  0  0  0  0
 45 43  2  0  0  0  0
 46 45  1  0  0  0  0
 47 38  2  0  0  0  0
 48 47  1  0  0  0  0
 49  4  1  0  0  0  0
 50 51  1  0  0  0  0
 50 49  2  0  0  0  0
 52 50  1  0  0  0  0
 53 52  1  0  0  0  0
 54 52  2  0  0  0  0
 54 56  1  0  0  0  0
 55 54  1  0  0  0  0
 56 58  2  0  0  0  0
 57 56  1  0  0  0  0
 58 49  1  0  0  0  0
 58 59  1  0  0  0  0
M  END
$$$$
