CSD_code = ZIZGEX | q = 0 | S = 0 | Stoichiometry = C27H26Br2P2Zn | MND = 4
 OpenBabel04212202133D

 58 62  0  0  0  0  0  0  0  0999 V2000
    3.4604    8.5882    5.4902 Br  0  0  0  0  0  0  0  0  0  0  0  0
    4.4181   12.9795    5.1801 Br  0  0  0  0  0  0  0  0  0  0  0  0
    4.5393   10.6370    4.8906 Zn  0  0  0  0  0  0  0  0  0  0  0  0
    7.0177    9.8673    5.1678 P   0  0  0  0  0  4  0  0  0  0  0  0
    5.0356    9.9773    2.4411 P   0  0  0  0  0  4  0  0  0  0  0  0
    7.5986    9.5415    6.8662 C   0  0  0  0  0  0  0  0  0  0  0  0
    6.8011    8.7344    7.6754 C   0  0  0  0  0  0  0  0  0  0  0  0
    5.8801    8.3178    7.2907 H   0  0  0  0  0  0  0  0  0  0  0  0
    7.1809    8.4673    8.9768 C   0  0  0  0  0  0  0  0  0  0  0  0
    6.5592    7.8399    9.5977 H   0  0  0  0  0  0  0  0  0  0  0  0
    8.3503    9.0111    9.4838 C   0  0  0  0  0  0  0  0  0  0  0  0
    8.6441    8.8061   10.5024 H   0  0  0  0  0  0  0  0  0  0  0  0
    9.1375    9.8244    8.6862 C   0  0  0  0  0  0  0  0  0  0  0  0
   10.0461   10.2547    9.0811 H   0  0  0  0  0  0  0  0  0  0  0  0
    8.7652   10.0944    7.3812 C   0  0  0  0  0  0  0  0  0  0  0  0
    9.3802   10.7349    6.7651 H   0  0  0  0  0  0  0  0  0  0  0  0
    8.3578   10.8812    4.4645 C   0  0  0  0  0  0  0  0  0  0  0  0
    9.4511   10.3757    3.7701 C   0  0  0  0  0  0  0  0  0  0  0  0
    9.5808    9.3117    3.6414 H   0  0  0  0  0  0  0  0  0  0  0  0
   10.3975   11.2403    3.2495 C   0  0  0  0  0  0  0  0  0  0  0  0
   11.2410   10.8413    2.7049 H   0  0  0  0  0  0  0  0  0  0  0  0
   10.2724   12.6077    3.4286 C   0  0  0  0  0  0  0  0  0  0  0  0
   11.0159   13.2749    3.0188 H   0  0  0  0  0  0  0  0  0  0  0  0
    9.1974   13.1157    4.1389 C   0  0  0  0  0  0  0  0  0  0  0  0
    9.0983   14.1796    4.2925 H   0  0  0  0  0  0  0  0  0  0  0  0
    8.2404   12.2582    4.6467 C   0  0  0  0  0  0  0  0  0  0  0  0
    7.3964   12.6575    5.1927 H   0  0  0  0  0  0  0  0  0  0  0  0
    7.2497    8.1728    4.4580 C   0  0  0  0  0  0  0  0  0  0  0  0
    8.2462    7.8282    4.7552 H   0  0  0  0  0  0  0  0  0  0  0  0
    6.5175    7.5318    4.9609 H   0  0  0  0  0  0  0  0  0  0  0  0
    7.0803    8.0580    2.9441 C   0  0  0  0  0  0  0  0  0  0  0  0
    7.7215    8.7847    2.4374 H   0  0  0  0  0  0  0  0  0  0  0  0
    7.4180    7.0592    2.6502 H   0  0  0  0  0  0  0  0  0  0  0  0
    5.6420    8.2253    2.4596 C   0  0  0  0  0  0  0  0  0  0  0  0
    4.9646    7.6536    3.1010 H   0  0  0  0  0  0  0  0  0  0  0  0
    5.5412    7.8347    1.4417 H   0  0  0  0  0  0  0  0  0  0  0  0
    6.3081   10.8555    1.4762 C   0  0  0  0  0  0  0  0  0  0  0  0
    6.9746   10.2687    0.4038 C   0  0  0  0  0  0  0  0  0  0  0  0
    6.7235    9.2661    0.0887 H   0  0  0  0  0  0  0  0  0  0  0  0
    7.9536   10.9748   -0.2691 C   0  0  0  0  0  0  0  0  0  0  0  0
    8.4723   10.5137   -1.0971 H   0  0  0  0  0  0  0  0  0  0  0  0
    8.2672   12.2705    0.1114 C   0  0  0  0  0  0  0  0  0  0  0  0
    9.0346   12.8157   -0.4175 H   0  0  0  0  0  0  0  0  0  0  0  0
    7.5905   12.8666    1.1610 C   0  0  0  0  0  0  0  0  0  0  0  0
    7.8200   13.8801    1.4519 H   0  0  0  0  0  0  0  0  0  0  0  0
    6.6170   12.1607    1.8449 C   0  0  0  0  0  0  0  0  0  0  0  0
    6.0889   12.6298    2.6633 H   0  0  0  0  0  0  0  0  0  0  0  0
    3.6521    9.8285    1.2671 C   0  0  0  0  0  0  0  0  0  0  0  0
    2.6531    8.8925    1.5275 C   0  0  0  0  0  0  0  0  0  0  0  0
    2.7221    8.2474    2.3924 H   0  0  0  0  0  0  0  0  0  0  0  0
    1.5623    8.7951    0.6842 C   0  0  0  0  0  0  0  0  0  0  0  0
    0.7928    8.0656    0.8877 H   0  0  0  0  0  0  0  0  0  0  0  0
    1.4524    9.6363   -0.4115 C   0  0  0  0  0  0  0  0  0  0  0  0
    0.5981    9.5599   -1.0674 H   0  0  0  0  0  0  0  0  0  0  0  0
    2.4323   10.5834   -0.6583 C   0  0  0  0  0  0  0  0  0  0  0  0
    2.3427   11.2485   -1.5045 H   0  0  0  0  0  0  0  0  0  0  0  0
    3.5276   10.6873    0.1802 C   0  0  0  0  0  0  0  0  0  0  0  0
    4.2871   11.4333   -0.0083 H   0  0  0  0  0  0  0  0  0  0  0  0
  3  4  1  0  0  0  0
  3  2  1  0  0  0  0
  3  1  1  0  0  0  0
  4  6  1  0  0  0  0
  5 34  1  0  0  0  0
  5  3  1  0  0  0  0
  6 15  2  0  0  0  0
  6  7  1  0  0  0  0
  7  9  2  0  0  0  0
  8  7  1  0  0  0  0
  9 11  1  0  0  0  0
  9 10  1  0  0  0  0
 11 12  1  0  0  0  0
 13 14  1  0  0  0  0
 13 11  2  0  0  0  0
 15 13  1  0  0  0  0
 16 15  1  0  0  0  0
 17 26  1  0  0  0  0
 17  4  1  0  0  0  0
 18 17  2  0  0  0  0
 19 18  1  0  0  0  0
 20 22  2  0  0  0  0
 20 18  1  0  0  0  0
 21 20  1  0  0  0  0
 22 24  1  0  0  0  0
 23 22  1  0  0  0  0
 24 25  1  0  0  0  0
 24 26  2  0  0  0  0
 26 27  1  0  0  0  0
 28 29  1  0  0  0  0
 28 30  1  0  0  0  0
 28  4  1  0  0  0  0
 31 28  1  0  0  0  0
 32 31  1  0  0  0  0
 33 31  1  0  0  0  0
 34 31  1  0  0  0  0
 34 35  1  0  0  0  0
 36 34  1  0  0  0  0
 37 46  1  0  0  0  0
 37  5  1  0  0  0  0
 38 37  2  0  0  0  0
 39 38  1  0  0  0  0
 40 42  2  0  0  0  0
 40 38  1  0  0  0  0
 41 40  1  0  0  0  0
 42 44  1  0  0  0  0
 43 42  1  0  0  0  0
 44 45  1  0  0  0  0
 44 46  2  0  0  0  0
 46 47  1  0  0  0  0
 48 49  1  0  0  0  0
 48  5  1  0  0  0  0
 49 50  1  0  0  0  0
 51 52  1  0  0  0  0
 51 49  2  0  0  0  0
 53 51  1  0  0  0  0
 54 53  1  0  0  0  0
 55 53  2  0  0  0  0
 55 57  1  0  0  0  0
 56 55  1  0  0  0  0
 57 48  2  0  0  0  0
 58 57  1  0  0  0  0
M  END
$$$$
