CSD_code = ZIZGAT | q = 0 | S = 0 | Stoichiometry = C31H28Br2P2Zn | MND = 4
 OpenBabel04212202133D

 64 70  0  0  1  0  0  0  0  0999 V2000
    0.5697    7.6578    7.3083 Br  0  0  0  0  0  0  0  0  0  0  0  0
    3.9562    4.9296    5.8070 Br  0  0  0  0  0  0  0  0  0  0  0  0
    2.6794    6.7735    6.6427 Zn  0  0  0  0  0  0  0  0  0  0  0  0
    3.5562    8.8394    5.2860 P   0  0  0  0  0  4  0  0  0  0  0  0
    4.4422    7.3858    8.4908 P   0  0  0  0  0  4  0  0  0  0  0  0
    2.3312   10.1431    4.9707 C   0  0  0  0  0  0  0  0  0  0  0  0
    1.5197    9.9391    3.8542 C   0  0  0  0  0  0  0  0  0  0  0  0
    1.6977    9.0768    3.2228 H   0  0  0  0  0  0  0  0  0  0  0  0
    0.5032   10.8241    3.5575 C   0  0  0  0  0  0  0  0  0  0  0  0
   -0.1199   10.6589    2.6913 H   0  0  0  0  0  0  0  0  0  0  0  0
    0.2772   11.9158    4.3814 C   0  0  0  0  0  0  0  0  0  0  0  0
   -0.5221   12.6057    4.1567 H   0  0  0  0  0  0  0  0  0  0  0  0
    1.0690   12.1143    5.4987 C   0  0  0  0  0  0  0  0  0  0  0  0
    0.8874   12.9589    6.1468 H   0  0  0  0  0  0  0  0  0  0  0  0
    2.0910   11.2308    5.8009 C   0  0  0  0  0  0  0  0  0  0  0  0
    2.6887   11.3983    6.6845 H   0  0  0  0  0  0  0  0  0  0  0  0
    4.6325    8.9349    3.8205 C   0  0  0  0  0  0  0  0  0  0  0  0
    4.7368   10.1035    3.0710 C   0  0  0  0  0  0  0  0  0  0  0  0
    4.1701   10.9792    3.3550 H   0  0  0  0  0  0  0  0  0  0  0  0
    5.5672   10.1397    1.9671 C   0  0  0  0  0  0  0  0  0  0  0  0
    5.6475   11.0475    1.3869 H   0  0  0  0  0  0  0  0  0  0  0  0
    6.2953    9.0167    1.6044 C   0  0  0  0  0  0  0  0  0  0  0  0
    6.9425    9.0513    0.7407 H   0  0  0  0  0  0  0  0  0  0  0  0
    6.1840    7.8501    2.3415 C   0  0  0  0  0  0  0  0  0  0  0  0
    6.7390    6.9700    2.0541 H   0  0  0  0  0  0  0  0  0  0  0  0
    5.3488    7.8032    3.4436 C   0  0  0  0  0  0  0  0  0  0  0  0
    5.2461    6.8808    3.9982 H   0  0  0  0  0  0  0  0  0  0  0  0
    4.5993    9.4683    6.6730 C   0  0  2  0  0  0  0  0  0  0  0  0
    3.8732    9.7855    7.4380 H   0  0  0  0  0  0  0  0  0  0  0  0
    5.6405   10.6060    6.5189 C   0  0  2  0  0  0  0  0  0  0  0  0
    5.2124   11.5745    6.2718 H   0  0  0  0  0  0  0  0  0  0  0  0
    6.7525   10.1264    5.6220 C   0  0  0  0  0  0  0  0  0  0  0  0
    6.9174   10.4826    4.6229 H   0  0  0  0  0  0  0  0  0  0  0  0
    7.4370    9.1999    6.2822 C   0  0  0  0  0  0  0  0  0  0  0  0
    8.2573    8.6030    5.9294 H   0  0  0  0  0  0  0  0  0  0  0  0
    6.7735    9.0197    7.6259 C   0  0  2  0  0  0  0  0  0  0  0  0
    7.3598    8.5259    8.3964 H   0  0  0  0  0  0  0  0  0  0  0  0
    5.4488    8.3111    7.2441 C   0  0  1  0  0  0  0  0  0  0  0  0
    5.6576    7.5718    6.4554 H   0  0  0  0  0  0  0  0  0  0  0  0
    6.3215   10.4604    7.8888 C   0  0  0  0  0  0  0  0  0  0  0  0
    5.6454   10.5706    8.7349 H   0  0  0  0  0  0  0  0  0  0  0  0
    7.1670   11.1366    8.0082 H   0  0  0  0  0  0  0  0  0  0  0  0
    5.5705    6.1216    9.1406 C   0  0  0  0  0  0  0  0  0  0  0  0
    6.6184    5.5880    8.3982 C   0  0  0  0  0  0  0  0  0  0  0  0
    6.8375    5.9568    7.4080 H   0  0  0  0  0  0  0  0  0  0  0  0
    7.3803    4.5601    8.9249 C   0  0  0  0  0  0  0  0  0  0  0  0
    8.1932    4.1501    8.3446 H   0  0  0  0  0  0  0  0  0  0  0  0
    7.0972    4.0501   10.1803 C   0  0  0  0  0  0  0  0  0  0  0  0
    7.6934    3.2455   10.5840 H   0  0  0  0  0  0  0  0  0  0  0  0
    6.0378    4.5621   10.9130 C   0  0  0  0  0  0  0  0  0  0  0  0
    5.8039    4.1563   11.8861 H   0  0  0  0  0  0  0  0  0  0  0  0
    5.2712    5.5864   10.3933 C   0  0  0  0  0  0  0  0  0  0  0  0
    4.4346    5.9818   10.9556 H   0  0  0  0  0  0  0  0  0  0  0  0
    4.2954    8.5640    9.8739 C   0  0  0  0  0  0  0  0  0  0  0  0
    5.3363    8.7887   10.7713 C   0  0  0  0  0  0  0  0  0  0  0  0
    6.2588    8.2337   10.6776 H   0  0  0  0  0  0  0  0  0  0  0  0
    5.1832    9.7164   11.7838 C   0  0  0  0  0  0  0  0  0  0  0  0
    5.9924    9.8894   12.4780 H   0  0  0  0  0  0  0  0  0  0  0  0
    3.9966   10.4230   11.9107 C   0  0  0  0  0  0  0  0  0  0  0  0
    3.8833   11.1460   12.7047 H   0  0  0  0  0  0  0  0  0  0  0  0
    2.9550   10.1941   11.0280 C   0  0  0  0  0  0  0  0  0  0  0  0
    2.0247   10.7321   11.1307 H   0  0  0  0  0  0  0  0  0  0  0  0
    3.0997    9.2636   10.0135 C   0  0  0  0  0  0  0  0  0  0  0  0
    2.2742    9.0713    9.3408 H   0  0  0  0  0  0  0  0  0  0  0  0
  2  3  1  0  0  0  0
  3  1  1  0  0  0  0
  3  5  1  0  0  0  0
  4  3  1  0  0  0  0
  4 28  1  0  0  0  0
  5 43  1  0  0  0  0
  5 54  1  0  0  0  0
  6  4  1  0  0  0  0
  6 15  1  0  0  0  0
  7  6  2  0  0  0  0
  8  7  1  0  0  0  0
  9  7  1  0  0  0  0
  9 11  2  0  0  0  0
 10  9  1  0  0  0  0
 11 13  1  0  0  0  0
 12 11  1  0  0  0  0
 13 15  2  0  0  0  0
 13 14  1  0  0  0  0
 15 16  1  0  0  0  0
 17  4  1  0  0  0  0
 18 19  1  0  0  0  0
 18 17  2  0  0  0  0
 20 18  1  0  0  0  0
 21 20  1  0  0  0  0
 22 20  2  0  0  0  0
 22 24  1  0  0  0  0
 23 22  1  0  0  0  0
 24 26  2  0  0  0  0
 25 24  1  0  0  0  0
 26 17  1  0  0  0  0
 26 27  1  0  0  0  0
 28 38  1  0  0  0  0
 28 29  1  1  0  0  0
 30 31  1  6  0  0  0
 30 28  1  0  0  0  0
 30 40  1  0  0  0  0
 32 34  2  0  0  0  0
 32 30  1  0  0  0  0
 33 32  1  0  0  0  0
 34 36  1  0  0  0  0
 35 34  1  0  0  0  0
 36 40  1  0  0  0  0
 36 37  1  1  0  0  0
 38 39  1  6  0  0  0
 38 36  1  0  0  0  0
 38  5  1  0  0  0  0
 40 42  1  0  0  0  0
 40 41  1  0  0  0  0
 43 52  1  0  0  0  0
 44 46  1  0  0  0  0
 44 43  2  0  0  0  0
 45 44  1  0  0  0  0
 46 48  2  0  0  0  0
 47 46  1  0  0  0  0
 48 49  1  0  0  0  0
 48 50  1  0  0  0  0
 50 51  1  0  0  0  0
 52 50  2  0  0  0  0
 52 53  1  0  0  0  0
 54 63  2  0  0  0  0
 54 55  1  0  0  0  0
 55 57  2  0  0  0  0
 56 55  1  0  0  0  0
 57 59  1  0  0  0  0
 57 58  1  0  0  0  0
 59 60  1  0  0  0  0
 61 62  1  0  0  0  0
 61 59  2  0  0  0  0
 63 61  1  0  0  0  0
 64 63  1  0  0  0  0
M  END
$$$$
