CSD_code = ZIZHEX | q = 0 | S = 0 | Stoichiometry = C26H22AuBrP2S | MND = 2
 OpenBabel04212202133D

 53 56  0  0  0  0  0  0  0  0999 V2000
   -1.3669    7.0101   13.5562 Au  0  0  0  0  0  0  0  0  0  0  0  0
   -3.4406    5.8820   13.6176 Br  0  0  0  0  0  0  0  0  0  0  0  0
    1.6647    7.9565   10.4966 P   0  0  0  0  0  4  0  0  0  0  0  0
    0.5740    8.1393   13.7521 P   0  0  0  0  0  4  0  0  0  0  0  0
    0.5857    6.4086   10.9540 S   0  0  0  0  0  1  0  0  0  0  0  0
    1.1905    9.4787   11.3658 C   0  0  0  0  0  0  0  0  0  0  0  0
    1.1188   10.3573   10.7308 H   0  0  0  0  0  0  0  0  0  0  0  0
    0.7508    9.5229   12.6268 C   0  0  0  0  0  0  0  0  0  0  0  0
    0.3130   10.4425   13.0111 H   0  0  0  0  0  0  0  0  0  0  0  0
    1.4756    8.4612    8.7547 C   0  0  0  0  0  0  0  0  0  0  0  0
    0.3861    7.9758    8.0436 C   0  0  0  0  0  0  0  0  0  0  0  0
   -0.3046    7.3008    8.5303 H   0  0  0  0  0  0  0  0  0  0  0  0
    0.2018    8.3528    6.7257 C   0  0  0  0  0  0  0  0  0  0  0  0
   -0.6468    7.9778    6.1739 H   0  0  0  0  0  0  0  0  0  0  0  0
    1.1075    9.2067    6.1181 C   0  0  0  0  0  0  0  0  0  0  0  0
    0.9667    9.4988    5.0883 H   0  0  0  0  0  0  0  0  0  0  0  0
    2.1994    9.6841    6.8264 C   0  0  0  0  0  0  0  0  0  0  0  0
    2.9079   10.3445    6.3484 H   0  0  0  0  0  0  0  0  0  0  0  0
    2.3881    9.3150    8.1452 C   0  0  0  0  0  0  0  0  0  0  0  0
    3.2436    9.6801    8.6962 H   0  0  0  0  0  0  0  0  0  0  0  0
    3.4610    7.7481   10.7275 C   0  0  0  0  0  0  0  0  0  0  0  0
    3.9761    6.4656   10.6051 C   0  0  0  0  0  0  0  0  0  0  0  0
    3.2982    5.6423   10.4228 H   0  0  0  0  0  0  0  0  0  0  0  0
    5.3375    6.2583   10.7292 C   0  0  0  0  0  0  0  0  0  0  0  0
    5.7411    5.2614   10.6346 H   0  0  0  0  0  0  0  0  0  0  0  0
    6.1797    7.3304   10.9731 C   0  0  0  0  0  0  0  0  0  0  0  0
    7.2434    7.1699   11.0679 H   0  0  0  0  0  0  0  0  0  0  0  0
    5.6627    8.6100   11.1021 C   0  0  0  0  0  0  0  0  0  0  0  0
    6.3224    9.4430   11.2979 H   0  0  0  0  0  0  0  0  0  0  0  0
    4.3024    8.8240   10.9827 C   0  0  0  0  0  0  0  0  0  0  0  0
    3.8914    9.8182   11.0965 H   0  0  0  0  0  0  0  0  0  0  0  0
    0.6776    8.9632   15.3696 C   0  0  0  0  0  0  0  0  0  0  0  0
    1.3271   10.1730   15.5917 C   0  0  0  0  0  0  0  0  0  0  0  0
    1.7843   10.7107   14.7717 H   0  0  0  0  0  0  0  0  0  0  0  0
    1.3834   10.6992   16.8695 C   0  0  0  0  0  0  0  0  0  0  0  0
    1.8823   11.6426   17.0371 H   0  0  0  0  0  0  0  0  0  0  0  0
    0.8045   10.0230   17.9310 C   0  0  0  0  0  0  0  0  0  0  0  0
    0.8500   10.4415   18.9250 H   0  0  0  0  0  0  0  0  0  0  0  0
    0.1650    8.8129   17.7166 C   0  0  0  0  0  0  0  0  0  0  0  0
   -0.2894    8.2846   18.5405 H   0  0  0  0  0  0  0  0  0  0  0  0
    0.1017    8.2861   16.4408 C   0  0  0  0  0  0  0  0  0  0  0  0
   -0.4065    7.3467   16.2596 H   0  0  0  0  0  0  0  0  0  0  0  0
    2.1518    7.2426   13.7744 C   0  0  0  0  0  0  0  0  0  0  0  0
    3.3561    7.9292   13.8930 C   0  0  0  0  0  0  0  0  0  0  0  0
    3.3636    9.0104   13.9067 H   0  0  0  0  0  0  0  0  0  0  0  0
    4.5379    7.2215   13.9988 C   0  0  0  0  0  0  0  0  0  0  0  0
    5.4742    7.7519   14.0920 H   0  0  0  0  0  0  0  0  0  0  0  0
    4.5222    5.8361   13.9844 C   0  0  0  0  0  0  0  0  0  0  0  0
    5.4497    5.2886   14.0625 H   0  0  0  0  0  0  0  0  0  0  0  0
    3.3220    5.1528   13.8779 C   0  0  0  0  0  0  0  0  0  0  0  0
    3.3103    4.0734   13.8722 H   0  0  0  0  0  0  0  0  0  0  0  0
    2.1340    5.8531   13.7829 C   0  0  0  0  0  0  0  0  0  0  0  0
    1.1902    5.3319   13.6930 H   0  0  0  0  0  0  0  0  0  0  0  0
  1  2  1  0  0  0  0
  1  4  1  0  0  0  0
  3 21  1  0  0  0  0
  3  5  1  0  0  0  0
  3  6  1  0  0  0  0
  4 43  1  0  0  0  0
  4 32  1  0  0  0  0
  6  8  2  0  0  0  0
  7  6  1  0  0  0  0
  8  9  1  0  0  0  0
  8  4  1  0  0  0  0
 10  3  1  0  0  0  0
 11 12  1  0  0  0  0
 11 10  2  0  0  0  0
 13 11  1  0  0  0  0
 14 13  1  0  0  0  0
 15 13  2  0  0  0  0
 15 17  1  0  0  0  0
 16 15  1  0  0  0  0
 17 19  2  0  0  0  0
 18 17  1  0  0  0  0
 19 20  1  0  0  0  0
 19 10  1  0  0  0  0
 21 30  1  0  0  0  0
 22 21  2  0  0  0  0
 22 24  1  0  0  0  0
 23 22  1  0  0  0  0
 24 26  2  0  0  0  0
 25 24  1  0  0  0  0
 26 27  1  0  0  0  0
 26 28  1  0  0  0  0
 28 29  1  0  0  0  0
 30 31  1  0  0  0  0
 30 28  2  0  0  0  0
 32 33  2  0  0  0  0
 32 41  1  0  0  0  0
 33 35  1  0  0  0  0
 34 33  1  0  0  0  0
 35 36  1  0  0  0  0
 35 37  2  0  0  0  0
 37 38  1  0  0  0  0
 39 37  1  0  0  0  0
 39 40  1  0  0  0  0
 41 39  2  0  0  0  0
 42 41  1  0  0  0  0
 43 52  2  0  0  0  0
 43 44  1  0  0  0  0
 44 45  1  0  0  0  0
 44 46  2  0  0  0  0
 46 47  1  0  0  0  0
 48 46  1  0  0  0  0
 48 49  1  0  0  0  0
 50 48  2  0  0  0  0
 51 50  1  0  0  0  0
 52 50  1  0  0  0  0
 53 52  1  0  0  0  0
M  END
$$$$
