CSD_code = ZIZJEZ | q = 0 | S = 0 | Stoichiometry = C25H22AuIP2S | MND = 2
 OpenBabel04212202133D

 52 55  0  0  0  0  0  0  0  0999 V2000
    4.8378    7.0864   11.0199 Au  0  0  0  0  0  0  0  0  0  0  0  0
    6.1813    8.9123   12.1803 I   0  0  0  0  0  0  0  0  0  0  0  0
    3.0771    6.5362    7.5334 P   0  0  0  0  0  4  0  0  0  0  0  0
    3.6081    5.3656   10.2686 P   0  0  0  0  0  4  0  0  0  0  0  0
    4.0352    8.1383    8.0305 S   0  0  0  0  0  1  0  0  0  0  0  0
    3.5933    5.0139    8.4662 C   0  0  0  0  0  0  0  0  0  0  0  0
    2.9327    4.1668    8.2554 H   0  0  0  0  0  0  0  0  0  0  0  0
    4.6223    4.7957    8.1490 H   0  0  0  0  0  0  0  0  0  0  0  0
    3.2852    6.0555    5.7824 C   0  0  0  0  0  0  0  0  0  0  0  0
    3.4914    7.1009    4.8894 C   0  0  0  0  0  0  0  0  0  0  0  0
    3.5752    8.1087    5.2738 H   0  0  0  0  0  0  0  0  0  0  0  0
    3.6040    6.8471    3.5353 C   0  0  0  0  0  0  0  0  0  0  0  0
    3.7653    7.6624    2.8466 H   0  0  0  0  0  0  0  0  0  0  0  0
    3.5102    5.5466    3.0680 C   0  0  0  0  0  0  0  0  0  0  0  0
    3.5945    5.3443    2.0109 H   0  0  0  0  0  0  0  0  0  0  0  0
    3.3117    4.5022    3.9562 C   0  0  0  0  0  0  0  0  0  0  0  0
    3.2450    3.4874    3.5921 H   0  0  0  0  0  0  0  0  0  0  0  0
    3.1969    4.7504    5.3121 C   0  0  0  0  0  0  0  0  0  0  0  0
    3.0457    3.9232    5.9906 H   0  0  0  0  0  0  0  0  0  0  0  0
    1.2658    6.6451    7.7217 C   0  0  0  0  0  0  0  0  0  0  0  0
    0.4333    5.5677    7.4431 C   0  0  0  0  0  0  0  0  0  0  0  0
    0.8492    4.6212    7.1278 H   0  0  0  0  0  0  0  0  0  0  0  0
   -0.9348    5.7155    7.5631 C   0  0  0  0  0  0  0  0  0  0  0  0
   -1.5841    4.8781    7.3546 H   0  0  0  0  0  0  0  0  0  0  0  0
   -1.4743    6.9342    7.9439 C   0  0  0  0  0  0  0  0  0  0  0  0
   -2.5447    7.0426    8.0336 H   0  0  0  0  0  0  0  0  0  0  0  0
   -0.6452    8.0127    8.2015 C   0  0  0  0  0  0  0  0  0  0  0  0
   -1.0649    8.9649    8.4886 H   0  0  0  0  0  0  0  0  0  0  0  0
    0.7253    7.8694    8.0893 C   0  0  0  0  0  0  0  0  0  0  0  0
    1.3914    8.6984    8.2885 H   0  0  0  0  0  0  0  0  0  0  0  0
    4.0683    3.7778   11.0093 C   0  0  0  0  0  0  0  0  0  0  0  0
    4.5378    2.6650   10.3220 C   0  0  0  0  0  0  0  0  0  0  0  0
    4.6158    2.6699    9.2438 H   0  0  0  0  0  0  0  0  0  0  0  0
    4.9187    1.5357   11.0275 C   0  0  0  0  0  0  0  0  0  0  0  0
    5.2818    0.6706   10.4921 H   0  0  0  0  0  0  0  0  0  0  0  0
    4.8439    1.5137   12.4096 C   0  0  0  0  0  0  0  0  0  0  0  0
    5.1484    0.6310   12.9514 H   0  0  0  0  0  0  0  0  0  0  0  0
    4.3887    2.6273   13.0999 C   0  0  0  0  0  0  0  0  0  0  0  0
    4.3402    2.6164   14.1784 H   0  0  0  0  0  0  0  0  0  0  0  0
    4.0080    3.7557   12.4026 C   0  0  0  0  0  0  0  0  0  0  0  0
    3.6618    4.6392   12.9268 H   0  0  0  0  0  0  0  0  0  0  0  0
    1.8342    5.4540   10.6289 C   0  0  0  0  0  0  0  0  0  0  0  0
    1.0177    4.3327   10.5104 C   0  0  0  0  0  0  0  0  0  0  0  0
    1.4461    3.3800   10.2256 H   0  0  0  0  0  0  0  0  0  0  0  0
   -0.3338    4.4412   10.7721 C   0  0  0  0  0  0  0  0  0  0  0  0
   -0.9705    3.5735   10.6801 H   0  0  0  0  0  0  0  0  0  0  0  0
   -0.8720    5.6602   11.1556 C   0  0  0  0  0  0  0  0  0  0  0  0
   -1.9295    5.7392   11.3578 H   0  0  0  0  0  0  0  0  0  0  0  0
   -0.0588    6.7726   11.2875 C   0  0  0  0  0  0  0  0  0  0  0  0
   -0.4779    7.7187   11.5945 H   0  0  0  0  0  0  0  0  0  0  0  0
    1.2961    6.6710   11.0278 C   0  0  0  0  0  0  0  0  0  0  0  0
    1.9453    7.5321   11.1274 H   0  0  0  0  0  0  0  0  0  0  0  0
  1  2  1  0  0  0  0
  3 20  1  0  0  0  0
  3  5  1  0  0  0  0
  3  6  1  0  0  0  0
  4 42  1  0  0  0  0
  4 31  1  0  0  0  0
  4  1  1  0  0  0  0
  6  4  1  0  0  0  0
  7  6  1  0  0  0  0
  8  6  1  0  0  0  0
  9  3  1  0  0  0  0
 10 11  1  0  0  0  0
 10  9  2  0  0  0  0
 12 10  1  0  0  0  0
 13 12  1  0  0  0  0
 14 12  2  0  0  0  0
 14 16  1  0  0  0  0
 15 14  1  0  0  0  0
 16 18  2  0  0  0  0
 17 16  1  0  0  0  0
 18  9  1  0  0  0  0
 18 19  1  0  0  0  0
 20 29  1  0  0  0  0
 21 23  1  0  0  0  0
 21 20  2  0  0  0  0
 22 21  1  0  0  0  0
 23 25  2  0  0  0  0
 24 23  1  0  0  0  0
 25 26  1  0  0  0  0
 25 27  1  0  0  0  0
 27 28  1  0  0  0  0
 29 27  2  0  0  0  0
 29 30  1  0  0  0  0
 31 40  1  0  0  0  0
 32 31  2  0  0  0  0
 32 34  1  0  0  0  0
 33 32  1  0  0  0  0
 34 36  2  0  0  0  0
 35 34  1  0  0  0  0
 36 37  1  0  0  0  0
 36 38  1  0  0  0  0
 38 39  1  0  0  0  0
 40 41  1  0  0  0  0
 40 38  2  0  0  0  0
 42 51  1  0  0  0  0
 43 42  2  0  0  0  0
 43 45  1  0  0  0  0
 44 43  1  0  0  0  0
 45 47  2  0  0  0  0
 46 45  1  0  0  0  0
 47 49  1  0  0  0  0
 47 48  1  0  0  0  0
 49 50  1  0  0  0  0
 51 52  1  0  0  0  0
 51 49  2  0  0  0  0
M  END
$$$$
