CSD_code = ZIZJID | q = 0 | S = 0 | Stoichiometry = C25H22AuBrP2Se | MND = 2
 OpenBabel04212202133D

 52 55  0  0  0  0  0  0  0  0999 V2000
    5.7151    4.6019    4.3702 Au  0  0  0  0  0  0  0  0  0  0  0  0
    5.7281    5.5934    2.2333 Br  0  0  0  0  0  0  0  0  0  0  0  0
    5.6580    3.4878    6.3145 P   0  0  0  0  0  4  0  0  0  0  0  0
    4.8967    5.6061    8.3670 P   0  0  0  0  0  4  0  0  0  0  0  0
    5.8076    7.0141    7.1283 Se  0  0  0  0  0  1  0  0  0  0  0  0
    4.3822    4.0318    7.5216 C   0  0  0  0  0  0  0  0  0  0  0  0
    3.4599    4.2442    6.9670 H   0  0  0  0  0  0  0  0  0  0  0  0
    4.1924    3.2478    8.2632 H   0  0  0  0  0  0  0  0  0  0  0  0
    3.3169    6.2102    9.0433 C   0  0  0  0  0  0  0  0  0  0  0  0
    3.1045    6.4202   10.3992 C   0  0  0  0  0  0  0  0  0  0  0  0
    3.8714    6.1619   11.1160 H   0  0  0  0  0  0  0  0  0  0  0  0
    1.9058    6.9660   10.8250 C   0  0  0  0  0  0  0  0  0  0  0  0
    1.7380    7.1273   11.8795 H   0  0  0  0  0  0  0  0  0  0  0  0
    0.9302    7.3131    9.9055 C   0  0  0  0  0  0  0  0  0  0  0  0
   -0.0012    7.7411   10.2443 H   0  0  0  0  0  0  0  0  0  0  0  0
    1.1539    7.1300    8.5495 C   0  0  0  0  0  0  0  0  0  0  0  0
    0.4028    7.4198    7.8303 H   0  0  0  0  0  0  0  0  0  0  0  0
    2.3483    6.5873    8.1177 C   0  0  0  0  0  0  0  0  0  0  0  0
    2.5490    6.4751    7.0594 H   0  0  0  0  0  0  0  0  0  0  0  0
    5.8842    5.0557    9.7961 C   0  0  0  0  0  0  0  0  0  0  0  0
    7.1024    5.6745   10.0347 C   0  0  0  0  0  0  0  0  0  0  0  0
    7.4395    6.4509    9.3611 H   0  0  0  0  0  0  0  0  0  0  0  0
    7.8698    5.2946   11.1210 C   0  0  0  0  0  0  0  0  0  0  0  0
    8.8176    5.7774   11.3039 H   0  0  0  0  0  0  0  0  0  0  0  0
    7.4180    4.2997   11.9709 C   0  0  0  0  0  0  0  0  0  0  0  0
    8.0152    4.0011   12.8193 H   0  0  0  0  0  0  0  0  0  0  0  0
    6.1943    3.6892   11.7411 C   0  0  0  0  0  0  0  0  0  0  0  0
    5.8384    2.9205   12.4113 H   0  0  0  0  0  0  0  0  0  0  0  0
    5.4229    4.0649   10.6581 C   0  0  0  0  0  0  0  0  0  0  0  0
    4.4604    3.5995   10.4923 H   0  0  0  0  0  0  0  0  0  0  0  0
    7.1474    3.4140    7.3401 C   0  0  0  0  0  0  0  0  0  0  0  0
    8.2043    4.2654    7.0415 C   0  0  0  0  0  0  0  0  0  0  0  0
    8.1192    4.9476    6.2055 H   0  0  0  0  0  0  0  0  0  0  0  0
    9.3478    4.2405    7.8201 C   0  0  0  0  0  0  0  0  0  0  0  0
   10.1666    4.9058    7.5919 H   0  0  0  0  0  0  0  0  0  0  0  0
    9.4391    3.3607    8.8851 C   0  0  0  0  0  0  0  0  0  0  0  0
   10.3328    3.3378    9.4905 H   0  0  0  0  0  0  0  0  0  0  0  0
    8.3906    2.5001    9.1746 C   0  0  0  0  0  0  0  0  0  0  0  0
    8.4690    1.8099   10.0017 H   0  0  0  0  0  0  0  0  0  0  0  0
    7.2437    2.5226    8.4063 C   0  0  0  0  0  0  0  0  0  0  0  0
    6.4272    1.8448    8.6200 H   0  0  0  0  0  0  0  0  0  0  0  0
    5.2465    1.7437    6.0635 C   0  0  0  0  0  0  0  0  0  0  0  0
    3.9390    1.2690    6.0956 C   0  0  0  0  0  0  0  0  0  0  0  0
    3.1229    1.9272    6.3603 H   0  0  0  0  0  0  0  0  0  0  0  0
    3.6796   -0.0531    5.7807 C   0  0  0  0  0  0  0  0  0  0  0  0
    2.6646   -0.4206    5.8122 H   0  0  0  0  0  0  0  0  0  0  0  0
    4.7136   -0.9004    5.4189 C   0  0  0  0  0  0  0  0  0  0  0  0
    4.5048   -1.9303    5.1723 H   0  0  0  0  0  0  0  0  0  0  0  0
    6.0143   -0.4240    5.3611 C   0  0  0  0  0  0  0  0  0  0  0  0
    6.8196   -1.0799    5.0663 H   0  0  0  0  0  0  0  0  0  0  0  0
    6.2806    0.8946    5.6731 C   0  0  0  0  0  0  0  0  0  0  0  0
    7.2915    1.2794    5.6212 H   0  0  0  0  0  0  0  0  0  0  0  0
  1  3  1  0  0  0  0
  2  1  1  0  0  0  0
  3 31  1  0  0  0  0
  3  6  1  0  0  0  0
  4  9  1  0  0  0  0
  4 20  1  0  0  0  0
  5  4  1  0  0  0  0
  6  8  1  0  0  0  0
  6  4  1  0  0  0  0
  7  6  1  0  0  0  0
  9 10  1  0  0  0  0
 10 12  2  0  0  0  0
 10 11  1  0  0  0  0
 12 13  1  0  0  0  0
 14 15  1  0  0  0  0
 14 12  1  0  0  0  0
 16 14  2  0  0  0  0
 17 16  1  0  0  0  0
 18 16  1  0  0  0  0
 18  9  2  0  0  0  0
 19 18  1  0  0  0  0
 20 21  2  0  0  0  0
 20 29  1  0  0  0  0
 21 23  1  0  0  0  0
 22 21  1  0  0  0  0
 23 24  1  0  0  0  0
 23 25  2  0  0  0  0
 25 26  1  0  0  0  0
 27 25  1  0  0  0  0
 27 28  1  0  0  0  0
 29 27  2  0  0  0  0
 30 29  1  0  0  0  0
 31 40  1  0  0  0  0
 32 31  2  0  0  0  0
 32 34  1  0  0  0  0
 33 32  1  0  0  0  0
 34 36  2  0  0  0  0
 35 34  1  0  0  0  0
 36 38  1  0  0  0  0
 36 37  1  0  0  0  0
 38 39  1  0  0  0  0
 40 41  1  0  0  0  0
 40 38  2  0  0  0  0
 42 43  1  0  0  0  0
 42  3  1  0  0  0  0
 43 44  1  0  0  0  0
 45 46  1  0  0  0  0
 45 43  2  0  0  0  0
 47 45  1  0  0  0  0
 48 47  1  0  0  0  0
 49 47  2  0  0  0  0
 49 51  1  0  0  0  0
 50 49  1  0  0  0  0
 51 42  2  0  0  0  0
 52 51  1  0  0  0  0
M  END
$$$$
