CSD_code = ZIZZIR | q = 0 | S = 0 | Stoichiometry = C29H26Cl3OP2Rh | MND = 6
 OpenBabel04212202133D

 62 65  0  0  0  0  0  0  0  0999 V2000
    3.2184    2.5699    3.6786 Rh  0  0  0  0  0  0  0  0  0  0  0  0
    4.4973    3.8210    2.1681 Cl  0  0  0  0  0  0  0  0  0  0  0  0
    1.9857    1.1605    5.1115 Cl  0  0  0  0  0  0  0  0  0  0  0  0
    1.5983    4.2054    3.8024 Cl  0  0  0  0  0  0  0  0  0  0  0  0
    1.8835    1.6243    2.0325 P   0  0  0  0  0  4  0  0  0  0  0  0
    4.1440    3.8960    5.3357 P   0  0  0  0  0  4  0  0  0  0  0  0
    5.1575    0.3162    3.9264 O   0  0  0  0  0  1  0  0  0  0  0  0
    4.4627    1.2033    3.7583 C   0  0  0  0  0  2  0  0  0  0  0  0
    0.1278    1.7110    2.4420 C   0  0  0  0  0  0  0  0  0  0  0  0
   -0.8070    2.1476    1.6123 C   0  0  0  0  0  0  0  0  0  0  0  0
    1.9827    2.3394    0.3668 C   0  0  0  0  0  0  0  0  0  0  0  0
    2.1073    1.5603   -0.7778 C   0  0  0  0  0  0  0  0  0  0  0  0
    2.1527    2.1691   -2.0197 C   0  0  0  0  0  0  0  0  0  0  0  0
    2.0740    3.5478   -2.1255 C   0  0  0  0  0  0  0  0  0  0  0  0
    1.9390    4.3247   -0.9859 C   0  0  0  0  0  0  0  0  0  0  0  0
    1.8920    3.7256    0.2585 C   0  0  0  0  0  0  0  0  0  0  0  0
    2.2237   -0.1428    1.8063 C   0  0  0  0  0  0  0  0  0  0  0  0
    1.3040   -1.1317    2.1281 C   0  0  0  0  0  0  0  0  0  0  0  0
    1.6521   -2.4642    1.9834 C   0  0  0  0  0  0  0  0  0  0  0  0
    2.9087   -2.8117    1.5178 C   0  0  0  0  0  0  0  0  0  0  0  0
    3.8283   -1.8253    1.1927 C   0  0  0  0  0  0  0  0  0  0  0  0
    3.4903   -0.4948    1.3420 C   0  0  0  0  0  0  0  0  0  0  0  0
    4.3621    5.6059    4.7996 C   0  0  0  0  0  0  0  0  0  0  0  0
    5.4665    6.3085    4.9964 C   0  0  0  0  0  0  0  0  0  0  0  0
    3.1034    3.9842    6.8144 C   0  0  0  0  0  0  0  0  0  0  0  0
    2.3525    5.1153    7.1107 C   0  0  0  0  0  0  0  0  0  0  0  0
    1.5191    5.1127    8.2153 C   0  0  0  0  0  0  0  0  0  0  0  0
    1.4277    3.9877    9.0176 C   0  0  0  0  0  0  0  0  0  0  0  0
    2.1731    2.8573    8.7198 C   0  0  0  0  0  0  0  0  0  0  0  0
    3.0077    2.8505    7.6192 C   0  0  0  0  0  0  0  0  0  0  0  0
    5.7969    3.4415    5.9468 C   0  0  0  0  0  0  0  0  0  0  0  0
    6.7486    3.0755    4.9977 C   0  0  0  0  0  0  0  0  0  0  0  0
    8.0334    2.7523    5.3915 C   0  0  0  0  0  0  0  0  0  0  0  0
    8.3760    2.7911    6.7342 C   0  0  0  0  0  0  0  0  0  0  0  0
    7.4357    3.1673    7.6788 C   0  0  0  0  0  0  0  0  0  0  0  0
    6.1486    3.4973    7.2905 C   0  0  0  0  0  0  0  0  0  0  0  0
   -0.1019    1.4137    3.4593 H   0  0  0  0  0  0  0  0  0  0  0  0
   -0.5806    2.4794    0.6113 H   0  0  0  0  0  0  0  0  0  0  0  0
   -1.8412    2.1999    1.9130 H   0  0  0  0  0  0  0  0  0  0  0  0
    2.1660    0.4839   -0.7008 H   0  0  0  0  0  0  0  0  0  0  0  0
    2.2518    1.5624   -2.9082 H   0  0  0  0  0  0  0  0  0  0  0  0
    2.1175    4.0166   -3.0975 H   0  0  0  0  0  0  0  0  0  0  0  0
    1.8751    5.3995   -1.0667 H   0  0  0  0  0  0  0  0  0  0  0  0
    1.7877    4.3261    1.1518 H   0  0  0  0  0  0  0  0  0  0  0  0
    0.3251   -0.8593    2.4935 H   0  0  0  0  0  0  0  0  0  0  0  0
    0.9390   -3.2338    2.2391 H   0  0  0  0  0  0  0  0  0  0  0  0
    3.1758   -3.8525    1.4105 H   0  0  0  0  0  0  0  0  0  0  0  0
    4.8090   -2.0960    0.8302 H   0  0  0  0  0  0  0  0  0  0  0  0
    4.1995    0.2876    1.0961 H   0  0  0  0  0  0  0  0  0  0  0  0
    3.5151    6.0117    4.2577 H   0  0  0  0  0  0  0  0  0  0  0  0
    6.3270    5.9043    5.5052 H   0  0  0  0  0  0  0  0  0  0  0  0
    5.5530    7.3231    4.6420 H   0  0  0  0  0  0  0  0  0  0  0  0
    2.4138    5.9861    6.4746 H   0  0  0  0  0  0  0  0  0  0  0  0
    0.9323    5.9901    8.4446 H   0  0  0  0  0  0  0  0  0  0  0  0
    0.7686    3.9878    9.8733 H   0  0  0  0  0  0  0  0  0  0  0  0
    2.0944    1.9765    9.3396 H   0  0  0  0  0  0  0  0  0  0  0  0
    3.5820    1.9677    7.3707 H   0  0  0  0  0  0  0  0  0  0  0  0
    6.4754    3.0629    3.9498 H   0  0  0  0  0  0  0  0  0  0  0  0
    8.7680    2.4697    4.6523 H   0  0  0  0  0  0  0  0  0  0  0  0
    9.3776    2.5319    7.0438 H   0  0  0  0  0  0  0  0  0  0  0  0
    7.7048    3.2064    8.7242 H   0  0  0  0  0  0  0  0  0  0  0  0
    5.4196    3.7984    8.0292 H   0  0  0  0  0  0  0  0  0  0  0  0
  1  8  1  0  0  0  0
  1  4  1  0  0  0  0
  1  3  1  0  0  0  0
  1  6  1  0  0  0  0
  2  1  1  0  0  0  0
  5  9  1  0  0  0  0
  5  1  1  0  0  0  0
  6 31  1  0  0  0  0
  6 25  1  0  0  0  0
  8  7  1  0  0  0  0
  9 37  1  0  0  0  0
 10 39  1  0  0  0  0
 10  9  2  0  0  0  0
 11  5  1  0  0  0  0
 12 40  1  0  0  0  0
 12 11  2  0  0  0  0
 13 12  1  0  0  0  0
 14 13  2  0  0  0  0
 14 15  1  0  0  0  0
 15 16  2  0  0  0  0
 16 11  1  0  0  0  0
 16 44  1  0  0  0  0
 17  5  1  0  0  0  0
 17 18  1  0  0  0  0
 18 45  1  0  0  0  0
 19 18  2  0  0  0  0
 19 46  1  0  0  0  0
 20 19  1  0  0  0  0
 21 22  1  0  0  0  0
 21 20  2  0  0  0  0
 22 17  2  0  0  0  0
 23 24  2  0  0  0  0
 23  6  1  0  0  0  0
 24 51  1  0  0  0  0
 25 26  2  0  0  0  0
 25 30  1  0  0  0  0
 26 27  1  0  0  0  0
 27 54  1  0  0  0  0
 27 28  2  0  0  0  0
 28 55  1  0  0  0  0
 29 28  1  0  0  0  0
 29 56  1  0  0  0  0
 30 29  2  0  0  0  0
 31 36  1  0  0  0  0
 32 33  1  0  0  0  0
 32 31  2  0  0  0  0
 33 34  2  0  0  0  0
 34 60  1  0  0  0  0
 34 35  1  0  0  0  0
 35 61  1  0  0  0  0
 36 35  2  0  0  0  0
 36 62  1  0  0  0  0
 38 10  1  0  0  0  0
 41 13  1  0  0  0  0
 42 14  1  0  0  0  0
 43 15  1  0  0  0  0
 47 20  1  0  0  0  0
 48 21  1  0  0  0  0
 49 22  1  0  0  0  0
 50 23  1  0  0  0  0
 52 24  1  0  0  0  0
 53 26  1  0  0  0  0
 57 30  1  0  0  0  0
 58 32  1  0  0  0  0
 59 33  1  0  0  0  0
M  END
$$$$
