CSD_code = ZOBNUB | q = 0 | S = 0 | Stoichiometry = C34H30Cl2Zr | MND = 12
 OpenBabel04212202133D

 67 73  0  0  1  0  0  0  0  0999 V2000
    2.0535    7.7525    3.4125 Zr  0  0  0  0  0  0  0  0  0  0  0  0
    1.2352    5.5824    3.2959 Cl  0  0  0  0  0  0  0  0  0  0  0  0
    0.1059    8.8833    2.7810 Cl  0  0  0  0  0  0  0  0  0  0  0  0
    3.9775    8.5642    2.3075 C   0  0  0  0  0  0  0  0  0  0  0  0
    2.9796    9.2305    1.5143 C   0  0  0  0  0  0  0  0  0  0  0  0
    2.6343   10.5893    1.3943 C   0  0  0  0  0  0  0  0  0  0  0  0
    3.1608   11.3440    1.9644 H   0  0  0  0  0  0  0  0  0  0  0  0
    1.6355   10.9487    0.5192 C   0  0  0  0  0  0  0  0  0  0  0  0
    1.3647   11.9894    0.4184 H   0  0  0  0  0  0  0  0  0  0  0  0
    0.9573    9.9956   -0.2502 C   0  0  0  0  0  0  0  0  0  0  0  0
    0.1782   10.3210   -0.9222 H   0  0  0  0  0  0  0  0  0  0  0  0
    1.2697    8.6567   -0.1595 C   0  0  0  0  0  0  0  0  0  0  0  0
    0.7448    7.9250   -0.7578 H   0  0  0  0  0  0  0  0  0  0  0  0
    2.2790    8.2553    0.7182 C   0  0  0  0  0  0  0  0  0  0  0  0
    2.8566    6.9687    1.0012 C   0  0  0  0  0  0  0  0  0  0  0  0
    2.5942    5.6967    0.4849 C   0  0  0  0  0  0  0  0  0  0  0  0
    1.8025    5.5569   -0.2382 H   0  0  0  0  0  0  0  0  0  0  0  0
    3.3563    4.6309    0.9094 C   0  0  0  0  0  0  0  0  0  0  0  0
    3.1596    3.6418    0.5258 H   0  0  0  0  0  0  0  0  0  0  0  0
    4.3955    4.8125    1.8307 C   0  0  0  0  0  0  0  0  0  0  0  0
    4.9827    3.9571    2.1305 H   0  0  0  0  0  0  0  0  0  0  0  0
    4.6956    6.0509    2.3493 C   0  0  0  0  0  0  0  0  0  0  0  0
    5.5384    6.1664    3.0173 H   0  0  0  0  0  0  0  0  0  0  0  0
    3.9274    7.1673    1.9549 C   0  0  0  0  0  0  0  0  0  0  0  0
    5.0611    9.2712    3.0858 C   0  0  0  0  0  0  0  0  0  0  0  0
    5.5095   10.0603    2.4728 H   0  0  0  0  0  0  0  0  0  0  0  0
    5.8520    8.5576    3.3272 H   0  0  0  0  0  0  0  0  0  0  0  0
    4.4968    9.8896    4.3879 C   0  0  0  0  0  0  0  0  0  0  0  0
    5.3123   10.0596    5.0989 H   0  0  0  0  0  0  0  0  0  0  0  0
    4.0362   10.8583    4.1729 H   0  0  0  0  0  0  0  0  0  0  0  0
    3.4577    8.9743    4.9758 C   0  0  2  0  0  3  0  0  0  0  0  0
    3.6676    7.6122    5.3630 C   0  0  0  0  0  0  0  0  0  0  0  0
    4.8268    6.8156    5.4614 C   0  0  0  0  0  0  0  0  0  0  0  0
    5.7935    7.2231    5.1967 H   0  0  0  0  0  0  0  0  0  0  0  0
    4.7257    5.5449    5.9667 C   0  0  0  0  0  0  0  0  0  0  0  0
    5.6089    4.9296    6.0526 H   0  0  0  0  0  0  0  0  0  0  0  0
    3.4945    5.0335    6.4118 C   0  0  0  0  0  0  0  0  0  0  0  0
    3.4629    4.0341    6.8178 H   0  0  0  0  0  0  0  0  0  0  0  0
    2.3519    5.7898    6.3778 C   0  0  0  0  0  0  0  0  0  0  0  0
    1.4313    5.4039    6.7900 H   0  0  0  0  0  0  0  0  0  0  0  0
    2.4059    7.0962    5.8503 C   0  0  0  0  0  0  0  0  0  0  0  0
    1.4336    8.1483    5.7702 C   0  0  2  0  0  3  0  0  0  0  0  0
    2.1017    9.2906    5.2445 C   0  0  2  0  0  0  0  0  0  0  0  0
    1.6737   10.2837    5.1441 H   0  0  0  0  0  0  0  0  0  0  0  0
    0.0430    8.0613    6.3722 C   0  0  0  0  0  0  0  0  0  0  0  0
    0.1319    7.6216    7.8411 C   0  0  0  0  0  0  0  0  0  0  0  0
   -0.7861    6.6941    8.3285 C   0  0  0  0  0  0  0  0  0  0  0  0
   -1.5382    6.2839    7.6765 H   0  0  0  0  0  0  0  0  0  0  0  0
   -0.7785    6.2615    9.6412 C   0  0  0  0  0  0  0  0  0  0  0  0
   -1.5098    5.5388    9.9719 H   0  0  0  0  0  0  0  0  0  0  0  0
    0.1661    6.7573   10.5177 C   0  0  0  0  0  0  0  0  0  0  0  0
    0.1940    6.4290   11.5460 H   0  0  0  0  0  0  0  0  0  0  0  0
    1.0722    7.6908   10.0572 C   0  0  0  0  0  0  0  0  0  0  0  0
    1.8077    8.0907   10.7413 H   0  0  0  0  0  0  0  0  0  0  0  0
    1.0738    8.1421    8.7407 C   0  0  0  0  0  0  0  0  0  0  0  0
    2.1207    9.1615    8.3926 C   0  0  0  0  0  0  0  0  0  0  0  0
    2.9645    8.6858    7.8940 H   0  0  0  0  0  0  0  0  0  0  0  0
    2.4928    9.6270    9.3033 H   0  0  0  0  0  0  0  0  0  0  0  0
    1.7386    9.9424    7.7448 H   0  0  0  0  0  0  0  0  0  0  0  0
   -0.6857    9.4137    6.3047 C   0  0  0  0  0  0  0  0  0  0  0  0
   -0.1693   10.1830    6.8723 H   0  0  0  0  0  0  0  0  0  0  0  0
   -1.6829    9.3056    6.7256 H   0  0  0  0  0  0  0  0  0  0  0  0
   -0.7792    9.7323    5.2675 H   0  0  0  0  0  0  0  0  0  0  0  0
   -0.7727    7.0659    5.5205 C   0  0  0  0  0  0  0  0  0  0  0  0
   -0.7147    7.3540    4.4693 H   0  0  0  0  0  0  0  0  0  0  0  0
   -1.8233    7.0861    5.8021 H   0  0  0  0  0  0  0  0  0  0  0  0
   -0.3960    6.0494    5.6172 H   0  0  0  0  0  0  0  0  0  0  0  0
  1 43  1  0  0  0  0
  2  1  1  0  0  0  0
  3  1  1  0  0  0  0
  4 25  1  0  0  0  0
  4  1  1  0  0  0  0
  5  4  1  0  0  0  0
  6  5  1  0  0  0  0
  6  7  1  0  0  0  0
  8  6  2  0  0  0  0
  9  8  1  0  0  0  0
 10 12  2  0  0  0  0
 10  8  1  0  0  0  0
 11 10  1  0  0  0  0
 12 14  1  0  0  0  0
 13 12  1  0  0  0  0
 14 15  1  0  0  0  0
 14  5  2  0  0  0  0
 15 24  1  0  0  0  0
 16 18  1  0  0  0  0
 16 15  2  0  0  0  0
 17 16  1  0  0  0  0
 18 20  2  0  0  0  0
 19 18  1  0  0  0  0
 20 21  1  0  0  0  0
 20 22  1  0  0  0  0
 22 23  1  0  0  0  0
 24  4  1  0  0  0  0
 24 22  2  0  0  0  0
 25 27  1  0  0  0  0
 25 28  1  0  0  0  0
 26 25  1  0  0  0  0
 28 31  1  0  0  0  0
 28 29  1  0  0  0  0
 30 28  1  0  0  0  0
 31 43  1  0  0  0  0
 31 32  1  6  0  0  0
 32 33  2  0  0  0  0
 32 41  1  0  0  0  0
 33 35  1  0  0  0  0
 34 33  1  0  0  0  0
 35 36  1  0  0  0  0
 35 37  2  0  0  0  0
 37 38  1  0  0  0  0
 39 37  1  0  0  0  0
 39 40  1  0  0  0  0
 41 39  2  0  0  0  0
 42 41  1  0  0  0  0
 42 45  1  1  0  0  0
 43 44  1  6  0  0  0
 43 42  1  0  0  0  0
 45 46  1  0  0  0  0
 46 47  2  0  0  0  0
 46 55  1  0  0  0  0
 47 49  1  0  0  0  0
 48 47  1  0  0  0  0
 49 50  1  0  0  0  0
 49 51  2  0  0  0  0
 51 52  1  0  0  0  0
 53 51  1  0  0  0  0
 53 54  1  0  0  0  0
 55 53  2  0  0  0  0
 56 55  1  0  0  0  0
 56 58  1  0  0  0  0
 57 56  1  0  0  0  0
 59 56  1  0  0  0  0
 60 45  1  0  0  0  0
 60 62  1  0  0  0  0
 60 61  1  0  0  0  0
 63 60  1  0  0  0  0
 64 67  1  0  0  0  0
 64 66  1  0  0  0  0
 64 45  1  0  0  0  0
 65 64  1  0  0  0  0
M  END
$$$$
