CSD_code = ZOBPAK | q = 0 | S = 0 | Stoichiometry = C14H13BrCl2N2O2PtS | MND = 4
 OpenBabel04212202133D

 36 38  0  0  1  0  0  0  0  0999 V2000
    3.7482    0.0761    5.0209 C   0  0  0  0  0  0  0  0  0  0  0  0
    4.1723   -0.2935    4.0933 H   0  0  0  0  0  0  0  0  0  0  0  0
    3.7550   -0.7007    5.7761 H   0  0  0  0  0  0  0  0  0  0  0  0
    4.2818    0.9583    5.3523 H   0  0  0  0  0  0  0  0  0  0  0  0
    1.5748    1.0934    6.3681 C   0  0  0  0  0  0  0  0  0  0  0  0
    2.2305    1.9101    6.6444 H   0  0  0  0  0  0  0  0  0  0  0  0
    1.6801    0.2518    7.0426 H   0  0  0  0  0  0  0  0  0  0  0  0
    0.5439    1.4307    6.3412 H   0  0  0  0  0  0  0  0  0  0  0  0
    1.6503    4.3107    1.2069 C   0  0  1  0  0  3  0  0  0  0  0  0
    0.4020    3.8435   -0.4790 C   0  0  0  0  0  0  0  0  0  0  0  0
    0.4147    2.7476    0.4035 C   0  0  0  0  0  0  0  0  0  0  0  0
   -0.3040    1.5892    0.1328 C   0  0  0  0  0  0  0  0  0  0  0  0
   -0.2827    0.7583    0.8221 H   0  0  0  0  0  0  0  0  0  0  0  0
   -1.0260    1.5729   -1.0423 C   0  0  0  0  0  0  0  0  0  0  0  0
   -1.6009    0.6967   -1.2985 H   0  0  0  0  0  0  0  0  0  0  0  0
   -1.0346    2.6640   -1.9158 C   0  0  0  0  0  0  0  0  0  0  0  0
   -1.6155    2.6011   -2.8230 H   0  0  0  0  0  0  0  0  0  0  0  0
   -0.3238    3.8219   -1.6571 C   0  0  0  0  0  0  0  0  0  0  0  0
   -0.3304    4.6628   -2.3304 H   0  0  0  0  0  0  0  0  0  0  0  0
    2.5311    5.0456    2.0804 C   0  0  0  0  0  0  0  0  0  0  0  0
    3.6891    4.9800    4.0323 C   0  0  0  0  0  0  0  0  0  0  0  0
    4.1967    6.2626    3.8704 C   0  0  0  0  0  0  0  0  0  0  0  0
    4.8513    6.6972    4.6086 H   0  0  0  0  0  0  0  0  0  0  0  0
    3.8223    6.9469    2.7239 C   0  0  0  0  0  0  0  0  0  0  0  0
    4.1888    7.9470    2.5491 H   0  0  0  0  0  0  0  0  0  0  0  0
    2.9782    6.3394    1.8087 C   0  0  0  0  0  0  0  0  0  0  0  0
    2.6655    6.8384    0.9064 H   0  0  0  0  0  0  0  0  0  0  0  0
    4.1380    3.9673    5.5523 Br  0  0  0  0  0  0  0  0  0  0  0  0
    3.4911    1.1225    1.9058 Cl  0  0  0  0  0  0  0  0  0  0  0  0
   -0.1660    2.8201    4.1561 Cl  0  0  0  0  0  0  0  0  0  0  0  0
    1.2224    3.0954    1.4578 N   0  0  0  0  0  0  0  0  0  0  0  0
    2.8913    4.3863    3.1843 N   0  0  0  0  0  0  0  0  0  0  0  0
    1.2948   -0.7069    4.4655 O   0  0  0  0  0  1  0  0  0  0  0  0
    1.1894    4.8181    0.0509 O   0  0  0  0  0  0  0  0  0  0  0  0
    1.6557    1.9648    3.0251 Pt  0  0  0  0  0  0  0  0  0  0  0  0
    2.0176    0.5256    4.7002 S   0  0  0  0  0  0  0  0  0  0  0  0
  1  4  1  0  0  0  0
  1  3  1  0  0  0  0
  2  1  1  0  0  0  0
  5  6  1  0  0  0  0
  5  7  1  0  0  0  0
  8  5  1  0  0  0  0
  9 31  1  0  0  0  0
  9 20  1  1  0  0  0
 10 34  1  0  0  0  0
 10 11  1  0  0  0  0
 11 31  1  0  0  0  0
 12 11  2  0  0  0  0
 12 13  1  0  0  0  0
 14 12  1  0  0  0  0
 15 14  1  0  0  0  0
 16 18  1  0  0  0  0
 16 14  2  0  0  0  0
 17 16  1  0  0  0  0
 18 10  2  0  0  0  0
 19 18  1  0  0  0  0
 20 32  1  0  0  0  0
 21 28  1  0  0  0  0
 22 21  1  0  0  0  0
 22 23  1  0  0  0  0
 24 22  2  0  0  0  0
 25 24  1  0  0  0  0
 26 20  2  0  0  0  0
 26 24  1  0  0  0  0
 27 26  1  0  0  0  0
 29 35  1  0  0  0  0
 31 35  1  0  0  0  0
 32 21  2  0  0  0  0
 33 36  1  0  0  0  0
 34  9  1  0  0  0  0
 35 30  1  0  0  0  0
 35 36  1  0  0  0  0
 36  1  1  0  0  0  0
 36  5  1  0  0  0  0
M  END
$$$$
