CSD_code = ZOCZAU | q = 0 | S = 0 | Stoichiometry = C23H30AuClN2 | MND = 2
 OpenBabel04212202133D

 57 59  0  0  0  0  0  0  0  0999 V2000
    5.3310    5.6146    3.7549 Au  0  0  0  0  0  0  0  0  0  0  0  0
    6.1198    3.5069    3.7310 Cl  0  0  0  0  0  0  0  0  0  0  0  0
    4.7737    8.2846    2.7011 N   0  0  0  0  0  0  0  0  0  0  0  0
    4.0202    7.9812    4.8694 N   0  0  0  0  0  0  0  0  0  0  0  0
    4.6180    7.5211    3.7751 C   0  0  0  0  0  3  0  0  0  0  0  0
    4.1608    9.5800    2.4056 C   0  0  0  0  0  0  0  0  0  0  0  0
    4.1977    9.6917    1.3189 H   0  0  0  0  0  0  0  0  0  0  0  0
    4.7398   10.4053    2.8330 H   0  0  0  0  0  0  0  0  0  0  0  0
    2.7097    9.6336    2.8765 C   0  0  0  0  0  0  0  0  0  0  0  0
    2.2553    8.6589    2.6889 H   0  0  0  0  0  0  0  0  0  0  0  0
    2.1619   10.3704    2.2865 H   0  0  0  0  0  0  0  0  0  0  0  0
    2.5930    9.9833    4.3613 C   0  0  0  0  0  0  0  0  0  0  0  0
    2.6256   11.0666    4.4947 H   0  0  0  0  0  0  0  0  0  0  0  0
    1.6313    9.6357    4.7430 H   0  0  0  0  0  0  0  0  0  0  0  0
    3.7343    9.3778    5.1775 C   0  0  0  0  0  0  0  0  0  0  0  0
    4.6486    9.9611    5.0266 H   0  0  0  0  0  0  0  0  0  0  0  0
    3.4823    9.4297    6.2387 H   0  0  0  0  0  0  0  0  0  0  0  0
    5.5576    7.7476    1.6276 C   0  0  0  0  0  0  0  0  0  0  0  0
    6.9377    7.9492    1.6366 C   0  0  0  0  0  0  0  0  0  0  0  0
    7.6898    7.4535    0.5841 C   0  0  0  0  0  0  0  0  0  0  0  0
    8.7606    7.5971    0.5892 H   0  0  0  0  0  0  0  0  0  0  0  0
    7.0993    6.7671   -0.4671 C   0  0  0  0  0  0  0  0  0  0  0  0
    5.7250    6.5796   -0.4507 C   0  0  0  0  0  0  0  0  0  0  0  0
    5.2553    6.0356   -1.2574 H   0  0  0  0  0  0  0  0  0  0  0  0
    4.9379    7.0609    0.5836 C   0  0  0  0  0  0  0  0  0  0  0  0
    7.5954    8.6517    2.7857 C   0  0  0  0  0  0  0  0  0  0  0  0
    7.1489    9.6298    2.9607 H   0  0  0  0  0  0  0  0  0  0  0  0
    8.6567    8.7841    2.5958 H   0  0  0  0  0  0  0  0  0  0  0  0
    7.4797    8.0568    3.6926 H   0  0  0  0  0  0  0  0  0  0  0  0
    7.9326    6.2049   -1.5763 C   0  0  0  0  0  0  0  0  0  0  0  0
    7.3675    6.1595   -2.5043 H   0  0  0  0  0  0  0  0  0  0  0  0
    8.2422    5.1916   -1.3200 H   0  0  0  0  0  0  0  0  0  0  0  0
    8.8282    6.8015   -1.7330 H   0  0  0  0  0  0  0  0  0  0  0  0
    3.4585    6.8233    0.5880 C   0  0  0  0  0  0  0  0  0  0  0  0
    3.1360    6.4748    1.5681 H   0  0  0  0  0  0  0  0  0  0  0  0
    3.1952    6.0704   -0.1496 H   0  0  0  0  0  0  0  0  0  0  0  0
    2.9143    7.7383    0.3516 H   0  0  0  0  0  0  0  0  0  0  0  0
    3.8361    7.0639    5.9537 C   0  0  0  0  0  0  0  0  0  0  0  0
    2.7154    6.2330    5.9647 C   0  0  0  0  0  0  0  0  0  0  0  0
    2.5397    5.3678    7.0324 C   0  0  0  0  0  0  0  0  0  0  0  0
    1.6793    4.7144    7.0427 H   0  0  0  0  0  0  0  0  0  0  0  0
    3.4482    5.3124    8.0794 C   0  0  0  0  0  0  0  0  0  0  0  0
    4.5556    6.1462    8.0424 C   0  0  0  0  0  0  0  0  0  0  0  0
    5.2791    6.1037    8.8438 H   0  0  0  0  0  0  0  0  0  0  0  0
    4.7678    7.0249    6.9914 C   0  0  0  0  0  0  0  0  0  0  0  0
    1.7429    6.2421    4.8250 C   0  0  0  0  0  0  0  0  0  0  0  0
    2.2140    5.8088    3.9416 H   0  0  0  0  0  0  0  0  0  0  0  0
    1.4282    7.2548    4.5811 H   0  0  0  0  0  0  0  0  0  0  0  0
    0.8639    5.6516    5.0682 H   0  0  0  0  0  0  0  0  0  0  0  0
    3.2573    4.3426    9.2037 C   0  0  0  0  0  0  0  0  0  0  0  0
    2.2008    4.1624    9.3878 H   0  0  0  0  0  0  0  0  0  0  0  0
    3.7214    4.7069   10.1171 H   0  0  0  0  0  0  0  0  0  0  0  0
    3.7215    3.3907    8.9450 H   0  0  0  0  0  0  0  0  0  0  0  0
    5.9878    7.8960    6.9695 C   0  0  0  0  0  0  0  0  0  0  0  0
    6.7590    7.4781    7.6108 H   0  0  0  0  0  0  0  0  0  0  0  0
    5.7564    8.8998    7.3279 H   0  0  0  0  0  0  0  0  0  0  0  0
    6.3840    7.9760    5.9588 H   0  0  0  0  0  0  0  0  0  0  0  0
  1  5  1  0  0  0  0
  2  1  1  0  0  0  0
  3  5  1  0  0  0  0
  4 15  1  0  0  0  0
  4 38  1  0  0  0  0
  5  4  1  0  0  0  0
  6  3  1  0  0  0  0
  6  8  1  0  0  0  0
  6  9  1  0  0  0  0
  7  6  1  0  0  0  0
  9 12  1  0  0  0  0
 10  9  1  0  0  0  0
 11  9  1  0  0  0  0
 12 13  1  0  0  0  0
 12 14  1  0  0  0  0
 12 15  1  0  0  0  0
 15 17  1  0  0  0  0
 16 15  1  0  0  0  0
 18 19  1  0  0  0  0
 18  3  1  0  0  0  0
 19 26  1  0  0  0  0
 20 21  1  0  0  0  0
 20 19  2  0  0  0  0
 22 23  2  0  0  0  0
 22 20  1  0  0  0  0
 23 25  1  0  0  0  0
 24 23  1  0  0  0  0
 25 34  1  0  0  0  0
 25 18  2  0  0  0  0
 26 27  1  0  0  0  0
 26 29  1  0  0  0  0
 28 26  1  0  0  0  0
 30 32  1  0  0  0  0
 30 22  1  0  0  0  0
 31 30  1  0  0  0  0
 33 30  1  0  0  0  0
 34 35  1  0  0  0  0
 36 34  1  0  0  0  0
 37 34  1  0  0  0  0
 38 39  2  0  0  0  0
 38 45  1  0  0  0  0
 39 40  1  0  0  0  0
 40 41  1  0  0  0  0
 40 42  2  0  0  0  0
 42 50  1  0  0  0  0
 43 42  1  0  0  0  0
 43 44  1  0  0  0  0
 45 43  2  0  0  0  0
 46 49  1  0  0  0  0
 46 39  1  0  0  0  0
 47 46  1  0  0  0  0
 48 46  1  0  0  0  0
 50 51  1  0  0  0  0
 50 52  1  0  0  0  0
 53 50  1  0  0  0  0
 54 45  1  0  0  0  0
 54 56  1  0  0  0  0
 54 55  1  0  0  0  0
 57 54  1  0  0  0  0
M  END
$$$$
