CSD_code = ZOFHIL | q = 0 | S = 0 | Stoichiometry = C9H12Br2N4Zn | MND = 4
 OpenBabel04212202133D

 28 30  0  0  1  0  0  0  0  0999 V2000
    7.6341    0.7617    5.1629 Zn  0  0  0  0  0  0  0  0  0  0  0  0
    9.3575   -0.2544    3.9302 Br  0  0  0  0  0  0  0  0  0  0  0  0
    5.7399    2.1205    4.9236 Br  0  0  0  0  0  0  0  0  0  0  0  0
    7.3669   -0.9634    7.8023 N   0  0  0  0  0  0  0  0  0  0  0  0
    7.0968   -0.8590    6.4955 N   0  0  2  0  0  0  0  0  0  0  0  0
    6.9054   -2.0845    6.0416 C   0  0  0  0  0  3  0  0  0  0  0  0
    7.0456   -3.0110    7.0742 C   0  0  0  0  0  0  0  0  0  0  0  0
    7.3423   -2.2563    8.1834 C   0  0  0  0  0  0  0  0  0  0  0  0
    7.5816    0.2271    8.6194 C   0  0  0  0  0  0  0  0  0  0  0  0
    7.8106   -0.1735   10.0747 C   0  0  0  0  0  0  0  0  0  0  0  0
    6.3523    1.1362    8.5314 C   0  0  0  0  0  0  0  0  0  0  0  0
    8.7502    0.9361    8.1082 N   0  0  0  0  0  0  0  0  0  0  0  0
    8.7468    1.4724    6.8814 N   0  0  1  0  0  0  0  0  0  0  0  0
    9.9066    2.0847    6.7248 C   0  0  0  0  0  3  0  0  0  0  0  0
   10.6845    1.9515    7.8744 C   0  0  0  0  0  0  0  0  0  0  0  0
    9.9126    1.2089    8.7348 C   0  0  0  0  0  0  0  0  0  0  0  0
    6.6801   -2.2577    5.0070 H   0  0  0  0  0  0  0  0  0  0  0  0
    6.9489   -4.0744    7.0152 H   0  0  0  0  0  0  0  0  0  0  0  0
    7.5290   -2.5728    9.1874 H   0  0  0  0  0  0  0  0  0  0  0  0
   10.1413    2.5898    5.8078 H   0  0  0  0  0  0  0  0  0  0  0  0
   11.6674    2.3362    8.0459 H   0  0  0  0  0  0  0  0  0  0  0  0
   10.1334    0.8763    9.7265 H   0  0  0  0  0  0  0  0  0  0  0  0
    7.9676    0.7197   10.6740 H   0  0  0  0  0  0  0  0  0  0  0  0
    6.9252   -0.6765   10.4544 H   0  0  0  0  0  0  0  0  0  0  0  0
    8.6688   -0.8319   10.1852 H   0  0  0  0  0  0  0  0  0  0  0  0
    6.5108    2.0282    9.1314 H   0  0  0  0  0  0  0  0  0  0  0  0
    6.1512    1.4448    7.5109 H   0  0  0  0  0  0  0  0  0  0  0  0
    5.4783    0.6096    8.9054 H   0  0  0  0  0  0  0  0  0  0  0  0
  1  5  1  0  0  0  0
  1 13  1  0  0  0  0
  2  1  1  0  0  0  0
  3  1  1  0  0  0  0
  4  8  1  0  0  0  0
  4  9  1  0  0  0  0
  5  6  1  6  0  0  0
  5  4  1  0  0  0  0
  6  7  1  0  0  0  0
  7  8  2  0  0  0  0
  8 19  1  0  0  0  0
  9 10  1  0  0  0  0
 10 25  1  0  0  0  0
 10 24  1  0  0  0  0
 10 23  1  0  0  0  0
 11  9  1  0  0  0  0
 11 28  1  0  0  0  0
 11 26  1  0  0  0  0
 12  9  1  0  0  0  0
 12 16  1  0  0  0  0
 13 14  1  6  0  0  0
 13 12  1  0  0  0  0
 14 15  1  0  0  0  0
 15 21  1  0  0  0  0
 15 16  2  0  0  0  0
 16 22  1  0  0  0  0
 17  6  1  0  0  0  0
 18  7  1  0  0  0  0
 20 14  1  0  0  0  0
 27 11  1  0  0  0  0
M  END
$$$$
