CSD_code = ZOFKIO | q = 0 | S = 0 | Stoichiometry = C8H18Cl3O3V | MND = 6
 OpenBabel04212202133D

 33 31  0  0  0  0  0  0  0  0999 V2000
    1.6336    2.1523    1.6625 V   0  0  0  0  0  0  0  0  0  0  0  0
    1.2290   -0.0140    1.2891 Cl  0  0  0  0  0  0  0  0  0  0  0  0
    1.1302    4.1306    1.3136 Cl  0  0  0  0  0  0  0  0  0  0  0  0
    3.4850    1.9495    2.8235 Cl  0  0  0  0  0  0  0  0  0  0  0  0
    0.6145    2.0983    3.2907 O   0  0  0  0  0  0  0  0  0  0  0  0
    2.7386    2.1575    0.0116 O   0  0  0  0  0  0  0  0  0  0  0  0
   -0.7989    1.9649    0.4012 O   0  0  0  0  0  0  0  0  0  0  0  0
   -0.7131    1.5927    3.4131 C   0  0  0  0  0  0  0  0  0  0  0  0
   -1.0816    1.7309    4.8864 C   0  0  0  0  0  0  0  0  0  0  0  0
   -0.2911    2.9760    5.2799 C   0  0  0  0  0  0  0  0  0  0  0  0
    0.9942    2.7816    4.4828 C   0  0  0  0  0  0  0  0  0  0  0  0
    2.2545    1.8136   -1.2764 C   0  0  0  0  0  0  0  0  0  0  0  0
    3.4915    1.7993   -2.1659 C   0  0  0  0  0  0  0  0  0  0  0  0
    4.2624    2.9943   -1.6081 C   0  0  0  0  0  0  0  0  0  0  0  0
    3.9383    2.9245   -0.1140 C   0  0  0  0  0  0  0  0  0  0  0  0
   -0.7119    0.5567    3.0573 H   0  0  0  0  0  0  0  0  0  0  0  0
   -1.3679    2.1961    2.7705 H   0  0  0  0  0  0  0  0  0  0  0  0
   -0.7306    0.8659    5.4511 H   0  0  0  0  0  0  0  0  0  0  0  0
   -2.1532    1.8396    5.0345 H   0  0  0  0  0  0  0  0  0  0  0  0
   -0.8105    3.8747    4.9444 H   0  0  0  0  0  0  0  0  0  0  0  0
   -0.1074    3.0489    6.3491 H   0  0  0  0  0  0  0  0  0  0  0  0
    1.4763    3.7225    4.1957 H   0  0  0  0  0  0  0  0  0  0  0  0
    1.7179    2.1571    5.0254 H   0  0  0  0  0  0  0  0  0  0  0  0
    1.5416    2.5845   -1.6123 H   0  0  0  0  0  0  0  0  0  0  0  0
    1.7547    0.8430   -1.1949 H   0  0  0  0  0  0  0  0  0  0  0  0
    3.2518    1.8984   -3.2218 H   0  0  0  0  0  0  0  0  0  0  0  0
    4.0514    0.8764   -2.0094 H   0  0  0  0  0  0  0  0  0  0  0  0
    5.3314    2.9348   -1.7977 H   0  0  0  0  0  0  0  0  0  0  0  0
    3.8813    3.9214   -2.0381 H   0  0  0  0  0  0  0  0  0  0  0  0
    4.7194    2.4089    0.4568 H   0  0  0  0  0  0  0  0  0  0  0  0
    3.7646    3.9125    0.3301 H   0  0  0  0  0  0  0  0  0  0  0  0
   -0.8064    2.1897   -0.5325 H   0  0  0  0  0  0  0  0  0  0  0  0
   -0.4967    1.0437    0.4731 H   0  0  0  0  0  0  0  0  0  0  0  0
  1  4  1  0  0  0  0
  2  1  1  0  0  0  0
  3  1  1  0  0  0  0
  5  8  1  0  0  0  0
  5 11  1  0  0  0  0
  7 33  1  0  0  0  0
  8  9  1  0  0  0  0
  9 19  1  0  0  0  0
  9 10  1  0  0  0  0
  9 18  1  0  0  0  0
 10 21  1  0  0  0  0
 11 23  1  0  0  0  0
 11 10  1  0  0  0  0
 12 25  1  0  0  0  0
 12  6  1  0  0  0  0
 13 27  1  0  0  0  0
 13 14  1  0  0  0  0
 13 12  1  0  0  0  0
 14 15  1  0  0  0  0
 15  6  1  0  0  0  0
 15 31  1  0  0  0  0
 15 30  1  0  0  0  0
 16  8  1  0  0  0  0
 17  8  1  0  0  0  0
 20 10  1  0  0  0  0
 22 11  1  0  0  0  0
 24 12  1  0  0  0  0
 26 13  1  0  0  0  0
 28 14  1  0  0  0  0
 29 14  1  0  0  0  0
 32  7  1  0  0  0  0
M  END
$$$$
