CSD_code = ZOGMEP | q = 0 | S = 0 | Stoichiometry = C13H13Cl2N3OZn | MND = 4
 OpenBabel04212202133D

 33 35  0  0  0  0  0  0  0  0999 V2000
    0.5448    1.9997    9.1845 Zn  0  0  0  0  0  0  0  0  0  0  0  0
   -1.2526    1.6587   10.4175 Cl  0  0  0  0  0  0  0  0  0  0  0  0
    2.2780    0.7328    8.7104 Cl  0  0  0  0  0  0  0  0  0  0  0  0
    1.7945    3.5691   11.3611 O   0  0  0  0  0  0  0  0  0  0  0  0
    1.0649    4.0037    9.3329 N   0  0  0  0  0  0  0  0  0  0  0  0
   -0.0769    2.8464    7.2242 N   0  0  0  0  0  0  0  0  0  0  0  0
   -2.2289   -0.4434    3.3278 N   0  0  0  0  0  0  0  0  0  0  0  0
   -2.1039   -0.2297    2.3540 H   0  0  0  0  0  0  0  0  0  0  0  0
   -2.4338   -1.3966    3.5708 H   0  0  0  0  0  0  0  0  0  0  0  0
    0.7756    4.7729    8.2835 C   0  0  0  0  0  0  0  0  0  0  0  0
    1.0275    6.1433    8.3156 C   0  0  0  0  0  0  0  0  0  0  0  0
    0.7939    6.7634    7.4654 H   0  0  0  0  0  0  0  0  0  0  0  0
    1.5781    6.6829    9.4681 C   0  0  0  0  0  0  0  0  0  0  0  0
    1.7830    7.7415    9.5250 H   0  0  0  0  0  0  0  0  0  0  0  0
    1.8668    5.8725   10.5517 C   0  0  0  0  0  0  0  0  0  0  0  0
    2.2928    6.2865   11.4501 H   0  0  0  0  0  0  0  0  0  0  0  0
    1.5880    4.5035   10.4398 C   0  0  0  0  0  0  0  0  0  0  0  0
    0.1919    4.0970    7.1468 C   0  0  0  0  0  0  0  0  0  0  0  0
   -0.0127    4.7051    6.2660 H   0  0  0  0  0  0  0  0  0  0  0  0
    2.3210    3.9259   12.6226 C   0  0  0  0  0  0  0  0  0  0  0  0
    2.3772    2.9972   13.1865 H   0  0  0  0  0  0  0  0  0  0  0  0
    1.6616    4.6274   13.1416 H   0  0  0  0  0  0  0  0  0  0  0  0
    3.3223    4.3555   12.5264 H   0  0  0  0  0  0  0  0  0  0  0  0
   -0.6018    2.0872    6.2121 C   0  0  0  0  0  0  0  0  0  0  0  0
   -0.6489    2.4726    4.8611 C   0  0  0  0  0  0  0  0  0  0  0  0
   -0.2423    3.4233    4.5510 H   0  0  0  0  0  0  0  0  0  0  0  0
   -1.1658    1.6290    3.9108 C   0  0  0  0  0  0  0  0  0  0  0  0
   -1.1796    1.9272    2.8722 H   0  0  0  0  0  0  0  0  0  0  0  0
   -1.6730    0.3694    4.2649 C   0  0  0  0  0  0  0  0  0  0  0  0
   -1.6266   -0.0169    5.6124 C   0  0  0  0  0  0  0  0  0  0  0  0
   -2.0088   -0.9859    5.8963 H   0  0  0  0  0  0  0  0  0  0  0  0
   -1.0928    0.8185    6.5583 C   0  0  0  0  0  0  0  0  0  0  0  0
   -1.0550    0.5175    7.5960 H   0  0  0  0  0  0  0  0  0  0  0  0
  1  5  1  0  0  0  0
  1  2  1  0  0  0  0
  3  1  1  0  0  0  0
  4 20  1  0  0  0  0
  5 17  1  0  0  0  0
  6  1  1  0  0  0  0
  7  9  1  0  0  0  0
  7 29  1  0  0  0  0
  8  7  1  0  0  0  0
 10 11  1  0  0  0  0
 10  5  1  0  0  0  0
 11 13  2  0  0  0  0
 12 11  1  0  0  0  0
 13 14  1  0  0  0  0
 13 15  1  0  0  0  0
 15 16  1  0  0  0  0
 17 15  2  0  0  0  0
 17  4  1  0  0  0  0
 18  6  1  0  0  0  0
 18 10  2  0  0  0  0
 19 18  1  0  0  0  0
 20 22  1  0  0  0  0
 20 21  1  0  0  0  0
 23 20  1  0  0  0  0
 24 32  1  0  0  0  0
 24  6  1  0  0  0  0
 25 24  2  0  0  0  0
 26 25  1  0  0  0  0
 27 29  2  0  0  0  0
 27 25  1  0  0  0  0
 28 27  1  0  0  0  0
 29 30  1  0  0  0  0
 30 31  1  0  0  0  0
 30 32  2  0  0  0  0
 32 33  1  0  0  0  0
M  END
$$$$
