CSD_code = ZOHJEN | q = 0 | S = 0 | Stoichiometry = C32H28I2N6Pd | MND = 4
 OpenBabel04212202133D

 69 75  0  0  0  0  0  0  0  0999 V2000
    1.4384    4.1464    8.3952 C   0  0  0  0  0  0  0  0  0  0  0  0
    0.7988    3.7026    7.6474 H   0  0  0  0  0  0  0  0  0  0  0  0
    1.3899    5.5108    8.6117 C   0  0  0  0  0  0  0  0  0  0  0  0
    0.7309    6.1227    8.0134 H   0  0  0  0  0  0  0  0  0  0  0  0
    2.1929    6.0934    9.5779 C   0  0  0  0  0  0  0  0  0  0  0  0
    2.1791    7.1644    9.7178 H   0  0  0  0  0  0  0  0  0  0  0  0
    3.0021    5.2988   10.3742 C   0  0  0  0  0  0  0  0  0  0  0  0
    3.6286    5.7460   11.1310 H   0  0  0  0  0  0  0  0  0  0  0  0
    3.0207    3.9289   10.1982 C   0  0  0  0  0  0  0  0  0  0  0  0
    3.6466    3.3075   10.8348 H   0  0  0  0  0  0  0  0  0  0  0  0
    2.2765    3.3464    9.1696 C   0  0  0  0  0  0  0  0  0  0  0  0
    2.4590    1.9245    8.9300 C   0  0  0  0  0  0  0  0  0  0  0  0
    2.7095    0.9193    9.8740 C   0  0  0  0  0  0  0  0  0  0  0  0
    3.2582   -1.4786    9.5878 C   0  0  0  0  0  0  0  0  0  0  0  0
    4.0305   -1.3800   10.3600 H   0  0  0  0  0  0  0  0  0  0  0  0
    3.6544   -2.0455    8.7400 H   0  0  0  0  0  0  0  0  0  0  0  0
    2.0181   -2.1443   10.1404 C   0  0  0  0  0  0  0  0  0  0  0  0
    1.9750   -2.6863   11.4274 C   0  0  0  0  0  0  0  0  0  0  0  0
    0.7951   -3.2929   11.8597 C   0  0  0  0  0  0  0  0  0  0  0  0
    0.7700   -3.7475   12.8401 H   0  0  0  0  0  0  0  0  0  0  0  0
   -0.3249   -3.3330   11.0529 C   0  0  0  0  0  0  0  0  0  0  0  0
   -1.2314   -3.7946   11.4135 H   0  0  0  0  0  0  0  0  0  0  0  0
   -0.2830   -2.7761    9.7860 C   0  0  0  0  0  0  0  0  0  0  0  0
   -1.1571   -2.7927    9.1538 H   0  0  0  0  0  0  0  0  0  0  0  0
    0.8863   -2.1965    9.3344 C   0  0  0  0  0  0  0  0  0  0  0  0
    0.9272   -1.7686    8.3419 H   0  0  0  0  0  0  0  0  0  0  0  0
    2.4436    1.9233    6.4051 C   0  0  0  0  0  0  0  0  0  0  0  0
    3.0071    1.3024    5.7100 H   0  0  0  0  0  0  0  0  0  0  0  0
    2.8464    2.9356    6.4180 H   0  0  0  0  0  0  0  0  0  0  0  0
    1.4000    1.9512    6.0860 H   0  0  0  0  0  0  0  0  0  0  0  0
    5.1701    0.8787   12.1431 I   0  0  0  0  0  0  0  0  0  0  0  0
    2.5581    1.3398    7.7098 N   0  0  0  0  0  0  0  0  0  0  0  0
    2.8519    0.0677    7.8129 N   0  0  0  0  0  2  0  0  0  0  0  0
    2.9394   -0.1618    9.1052 N   0  0  0  0  0  0  0  0  0  0  0  0
    2.5647    0.9108   11.8764 Pd  0  0  0  0  0  0  0  0  0  0  0  0
    3.6701    4.1363   15.3712 C   0  0  0  0  0  0  0  0  0  0  0  0
    4.2864    3.6951   16.1397 H   0  0  0  0  0  0  0  0  0  0  0  0
    3.7321    5.4989   15.1467 C   0  0  0  0  0  0  0  0  0  0  0  0
    4.3775    6.1115   15.7591 H   0  0  0  0  0  0  0  0  0  0  0  0
    2.9598    6.0787   14.1543 C   0  0  0  0  0  0  0  0  0  0  0  0
    2.9828    7.1485   14.0075 H   0  0  0  0  0  0  0  0  0  0  0  0
    2.1698    5.2823   13.3407 C   0  0  0  0  0  0  0  0  0  0  0  0
    1.5669    5.7276   12.5639 H   0  0  0  0  0  0  0  0  0  0  0  0
    2.1397    3.9138   13.5247 C   0  0  0  0  0  0  0  0  0  0  0  0
    1.5293    3.2912   12.8728 H   0  0  0  0  0  0  0  0  0  0  0  0
    2.8501    3.3348   14.5791 C   0  0  0  0  0  0  0  0  0  0  0  0
    2.6551    1.9154   14.8226 C   0  0  0  0  0  0  0  0  0  0  0  0
    2.4152    0.9082   13.8779 C   0  0  0  0  0  0  0  0  0  0  0  0
    1.8636   -1.4890   14.1617 C   0  0  0  0  0  0  0  0  0  0  0  0
    1.0899   -1.3956   13.3905 H   0  0  0  0  0  0  0  0  0  0  0  0
    1.4723   -2.0598   15.0092 H   0  0  0  0  0  0  0  0  0  0  0  0
    3.1087   -2.1435   13.6070 C   0  0  0  0  0  0  0  0  0  0  0  0
    3.1561   -2.6824   12.3189 C   0  0  0  0  0  0  0  0  0  0  0  0
    4.3408   -3.2787   11.8852 C   0  0  0  0  0  0  0  0  0  0  0  0
    4.3694   -3.7310   10.9038 H   0  0  0  0  0  0  0  0  0  0  0  0
    5.4613   -3.3112   12.6916 C   0  0  0  0  0  0  0  0  0  0  0  0
    6.3715   -3.7646   12.3299 H   0  0  0  0  0  0  0  0  0  0  0  0
    5.4152   -2.7571   13.9596 C   0  0  0  0  0  0  0  0  0  0  0  0
    6.2896   -2.7677   14.5915 H   0  0  0  0  0  0  0  0  0  0  0  0
    4.2413   -2.1880   14.4126 C   0  0  0  0  0  0  0  0  0  0  0  0
    4.1973   -1.7628   15.4061 H   0  0  0  0  0  0  0  0  0  0  0  0
    2.6307    1.9196   17.3483 C   0  0  0  0  0  0  0  0  0  0  0  0
    2.0562    1.2994   18.0349 H   0  0  0  0  0  0  0  0  0  0  0  0
    2.2273    2.9316   17.3274 H   0  0  0  0  0  0  0  0  0  0  0  0
    3.6689    1.9485   17.6847 H   0  0  0  0  0  0  0  0  0  0  0  0
    2.5376    1.3339   16.0429 N   0  0  0  0  0  0  0  0  0  0  0  0
    2.2436    0.0619   15.9386 N   0  0  0  0  0  2  0  0  0  0  0  0
    2.1736   -0.1708   14.6458 N   0  0  0  0  0  0  0  0  0  0  0  0
   -0.0423    0.8630   11.6137 I   0  0  0  0  0  0  0  0  0  0  0  0
  1  3  2  0  0  0  0
  1 11  1  0  0  0  0
  2  1  1  0  0  0  0
  3  5  1  0  0  0  0
  4  3  1  0  0  0  0
  5  6  1  0  0  0  0
  5  7  2  0  0  0  0
  7  8  1  0  0  0  0
  9  7  1  0  0  0  0
  9 10  1  0  0  0  0
 11  9  2  0  0  0  0
 12 11  1  0  0  0  0
 12 13  2  0  0  0  0
 13 35  1  0  0  0  0
 14 17  1  0  0  0  0
 14 15  1  0  0  0  0
 16 14  1  0  0  0  0
 17 18  1  0  0  0  0
 18 19  2  0  0  0  0
 18 53  1  0  0  0  0
 19 20  1  0  0  0  0
 21 22  1  0  0  0  0
 21 19  1  0  0  0  0
 23 21  2  0  0  0  0
 24 23  1  0  0  0  0
 25 23  1  0  0  0  0
 25 17  2  0  0  0  0
 26 25  1  0  0  0  0
 27 29  1  0  0  0  0
 27 32  1  0  0  0  0
 28 27  1  0  0  0  0
 30 27  1  0  0  0  0
 32 33  1  0  0  0  0
 32 12  1  0  0  0  0
 33 34  1  0  0  0  0
 34 14  1  0  0  0  0
 34 13  1  0  0  0  0
 35 31  1  0  0  0  0
 35 48  1  0  0  0  0
 36 37  1  0  0  0  0
 38 36  1  0  0  0  0
 38 39  1  0  0  0  0
 40 38  2  0  0  0  0
 41 40  1  0  0  0  0
 42 44  2  0  0  0  0
 42 40  1  0  0  0  0
 43 42  1  0  0  0  0
 44 46  1  0  0  0  0
 45 44  1  0  0  0  0
 46 47  1  0  0  0  0
 46 36  2  0  0  0  0
 47 66  1  0  0  0  0
 48 68  1  0  0  0  0
 48 47  2  0  0  0  0
 49 68  1  0  0  0  0
 49 51  1  0  0  0  0
 50 49  1  0  0  0  0
 52 49  1  0  0  0  0
 52 60  1  0  0  0  0
 53 52  2  0  0  0  0
 54 53  1  0  0  0  0
 54 56  2  0  0  0  0
 55 54  1  0  0  0  0
 56 58  1  0  0  0  0
 57 56  1  0  0  0  0
 58 60  2  0  0  0  0
 58 59  1  0  0  0  0
 60 61  1  0  0  0  0
 62 65  1  0  0  0  0
 62 63  1  0  0  0  0
 64 62  1  0  0  0  0
 66 62  1  0  0  0  0
 67 66  1  0  0  0  0
 68 67  1  0  0  0  0
 69 35  1  0  0  0  0
M  END
$$$$
