CSD_code = ZOJBUY | q = -1 | S = 0 | Stoichiometry = C2H6Br3OSZn(1-) | MND = 4
 OpenBabel04212202133D

 14 13  0  0  0  0  0  0  0  0999 V2000
    7.7658   19.9513    4.1551 Br  0  0  0  0  0  0  0  0  0  0  0  0
    5.5002   18.8068    0.5968 Br  0  0  0  0  0  0  0  0  0  0  0  0
    9.4258   18.0993    0.5564 Br  0  0  0  0  0  0  0  0  0  0  0  0
    7.6217   19.2598    1.8506 Zn  0  0  0  0  0  0  0  0  0  0  0  0
    7.7747   20.2711   -0.7643 S   0  0  0  0  0  3  0  0  0  0  0  0
    7.9042   20.8959    0.5800 O   0  0  0  0  0  0  0  0  0  0  0  0
    6.5987   21.3922   -1.6147 C   0  0  0  0  0  0  0  0  0  0  0  0
    5.6117   21.1750   -1.2215 H   0  0  0  0  0  0  0  0  0  0  0  0
    6.6281   21.1843   -2.6778 H   0  0  0  0  0  0  0  0  0  0  0  0
    6.8716   22.4186   -1.4016 H   0  0  0  0  0  0  0  0  0  0  0  0
    9.2485   20.9099   -1.6486 C   0  0  0  0  0  0  0  0  0  0  0  0
    9.3511   21.9701   -1.4514 H   0  0  0  0  0  0  0  0  0  0  0  0
    9.1285   20.7115   -2.7070 H   0  0  0  0  0  0  0  0  0  0  0  0
   10.1077   20.3702   -1.2659 H   0  0  0  0  0  0  0  0  0  0  0  0
  2  4  1  0  0  0  0
  3  4  1  0  0  0  0
  4  1  1  0  0  0  0
  5  6  1  0  0  0  0
  6  4  1  0  0  0  0
  7 10  1  0  0  0  0
  7  8  1  0  0  0  0
  7  5  1  0  0  0  0
  9  7  1  0  0  0  0
 11 12  1  0  0  0  0
 11 14  1  0  0  0  0
 11  5  1  0  0  0  0
 13 11  1  0  0  0  0
M  END
$$$$
