CSD_code = ZOJGUD | q = 0 | S = 0 | Stoichiometry = C21H24AuClN3P | MND = 2
 OpenBabel04212202133D

 51 53  0  0  0  0  0  0  0  0999 V2000
   -1.1967    8.2985    8.4051 Au  0  0  0  0  0  0  0  0  0  0  0  0
   -0.2799    6.6506    7.1507 Cl  0  0  0  0  0  0  0  0  0  0  0  0
   -2.0800    9.8814    9.7376 P   0  0  0  0  0  4  0  0  0  0  0  0
    1.0486   12.3916   11.8301 N   0  0  0  0  0  0  0  0  0  0  0  0
   -3.9132   13.7670    8.2393 N   0  0  0  0  0  0  0  0  0  0  0  0
   -3.5487    8.2595   13.8613 N   0  0  0  0  0  0  0  0  0  0  0  0
   -3.0038    9.1609   11.1470 C   0  0  0  0  0  0  0  0  0  0  0  0
   -3.3520    9.9454   11.8246 H   0  0  0  0  0  0  0  0  0  0  0  0
   -3.8741    8.6463   10.7246 H   0  0  0  0  0  0  0  0  0  0  0  0
   -0.8740   11.0300   10.5097 C   0  0  0  0  0  0  0  0  0  0  0  0
   -0.8477   11.9490    9.9166 H   0  0  0  0  0  0  0  0  0  0  0  0
   -1.1907   11.2832   11.5253 H   0  0  0  0  0  0  0  0  0  0  0  0
   -3.0970    6.0871   12.9977 C   0  0  0  0  0  0  0  0  0  0  0  0
   -2.6072    5.4756   12.2554 H   0  0  0  0  0  0  0  0  0  0  0  0
   -4.2870    7.7082   14.8068 C   0  0  0  0  0  0  0  0  0  0  0  0
   -4.7417    8.4012   15.5032 H   0  0  0  0  0  0  0  0  0  0  0  0
   -4.4839    6.3408   14.9223 C   0  0  0  0  0  0  0  0  0  0  0  0
   -5.0961    5.9366   15.7130 H   0  0  0  0  0  0  0  0  0  0  0  0
   -3.3002   10.9989    8.9475 C   0  0  0  0  0  0  0  0  0  0  0  0
   -2.7568   11.5395    8.1642 H   0  0  0  0  0  0  0  0  0  0  0  0
   -4.0484   10.3680    8.4560 H   0  0  0  0  0  0  0  0  0  0  0  0
   -2.1376    8.1637   11.9189 C   0  0  0  0  0  0  0  0  0  0  0  0
   -1.3228    8.7017   12.4104 H   0  0  0  0  0  0  0  0  0  0  0  0
   -1.7075    7.4302   11.2315 H   0  0  0  0  0  0  0  0  0  0  0  0
   -3.8731    5.5150   13.9922 C   0  0  0  0  0  0  0  0  0  0  0  0
   -3.9999    4.4432   14.0388 H   0  0  0  0  0  0  0  0  0  0  0  0
    0.5231   10.4134   10.5426 C   0  0  0  0  0  0  0  0  0  0  0  0
    0.8583   10.1971    9.5236 H   0  0  0  0  0  0  0  0  0  0  0  0
    0.5037    9.4577   11.0764 H   0  0  0  0  0  0  0  0  0  0  0  0
   -3.9745   12.0128    9.8773 C   0  0  0  0  0  0  0  0  0  0  0  0
   -4.6839   11.5188   10.5413 H   0  0  0  0  0  0  0  0  0  0  0  0
   -3.2132   12.5124   10.4805 H   0  0  0  0  0  0  0  0  0  0  0  0
    3.2685   12.9961   12.4559 C   0  0  0  0  0  0  0  0  0  0  0  0
    3.9243   13.6884   12.9598 H   0  0  0  0  0  0  0  0  0  0  0  0
    1.5213   11.3187   11.2119 C   0  0  0  0  0  0  0  0  0  0  0  0
   -6.6389   14.2206    8.3353 C   0  0  0  0  0  0  0  0  0  0  0  0
   -7.7046   14.3940    8.3740 H   0  0  0  0  0  0  0  0  0  0  0  0
    1.9002   13.2047   12.4327 C   0  0  0  0  0  0  0  0  0  0  0  0
    1.4541   14.0634   12.9178 H   0  0  0  0  0  0  0  0  0  0  0  0
   -4.6825   13.0534    9.0532 C   0  0  0  0  0  0  0  0  0  0  0  0
    3.7667   11.8728   11.8116 C   0  0  0  0  0  0  0  0  0  0  0  0
    4.8275   11.6684   11.8022 H   0  0  0  0  0  0  0  0  0  0  0  0
   -6.0570   13.2468    9.1307 C   0  0  0  0  0  0  0  0  0  0  0  0
   -6.6569   12.6493    9.8005 H   0  0  0  0  0  0  0  0  0  0  0  0
   -5.8318   14.9646    7.4901 C   0  0  0  0  0  0  0  0  0  0  0  0
   -6.2442   15.7317    6.8541 H   0  0  0  0  0  0  0  0  0  0  0  0
    2.8818   11.0192   11.1788 C   0  0  0  0  0  0  0  0  0  0  0  0
    3.2290   10.1360   10.6645 H   0  0  0  0  0  0  0  0  0  0  0  0
   -4.4719   14.6928    7.4834 C   0  0  0  0  0  0  0  0  0  0  0  0
   -3.7931   15.2407    6.8426 H   0  0  0  0  0  0  0  0  0  0  0  0
   -2.9574    7.4703   12.9715 C   0  0  0  0  0  0  0  0  0  0  0  0
  1  3  1  0  0  0  0
  2  1  1  0  0  0  0
  3 10  1  0  0  0  0
  3  7  1  0  0  0  0
  4 38  1  0  0  0  0
  5 40  1  0  0  0  0
  6 15  1  0  0  0  0
  7  8  1  0  0  0  0
  7 22  1  0  0  0  0
  9  7  1  0  0  0  0
 10 27  1  0  0  0  0
 10 12  1  0  0  0  0
 11 10  1  0  0  0  0
 13 25  2  0  0  0  0
 14 13  1  0  0  0  0
 15 17  2  0  0  0  0
 15 16  1  0  0  0  0
 17 18  1  0  0  0  0
 19  3  1  0  0  0  0
 19 30  1  0  0  0  0
 20 19  1  0  0  0  0
 21 19  1  0  0  0  0
 22 23  1  0  0  0  0
 22 51  1  0  0  0  0
 24 22  1  0  0  0  0
 25 26  1  0  0  0  0
 25 17  1  0  0  0  0
 27 29  1  0  0  0  0
 27 35  1  0  0  0  0
 28 27  1  0  0  0  0
 30 32  1  0  0  0  0
 30 31  1  0  0  0  0
 33 34  1  0  0  0  0
 35  4  2  0  0  0  0
 36 37  1  0  0  0  0
 36 43  1  0  0  0  0
 38 33  2  0  0  0  0
 38 39  1  0  0  0  0
 40 43  2  0  0  0  0
 40 30  1  0  0  0  0
 41 33  1  0  0  0  0
 42 41  1  0  0  0  0
 43 44  1  0  0  0  0
 45 36  2  0  0  0  0
 46 45  1  0  0  0  0
 47 35  1  0  0  0  0
 47 41  2  0  0  0  0
 48 47  1  0  0  0  0
 49 45  1  0  0  0  0
 49  5  2  0  0  0  0
 50 49  1  0  0  0  0
 51 13  1  0  0  0  0
 51  6  2  0  0  0  0
M  END
$$$$
