CSD_code = ZOJQEU | q = 0 | S = 0 | Stoichiometry = C18H14BrN4O3Re | MND = 6
 OpenBabel04212202133D

 41 44  0  0  1  0  0  0  0  0999 V2000
    3.2256    2.4728    1.9608 Re  0  0  0  0  0  0  0  0  0  0  0  0
    1.2274    3.2482    3.4103 Br  0  0  0  0  0  0  0  0  0  0  0  0
    1.2817    2.9664   -0.3961 O   0  0  0  0  0  1  0  0  0  0  0  0
    4.3156    2.4371    3.7921 N   0  0  0  0  0  0  0  0  0  0  0  0
    3.3432    5.3470    0.1807 N   0  0  0  0  0  0  0  0  0  0  0  0
    3.8432    4.5827    2.3177 N   0  0  0  0  0  0  0  0  0  0  0  0
    4.0865    4.3962   -0.4275 N   0  0  0  0  0  0  0  0  0  0  0  0
    4.5386    3.6261    4.3858 C   0  0  1  0  0  3  0  0  0  0  0  0
    2.4733    5.9355   -0.6968 C   0  0  0  0  0  0  0  0  0  0  0  0
    2.0489    2.7533    0.4274 C   0  0  0  0  0  2  0  0  0  0  0  0
    5.0902    3.7066    5.6643 C   0  0  0  0  0  0  0  0  0  0  0  0
    3.5811    5.6218    1.5215 C   0  0  1  0  0  3  0  0  0  0  0  0
    2.6949    5.3319   -1.9080 C   0  0  0  0  0  0  0  0  0  0  0  0
    4.1917    4.8136    3.5965 C   0  0  0  0  0  0  0  0  0  0  0  0
    1.4490    6.9393   -0.3118 C   0  0  0  0  0  0  0  0  0  0  0  0
    2.2940   -0.4690    2.1254 O   0  0  0  0  0  1  0  0  0  0  0  0
    3.8858    7.1713    3.3113 C   0  0  0  0  0  0  0  0  0  0  0  0
    5.1722    1.3300    5.7272 C   0  0  0  0  0  0  0  0  0  0  0  0
    5.7077    1.8277    0.2439 O   0  0  0  0  0  1  0  0  0  0  0  0
    3.7187    4.3826   -1.6893 C   0  0  0  0  0  0  0  0  0  0  0  0
    5.4040    2.5493    6.3483 C   0  0  0  0  0  0  0  0  0  0  0  0
    4.7861    2.0769    0.8749 C   0  0  0  0  0  2  0  0  0  0  0  0
    3.5935    6.9373    1.9813 C   0  0  0  0  0  0  0  0  0  0  0  0
    4.3272    3.4554   -2.6739 C   0  0  0  0  0  0  0  0  0  0  0  0
    4.2071    6.1015    4.1264 C   0  0  0  0  0  0  0  0  0  0  0  0
    4.6342    1.3265    4.4557 C   0  0  0  0  0  0  0  0  0  0  0  0
    2.6518    0.6160    2.0203 C   0  0  0  0  0  2  0  0  0  0  0  0
    5.2732    4.6650    6.1204 H   0  0  0  0  0  0  0  0  0  0  0  0
    2.1837    5.5275   -2.8280 H   0  0  0  0  0  0  0  0  0  0  0  0
    1.1190    6.7851    0.7140 H   0  0  0  0  0  0  0  0  0  0  0  0
    1.8275    7.9576   -0.4115 H   0  0  0  0  0  0  0  0  0  0  0  0
    0.5911    6.8385   -0.9723 H   0  0  0  0  0  0  0  0  0  0  0  0
    3.3965    7.7488    1.3027 H   0  0  0  0  0  0  0  0  0  0  0  0
    5.1349    2.9033   -2.2038 H   0  0  0  0  0  0  0  0  0  0  0  0
    3.5757    2.7514   -3.0284 H   0  0  0  0  0  0  0  0  0  0  0  0
    4.7091    4.0069   -3.5312 H   0  0  0  0  0  0  0  0  0  0  0  0
    4.4424    6.2681    5.1632 H   0  0  0  0  0  0  0  0  0  0  0  0
    4.4453    0.3909    3.9448 H   0  0  0  0  0  0  0  0  0  0  0  0
    3.8820    8.1762    3.7034 H   0  0  0  0  0  0  0  0  0  0  0  0
    5.8212    2.5960    7.3422 H   0  0  0  0  0  0  0  0  0  0  0  0
    5.4002    0.3980    6.2179 H   0  0  0  0  0  0  0  0  0  0  0  0
  1 27  1  0  0  0  0
  1  6  1  0  0  0  0
  1  2  1  0  0  0  0
  1  4  1  0  0  0  0
  3 10  1  0  0  0  0
  4  8  1  0  0  0  0
  4 26  1  0  0  0  0
  6 14  1  0  0  0  0
  7  5  1  0  0  0  0
  8 14  1  6  0  0  0
  8 11  1  0  0  0  0
  9 15  1  0  0  0  0
  9  5  1  0  0  0  0
 10  1  1  0  0  0  0
 11 28  1  0  0  0  0
 11 21  2  0  0  0  0
 12  5  1  6  0  0  0
 12 23  1  0  0  0  0
 12  6  1  0  0  0  0
 13 20  1  0  0  0  0
 13  9  2  0  0  0  0
 14 25  2  0  0  0  0
 15 30  1  0  0  0  0
 17 39  1  0  0  0  0
 17 25  1  0  0  0  0
 18 41  1  0  0  0  0
 18 21  1  0  0  0  0
 19 22  1  0  0  0  0
 20  7  2  0  0  0  0
 21 40  1  0  0  0  0
 22  1  1  0  0  0  0
 23 17  2  0  0  0  0
 24 34  1  0  0  0  0
 24 20  1  0  0  0  0
 25 37  1  0  0  0  0
 26 18  2  0  0  0  0
 27 16  1  0  0  0  0
 29 13  1  0  0  0  0
 31 15  1  0  0  0  0
 32 15  1  0  0  0  0
 33 23  1  0  0  0  0
 35 24  1  0  0  0  0
 36 24  1  0  0  0  0
 38 26  1  0  0  0  0
M  END
$$$$
