CSD_code = ZOJRIZ | q = 0 | S = 0 | Stoichiometry = C24H30Cl2O4Zr | MND = 6
 OpenBabel04212202133D

 61 64  0  0  0  0  0  0  0  0999 V2000
    3.9541    4.4689    1.0219 Zr  0  0  0  0  0  0  0  0  0  0  0  0
    1.6133    4.5903    0.9642 Cl  0  0  0  0  0  0  0  0  0  0  0  0
    4.2727    3.6854   -1.1532 Cl  0  0  0  0  0  0  0  0  0  0  0  0
    4.0777    6.4252    0.3906 O   0  0  0  0  0  0  0  0  0  0  0  0
    5.8868    4.6181    1.2430 O   0  0  0  0  0  0  0  0  0  0  0  0
    3.8395    5.3699    2.9360 O   0  0  0  0  0  0  0  0  0  0  0  0
    3.9271    2.8281    2.0356 O   0  0  0  0  0  0  0  0  0  0  0  0
    4.9684    7.2374    0.7166 C   0  0  0  0  0  3  0  0  0  0  0  0
    6.1730    6.9612    1.4084 C   0  0  0  0  0  0  0  0  0  0  0  0
    6.5692    5.6100    1.6948 C   0  0  0  0  0  0  0  0  0  0  0  0
    7.7624    5.3962    2.4600 C   0  0  0  0  0  0  0  0  0  0  0  0
    8.5052    6.4881    2.8303 C   0  0  0  0  0  0  0  0  0  0  0  0
    8.1566    7.8156    2.5020 C   0  0  0  0  0  0  0  0  0  0  0  0
    7.0021    8.0375    1.8078 C   0  0  0  0  0  0  0  0  0  0  0  0
    8.1248    3.9691    2.8508 C   0  0  0  0  0  0  0  0  0  0  0  0
    9.3978    3.9064    3.7018 C   0  0  0  0  0  0  0  0  0  0  0  0
    8.3513    3.1270    1.5863 C   0  0  0  0  0  0  0  0  0  0  0  0
    6.9692    3.3756    3.6756 C   0  0  0  0  0  0  0  0  0  0  0  0
    9.0536    8.9332    2.9390 C   0  0  0  0  0  0  0  0  0  0  0  0
    3.1428    4.8536    3.8385 C   0  0  0  0  0  3  0  0  0  0  0  0
    2.6296    3.5374    3.8849 C   0  0  0  0  0  0  0  0  0  0  0  0
    2.9815    2.5687    2.8842 C   0  0  0  0  0  0  0  0  0  0  0  0
    2.3021    1.3126    2.8776 C   0  0  0  0  0  0  0  0  0  0  0  0
    1.4067    1.0537    3.8869 C   0  0  0  0  0  0  0  0  0  0  0  0
    1.1174    1.9618    4.9261 C   0  0  0  0  0  0  0  0  0  0  0  0
    1.7154    3.1893    4.9091 C   0  0  0  0  0  0  0  0  0  0  0  0
    2.5492    0.3568    1.7178 C   0  0  0  0  0  0  0  0  0  0  0  0
    1.6922   -0.9092    1.8223 C   0  0  0  0  0  0  0  0  0  0  0  0
    2.1779    1.0818    0.4124 C   0  0  0  0  0  0  0  0  0  0  0  0
    4.0261   -0.0641    1.6842 C   0  0  0  0  0  0  0  0  0  0  0  0
    0.1383    1.5650    5.9881 C   0  0  0  0  0  0  0  0  0  0  0  0
    4.8047    8.2952    0.4434 H   0  0  0  0  0  0  0  0  0  0  0  0
    9.4087    6.3532    3.4038 H   0  0  0  0  0  0  0  0  0  0  0  0
    6.6917    9.0431    1.5622 H   0  0  0  0  0  0  0  0  0  0  0  0
   10.2549    4.2928    3.1557 H   0  0  0  0  0  0  0  0  0  0  0  0
    9.6055    2.8699    3.9576 H   0  0  0  0  0  0  0  0  0  0  0  0
    9.2811    4.4631    4.6289 H   0  0  0  0  0  0  0  0  0  0  0  0
    9.1518    3.5566    0.9874 H   0  0  0  0  0  0  0  0  0  0  0  0
    7.4482    3.0799    0.9805 H   0  0  0  0  0  0  0  0  0  0  0  0
    8.6330    2.1139    1.8649 H   0  0  0  0  0  0  0  0  0  0  0  0
    6.0584    3.2943    3.0782 H   0  0  0  0  0  0  0  0  0  0  0  0
    6.7662    4.0011    4.5442 H   0  0  0  0  0  0  0  0  0  0  0  0
    7.2395    2.3803    4.0226 H   0  0  0  0  0  0  0  0  0  0  0  0
   10.0494    8.8060    2.5166 H   0  0  0  0  0  0  0  0  0  0  0  0
    9.1513    8.9403    4.0239 H   0  0  0  0  0  0  0  0  0  0  0  0
    8.6606    9.8942    2.6190 H   0  0  0  0  0  0  0  0  0  0  0  0
    2.8809    5.4999    4.6945 H   0  0  0  0  0  0  0  0  0  0  0  0
    0.8777    0.1140    3.9037 H   0  0  0  0  0  0  0  0  0  0  0  0
    1.4790    3.9293    5.6600 H   0  0  0  0  0  0  0  0  0  0  0  0
    1.9216   -1.4695    2.7261 H   0  0  0  0  0  0  0  0  0  0  0  0
    1.9011   -1.5513    0.9699 H   0  0  0  0  0  0  0  0  0  0  0  0
    0.6326   -0.6667    1.8062 H   0  0  0  0  0  0  0  0  0  0  0  0
    1.1780    1.5076    0.4863 H   0  0  0  0  0  0  0  0  0  0  0  0
    2.1967    0.3785   -0.4172 H   0  0  0  0  0  0  0  0  0  0  0  0
    2.8820    1.8893    0.1867 H   0  0  0  0  0  0  0  0  0  0  0  0
    4.3047   -0.5431    2.6213 H   0  0  0  0  0  0  0  0  0  0  0  0
    4.6725    0.7964    1.5206 H   0  0  0  0  0  0  0  0  0  0  0  0
    4.1853   -0.7700    0.8724 H   0  0  0  0  0  0  0  0  0  0  0  0
    0.0396    2.3458    6.7367 H   0  0  0  0  0  0  0  0  0  0  0  0
    0.4609    0.6479    6.4784 H   0  0  0  0  0  0  0  0  0  0  0  0
   -0.8403    1.3808    5.5474 H   0  0  0  0  0  0  0  0  0  0  0  0
  1  5  1  0  0  0  0
  1  7  1  0  0  0  0
  1  6  1  0  0  0  0
  2  1  1  0  0  0  0
  3  1  1  0  0  0  0
  4  8  1  0  0  0  0
  4  1  1  0  0  0  0
  5 10  1  0  0  0  0
  6 20  1  0  0  0  0
  7 22  1  0  0  0  0
  8  9  1  0  0  0  0
  9 10  2  0  0  0  0
  9 14  1  0  0  0  0
 10 11  1  0  0  0  0
 11 12  2  0  0  0  0
 11 15  1  0  0  0  0
 12 33  1  0  0  0  0
 13 12  1  0  0  0  0
 13 19  1  0  0  0  0
 14 13  2  0  0  0  0
 15 18  1  0  0  0  0
 15 16  1  0  0  0  0
 16 36  1  0  0  0  0
 16 37  1  0  0  0  0
 17 40  1  0  0  0  0
 17 15  1  0  0  0  0
 18 43  1  0  0  0  0
 18 42  1  0  0  0  0
 19 45  1  0  0  0  0
 20 21  1  0  0  0  0
 20 47  1  0  0  0  0
 21 26  1  0  0  0  0
 22 21  2  0  0  0  0
 23 22  1  0  0  0  0
 23 24  2  0  0  0  0
 24 48  1  0  0  0  0
 24 25  1  0  0  0  0
 25 31  1  0  0  0  0
 26 25  2  0  0  0  0
 26 49  1  0  0  0  0
 27 28  1  0  0  0  0
 27 23  1  0  0  0  0
 28 50  1  0  0  0  0
 29 53  1  0  0  0  0
 29 27  1  0  0  0  0
 30 27  1  0  0  0  0
 30 56  1  0  0  0  0
 31 60  1  0  0  0  0
 31 59  1  0  0  0  0
 32  8  1  0  0  0  0
 34 14  1  0  0  0  0
 35 16  1  0  0  0  0
 38 17  1  0  0  0  0
 39 17  1  0  0  0  0
 41 18  1  0  0  0  0
 44 19  1  0  0  0  0
 46 19  1  0  0  0  0
 51 28  1  0  0  0  0
 52 28  1  0  0  0  0
 54 29  1  0  0  0  0
 55 29  1  0  0  0  0
 57 30  1  0  0  0  0
 58 30  1  0  0  0  0
 61 31  1  0  0  0  0
M  END
$$$$
