CSD_code = ZOJXIH | q = 0 | S = 0 | Stoichiometry = C8H11Cl2N5SZn | MND = 5
 OpenBabel04212202133D

 28 30  0  0  1  0  0  0  0  0999 V2000
    6.7333   -0.9426    8.2266 Zn  0  0  0  0  0  0  0  0  0  0  0  0
    6.6132    1.0907    9.8547 S   0  0  0  0  0  0  0  0  0  0  0  0
    7.3899   -2.7668    9.2822 Cl  0  0  0  0  0  0  0  0  0  0  0  0
    4.6343   -0.9406    7.2390 Cl  0  0  0  0  0  0  0  0  0  0  0  0
    4.6931    2.7666    9.2052 N   0  0  0  0  0  0  0  0  0  0  0  0
    4.0344    3.1287    8.5309 H   0  0  0  0  0  0  0  0  0  0  0  0
    6.7848    1.0234    6.9634 N   0  0  2  0  0  0  0  0  0  0  0  0
    5.8624    1.8863    7.4361 N   0  0  0  0  0  0  0  0  0  0  0  0
    5.0948    2.1780    6.8322 H   0  0  0  0  0  0  0  0  0  0  0  0
    8.1130   -1.1935    6.5104 N   0  0  0  0  0  0  0  0  0  0  0  0
    6.1400    1.1409    4.6808 N   0  0  0  0  0  0  0  0  0  0  0  0
    5.2265    1.5101    4.9023 H   0  0  0  0  0  0  0  0  0  0  0  0
    6.1246    0.5462    3.8668 H   0  0  0  0  0  0  0  0  0  0  0  0
    5.6535    1.9341    8.7801 C   0  0  1  0  0  3  0  0  0  0  0  0
    7.8900   -0.3673    5.4887 C   0  0  1  0  0  3  0  0  0  0  0  0
    9.7034   -2.3800    5.2099 C   0  0  0  0  0  0  0  0  0  0  0  0
   10.4092   -3.1917    5.1403 H   0  0  0  0  0  0  0  0  0  0  0  0
    8.9926   -2.1704    6.3832 C   0  0  0  0  0  0  0  0  0  0  0  0
    9.1107   -2.8038    7.2518 H   0  0  0  0  0  0  0  0  0  0  0  0
    8.5574   -0.5043    4.2754 C   0  0  0  0  0  0  0  0  0  0  0  0
    8.3769    0.1899    3.4693 H   0  0  0  0  0  0  0  0  0  0  0  0
    6.8689    0.6630    5.7388 C   0  0  1  0  0  3  0  0  0  0  0  0
    4.3216    2.8636   10.5965 C   0  0  0  0  0  0  0  0  0  0  0  0
    3.6935    3.7396   10.7342 H   0  0  0  0  0  0  0  0  0  0  0  0
    5.2243    2.9573   11.1977 H   0  0  0  0  0  0  0  0  0  0  0  0
    3.7844    1.9704   10.9250 H   0  0  0  0  0  0  0  0  0  0  0  0
    9.4808   -1.5286    4.1395 C   0  0  0  0  0  0  0  0  0  0  0  0
   10.0168   -1.6572    3.2109 H   0  0  0  0  0  0  0  0  0  0  0  0
  1  3  1  0  0  0  0
  1  2  1  0  0  0  0
  4  1  1  0  0  0  0
  5 23  1  0  0  0  0
  6  5  1  0  0  0  0
  7  8  1  6  0  0  0
  7  1  1  0  0  0  0
  8 14  1  0  0  0  0
  9  8  1  0  0  0  0
 10  1  1  0  0  0  0
 11 12  1  0  0  0  0
 13 11  1  0  0  0  0
 14  5  1  1  0  0  0
 14  2  1  0  0  0  0
 15 20  1  6  0  0  0
 15 22  1  0  0  0  0
 15 10  1  0  0  0  0
 16 18  2  0  0  0  0
 17 16  1  0  0  0  0
 18 10  1  0  0  0  0
 18 19  1  0  0  0  0
 21 20  1  0  0  0  0
 22 11  1  6  0  0  0
 22  7  1  0  0  0  0
 23 24  1  0  0  0  0
 23 26  1  0  0  0  0
 23 25  1  0  0  0  0
 27 20  2  0  0  0  0
 27 16  1  0  0  0  0
 28 27  1  0  0  0  0
M  END
$$$$
