CSD_code = ZOKLIU | q = 0 | S = 0 | Stoichiometry = C15H15Br3N3Re | MND = 6
 OpenBabel04212202133D

 37 39  0  0  0  0  0  0  0  0999 V2000
    8.9922    1.1636   11.6157 Re  0  0  0  0  0  0  0  0  0  0  0  0
   10.1466   -0.2077   13.3309 Br  0  0  0  0  0  0  0  0  0  0  0  0
    8.3013   -0.8909   10.3118 Br  0  0  0  0  0  0  0  0  0  0  0  0
    9.6036    3.3145   12.7971 Br  0  0  0  0  0  0  0  0  0  0  0  0
   10.8011    1.2843   10.4821 N   0  0  0  0  0  0  0  0  0  0  0  0
    7.1754    1.0564   12.7361 N   0  0  0  0  0  0  0  0  0  0  0  0
    7.9947    2.3471   10.1374 N   0  0  0  0  0  0  0  0  0  0  0  0
    7.1719    1.2341   14.0612 C   0  0  0  0  0  3  0  0  0  0  0  0
    8.1222    1.4357   14.5355 H   0  0  0  0  0  0  0  0  0  0  0  0
    6.5089    4.1306    9.5634 C   0  0  0  0  0  0  0  0  0  0  0  0
    5.8652    4.9228    9.9100 H   0  0  0  0  0  0  0  0  0  0  0  0
    6.6786    3.8795    8.2102 C   0  0  0  0  0  0  0  0  0  0  0  0
    6.1693    4.4710    7.4658 H   0  0  0  0  0  0  0  0  0  0  0  0
    7.5252    2.8434    7.8459 C   0  0  0  0  0  0  0  0  0  0  0  0
    7.6985    2.5991    6.8103 H   0  0  0  0  0  0  0  0  0  0  0  0
    7.1794    3.3506   10.4838 C   0  0  0  0  0  3  0  0  0  0  0  0
    7.0638    3.5460   11.5413 H   0  0  0  0  0  0  0  0  0  0  0  0
    6.0023    0.8046   12.1459 C   0  0  0  0  0  0  0  0  0  0  0  0
    6.0125    0.6478   11.0756 H   0  0  0  0  0  0  0  0  0  0  0  0
   11.2196    2.4382    9.9519 C   0  0  0  0  0  3  0  0  0  0  0  0
   10.6002    3.3095   10.1163 H   0  0  0  0  0  0  0  0  0  0  0  0
   11.5683    0.2059   10.2925 C   0  0  0  0  0  0  0  0  0  0  0  0
   11.2258   -0.7259   10.7207 H   0  0  0  0  0  0  0  0  0  0  0  0
   12.3930    2.5583    9.2344 C   0  0  0  0  0  0  0  0  0  0  0  0
   12.6759    3.5207    8.8388 H   0  0  0  0  0  0  0  0  0  0  0  0
    8.1555    2.1091    8.8301 C   0  0  0  0  0  0  0  0  0  0  0  0
    8.8085    1.2912    8.5573 H   0  0  0  0  0  0  0  0  0  0  0  0
    4.8105    0.7231   12.8380 C   0  0  0  0  0  0  0  0  0  0  0  0
    3.8995    0.5129   12.3011 H   0  0  0  0  0  0  0  0  0  0  0  0
   12.7565    0.2395    9.5889 C   0  0  0  0  0  0  0  0  0  0  0  0
   13.3308   -0.6658    9.4780 H   0  0  0  0  0  0  0  0  0  0  0  0
    6.0251    1.1680   14.8284 C   0  0  0  0  0  0  0  0  0  0  0  0
    6.0926    1.3171   15.8937 H   0  0  0  0  0  0  0  0  0  0  0  0
   13.1880    1.4386    9.0457 C   0  0  0  0  0  0  0  0  0  0  0  0
   14.1140    1.5006    8.4956 H   0  0  0  0  0  0  0  0  0  0  0  0
    4.8122    0.9070   14.2120 C   0  0  0  0  0  0  0  0  0  0  0  0
    3.8984    0.8456   14.7822 H   0  0  0  0  0  0  0  0  0  0  0  0
  1  6  1  0  0  0  0
  1  4  1  0  0  0  0
  1  2  1  0  0  0  0
  3  1  1  0  0  0  0
  5  1  1  0  0  0  0
  6  8  1  0  0  0  0
  7 16  1  0  0  0  0
  7  1  1  0  0  0  0
  8  9  1  0  0  0  0
  8 32  1  0  0  0  0
 10 11  1  0  0  0  0
 10 16  1  0  0  0  0
 12 10  2  0  0  0  0
 13 12  1  0  0  0  0
 14 12  1  0  0  0  0
 14 26  2  0  0  0  0
 15 14  1  0  0  0  0
 16 17  1  0  0  0  0
 18  6  1  0  0  0  0
 18 28  2  0  0  0  0
 19 18  1  0  0  0  0
 20 21  1  0  0  0  0
 20  5  1  0  0  0  0
 22  5  1  0  0  0  0
 22 23  1  0  0  0  0
 24 20  1  0  0  0  0
 25 24  1  0  0  0  0
 26  7  1  0  0  0  0
 27 26  1  0  0  0  0
 28 36  1  0  0  0  0
 29 28  1  0  0  0  0
 30 22  2  0  0  0  0
 31 30  1  0  0  0  0
 32 33  1  0  0  0  0
 34 24  2  0  0  0  0
 34 30  1  0  0  0  0
 35 34  1  0  0  0  0
 36 37  1  0  0  0  0
 36 32  2  0  0  0  0
M  END
$$$$
