CSD_code = ZOLHOZ | q = 0 | S = 0 | Stoichiometry = C31H27Cl2NP2PdS2 | MND = 4
 OpenBabel04212202133D

 66 71  0  0  0  0  0  0  0  0999 V2000
   -3.4959    4.5303   16.3636 C   0  0  0  0  0  0  0  0  0  0  0  0
   -3.4109    5.6993   15.6212 C   0  0  0  0  0  0  0  0  0  0  0  0
   -2.4714    5.9565   15.1500 H   0  0  0  0  0  0  0  0  0  0  0  0
   -4.5269    6.5050   15.4828 C   0  0  0  0  0  0  0  0  0  0  0  0
   -4.4668    7.4151   14.9051 H   0  0  0  0  0  0  0  0  0  0  0  0
   -5.7198    6.1417   16.0864 C   0  0  0  0  0  0  0  0  0  0  0  0
   -6.5894    6.7731   15.9824 H   0  0  0  0  0  0  0  0  0  0  0  0
   -5.8057    4.9667   16.8173 C   0  0  0  0  0  0  0  0  0  0  0  0
   -6.7402    4.6835   17.2780 H   0  0  0  0  0  0  0  0  0  0  0  0
   -4.6953    4.1557   16.9566 C   0  0  0  0  0  0  0  0  0  0  0  0
   -4.7488    3.2338   17.5198 H   0  0  0  0  0  0  0  0  0  0  0  0
   -2.5378    1.7958   16.6953 C   0  0  0  0  0  0  0  0  0  0  0  0
   -3.1818    1.3210   15.5583 C   0  0  0  0  0  0  0  0  0  0  0  0
   -3.4555    2.0176   14.7750 H   0  0  0  0  0  0  0  0  0  0  0  0
   -3.4325   -0.0337   15.4299 C   0  0  0  0  0  0  0  0  0  0  0  0
   -3.9166   -0.4071   14.5405 H   0  0  0  0  0  0  0  0  0  0  0  0
   -3.0302   -0.9085   16.4251 C   0  0  0  0  0  0  0  0  0  0  0  0
   -3.1965   -1.9684   16.3078 H   0  0  0  0  0  0  0  0  0  0  0  0
   -2.3994   -0.4344   17.5667 C   0  0  0  0  0  0  0  0  0  0  0  0
   -2.0817   -1.1194   18.3381 H   0  0  0  0  0  0  0  0  0  0  0  0
   -2.1457    0.9188   17.7094 C   0  0  0  0  0  0  0  0  0  0  0  0
   -1.6686    1.2930   18.6158 H   0  0  0  0  0  0  0  0  0  0  0  0
   -0.0003    3.3315   20.3255 C   0  0  0  0  0  0  0  0  0  0  0  0
   -0.2425    4.4055   21.1788 C   0  0  0  0  0  0  0  0  0  0  0  0
   -0.2841    5.4111   20.7835 H   0  0  0  0  0  0  0  0  0  0  0  0
   -0.4244    4.1796   22.5294 C   0  0  0  0  0  0  0  0  0  0  0  0
   -0.6172    5.0117   23.1906 H   0  0  0  0  0  0  0  0  0  0  0  0
   -0.3555    2.8897   23.0342 C   0  0  0  0  0  0  0  0  0  0  0  0
   -0.4953    2.7185   24.0915 H   0  0  0  0  0  0  0  0  0  0  0  0
   -0.0950    1.8245   22.1885 C   0  0  0  0  0  0  0  0  0  0  0  0
   -0.0245    0.8226   22.5844 H   0  0  0  0  0  0  0  0  0  0  0  0
    0.0803    2.0393   20.8314 C   0  0  0  0  0  0  0  0  0  0  0  0
    0.3133    1.2208   20.1611 H   0  0  0  0  0  0  0  0  0  0  0  0
    1.0575    5.1766   18.4594 C   0  0  0  0  0  0  0  0  0  0  0  0
    0.6880    6.2415   17.6463 C   0  0  0  0  0  0  0  0  0  0  0  0
   -0.2340    6.1934   17.0816 H   0  0  0  0  0  0  0  0  0  0  0  0
    1.5082    7.3511   17.5499 C   0  0  0  0  0  0  0  0  0  0  0  0
    1.2176    8.1805   16.9220 H   0  0  0  0  0  0  0  0  0  0  0  0
    2.7052    7.3936   18.2456 C   0  0  0  0  0  0  0  0  0  0  0  0
    3.3459    8.2589   18.1628 H   0  0  0  0  0  0  0  0  0  0  0  0
    3.0903    6.3212   19.0360 C   0  0  0  0  0  0  0  0  0  0  0  0
    4.0315    6.3487   19.5648 H   0  0  0  0  0  0  0  0  0  0  0  0
    2.2735    5.2120   19.1401 C   0  0  0  0  0  0  0  0  0  0  0  0
    2.5663    4.3611   19.7425 H   0  0  0  0  0  0  0  0  0  0  0  0
   -2.4426    4.6318   19.1012 C   0  0  0  0  0  0  0  0  0  0  0  0
   -2.6535    6.0061   19.1453 C   0  0  0  0  0  0  0  0  0  0  0  0
   -2.1016    6.6531   18.4810 H   0  0  0  0  0  0  0  0  0  0  0  0
   -3.5657    6.5363   20.0304 C   0  0  0  0  0  0  0  0  0  0  0  0
   -3.7361    7.6012   20.0673 H   0  0  0  0  0  0  0  0  0  0  0  0
   -4.2813    5.7055   20.8917 C   0  0  0  0  0  0  0  0  0  0  0  0
   -4.0709    4.3338   20.8489 C   0  0  0  0  0  0  0  0  0  0  0  0
   -4.6087    3.6641   21.4997 H   0  0  0  0  0  0  0  0  0  0  0  0
   -3.1580    3.8056   19.9560 C   0  0  0  0  0  0  0  0  0  0  0  0
   -2.9981    2.7378   19.9238 H   0  0  0  0  0  0  0  0  0  0  0  0
   -6.1095    5.1435   22.9649 C   0  0  0  0  0  0  0  0  0  0  0  0
   -6.6527    4.4543   22.3251 H   0  0  0  0  0  0  0  0  0  0  0  0
   -6.7947    5.6137   23.6633 H   0  0  0  0  0  0  0  0  0  0  0  0
   -5.3167    4.6393   23.5096 H   0  0  0  0  0  0  0  0  0  0  0  0
   -1.5136    4.0775   18.1779 N   0  0  0  0  0  0  0  0  0  0  0  0
   -2.0008    3.5438   16.6364 P   0  0  0  0  0  4  0  0  0  0  0  0
    0.1213    3.6230   18.5355 P   0  0  0  0  0  4  0  0  0  0  0  0
   -0.6106    3.9042   15.2886 S   0  0  0  0  0  0  0  0  0  0  0  0
   -5.4179    6.5001   21.9766 S   0  0  0  0  0  0  0  0  0  0  0  0
    0.2745    0.7248   15.0707 Cl  0  0  0  0  0  0  0  0  0  0  0  0
    1.3524    0.6055   18.0148 Cl  0  0  0  0  0  0  0  0  0  0  0  0
    0.3047    2.1684   16.7983 Pd  0  0  0  0  0  0  0  0  0  0  0  0
  1 60  1  0  0  0  0
  1 10  1  0  0  0  0
  2  1  2  0  0  0  0
  3  2  1  0  0  0  0
  4  2  1  0  0  0  0
  4  6  2  0  0  0  0
  5  4  1  0  0  0  0
  6  8  1  0  0  0  0
  7  6  1  0  0  0  0
  8 10  2  0  0  0  0
  8  9  1  0  0  0  0
 10 11  1  0  0  0  0
 12 21  1  0  0  0  0
 13 12  2  0  0  0  0
 14 13  1  0  0  0  0
 15 13  1  0  0  0  0
 15 17  2  0  0  0  0
 16 15  1  0  0  0  0
 17 19  1  0  0  0  0
 18 17  1  0  0  0  0
 19 21  2  0  0  0  0
 19 20  1  0  0  0  0
 21 22  1  0  0  0  0
 23 32  2  0  0  0  0
 23 24  1  0  0  0  0
 24 26  2  0  0  0  0
 25 24  1  0  0  0  0
 26 28  1  0  0  0  0
 26 27  1  0  0  0  0
 28 29  1  0  0  0  0
 30 31  1  0  0  0  0
 30 28  2  0  0  0  0
 32 30  1  0  0  0  0
 33 32  1  0  0  0  0
 34 61  1  0  0  0  0
 34 43  1  0  0  0  0
 35 34  2  0  0  0  0
 36 35  1  0  0  0  0
 37 35  1  0  0  0  0
 37 39  2  0  0  0  0
 38 37  1  0  0  0  0
 39 41  1  0  0  0  0
 40 39  1  0  0  0  0
 41 43  2  0  0  0  0
 41 42  1  0  0  0  0
 43 44  1  0  0  0  0
 45 46  2  0  0  0  0
 45 53  1  0  0  0  0
 46 48  1  0  0  0  0
 47 46  1  0  0  0  0
 48 49  1  0  0  0  0
 48 50  2  0  0  0  0
 50 63  1  0  0  0  0
 51 50  1  0  0  0  0
 51 52  1  0  0  0  0
 53 51  2  0  0  0  0
 54 53  1  0  0  0  0
 55 58  1  0  0  0  0
 55 57  1  0  0  0  0
 56 55  1  0  0  0  0
 59 61  1  0  0  0  0
 59 45  1  0  0  0  0
 60 12  1  0  0  0  0
 60 59  1  0  0  0  0
 61 23  1  0  0  0  0
 62 60  1  0  0  0  0
 62 66  1  0  0  0  0
 63 55  1  0  0  0  0
 64 66  1  0  0  0  0
 66 65  1  0  0  0  0
 66 61  1  0  0  0  0
M  END
$$$$
