CSD_code = ZOLVOO | q = 0 | S = 0 | Stoichiometry = C20H24AuBrN2 | MND = 2
 OpenBabel04212202133D

 48 50  0  0  0  0  0  0  0  0999 V2000
   11.1234    3.6832    7.2411 Au  0  0  0  0  0  0  0  0  0  0  0  0
   12.8647    2.0646    7.2435 Br  0  0  0  0  0  0  0  0  0  0  0  0
    9.1991    5.6511    6.0701 N   0  0  0  0  0  0  0  0  0  0  0  0
    8.9777    5.4289    8.4024 N   0  0  0  0  0  0  0  0  0  0  0  0
    9.5564    5.1300    7.2403 C   0  0  0  0  0  3  0  0  0  0  0  0
    8.1678    6.6380    5.7597 C   0  0  0  0  0  0  0  0  0  0  0  0
    7.2315    6.3872    6.2494 H   0  0  0  0  0  0  0  0  0  0  0  0
    7.9692    6.5695    4.6873 H   0  0  0  0  0  0  0  0  0  0  0  0
    8.6051    8.0700    6.0924 C   0  0  0  0  0  0  0  0  0  0  0  0
    9.3307    8.4018    5.3460 H   0  0  0  0  0  0  0  0  0  0  0  0
    7.7320    8.7208    6.0170 H   0  0  0  0  0  0  0  0  0  0  0  0
    9.2430    8.2154    7.4710 C   0  0  0  0  0  0  0  0  0  0  0  0
   10.1502    7.6097    7.5233 H   0  0  0  0  0  0  0  0  0  0  0  0
    9.5490    9.2559    7.5976 H   0  0  0  0  0  0  0  0  0  0  0  0
    8.3236    7.8502    8.6320 C   0  0  0  0  0  0  0  0  0  0  0  0
    7.4182    8.4593    8.5899 H   0  0  0  0  0  0  0  0  0  0  0  0
    8.8467    8.0942    9.5589 H   0  0  0  0  0  0  0  0  0  0  0  0
    7.8999    6.3736    8.6854 C   0  0  0  0  0  0  0  0  0  0  0  0
    7.5506    6.1690    9.6998 H   0  0  0  0  0  0  0  0  0  0  0  0
    7.0517    6.1785    8.0325 H   0  0  0  0  0  0  0  0  0  0  0  0
    9.9270    5.2795    4.8658 C   0  0  0  0  0  0  0  0  0  0  0  0
   10.8194    4.7138    5.1562 H   0  0  0  0  0  0  0  0  0  0  0  0
   10.2536    6.1902    4.3539 H   0  0  0  0  0  0  0  0  0  0  0  0
    9.0852    4.4329    3.9461 C   0  0  0  0  0  0  0  0  0  0  0  0
    8.9207    4.7715    2.6103 C   0  0  0  0  0  0  0  0  0  0  0  0
    9.4028    5.6563    2.2176 H   0  0  0  0  0  0  0  0  0  0  0  0
    8.1526    3.9776    1.7758 C   0  0  0  0  0  0  0  0  0  0  0  0
    8.0350    4.2483    0.7369 H   0  0  0  0  0  0  0  0  0  0  0  0
    7.5374    2.8417    2.2716 C   0  0  0  0  0  0  0  0  0  0  0  0
    6.9388    2.2223    1.6208 H   0  0  0  0  0  0  0  0  0  0  0  0
    7.6957    2.4985    3.6043 C   0  0  0  0  0  0  0  0  0  0  0  0
    7.2232    1.6095    3.9945 H   0  0  0  0  0  0  0  0  0  0  0  0
    8.4654    3.2897    4.4363 C   0  0  0  0  0  0  0  0  0  0  0  0
    8.5977    3.0187    5.4744 H   0  0  0  0  0  0  0  0  0  0  0  0
    9.5277    4.8712    9.6330 C   0  0  0  0  0  0  0  0  0  0  0  0
   10.2294    4.0742    9.3673 H   0  0  0  0  0  0  0  0  0  0  0  0
    8.7144    4.4293   10.2173 H   0  0  0  0  0  0  0  0  0  0  0  0
   10.2463    5.9224   10.4371 C   0  0  0  0  0  0  0  0  0  0  0  0
   11.4116    6.4913    9.9366 C   0  0  0  0  0  0  0  0  0  0  0  0
   11.8075    6.1432    8.9925 H   0  0  0  0  0  0  0  0  0  0  0  0
   12.0676    7.4824   10.6421 C   0  0  0  0  0  0  0  0  0  0  0  0
   12.9732    7.9157   10.2448 H   0  0  0  0  0  0  0  0  0  0  0  0
   11.5673    7.9132   11.8601 C   0  0  0  0  0  0  0  0  0  0  0  0
   12.0794    8.6867   12.4123 H   0  0  0  0  0  0  0  0  0  0  0  0
   10.4146    7.3432   12.3715 C   0  0  0  0  0  0  0  0  0  0  0  0
   10.0255    7.6692   13.3247 H   0  0  0  0  0  0  0  0  0  0  0  0
    9.7558    6.3536   11.6619 C   0  0  0  0  0  0  0  0  0  0  0  0
    8.8577    5.9092   12.0685 H   0  0  0  0  0  0  0  0  0  0  0  0
  1  2  1  0  0  0  0
  3  5  1  0  0  0  0
  4 18  1  0  0  0  0
  4 35  1  0  0  0  0
  5  1  1  0  0  0  0
  5  4  1  0  0  0  0
  6  3  1  0  0  0  0
  6  9  1  0  0  0  0
  6  7  1  0  0  0  0
  8  6  1  0  0  0  0
  9 12  1  0  0  0  0
 10  9  1  0  0  0  0
 11  9  1  0  0  0  0
 12 13  1  0  0  0  0
 12 14  1  0  0  0  0
 12 15  1  0  0  0  0
 15 18  1  0  0  0  0
 15 17  1  0  0  0  0
 16 15  1  0  0  0  0
 18 19  1  0  0  0  0
 20 18  1  0  0  0  0
 21 22  1  0  0  0  0
 21  3  1  0  0  0  0
 23 21  1  0  0  0  0
 24 33  1  0  0  0  0
 24 21  1  0  0  0  0
 25 24  2  0  0  0  0
 26 25  1  0  0  0  0
 27 29  2  0  0  0  0
 27 25  1  0  0  0  0
 28 27  1  0  0  0  0
 29 31  1  0  0  0  0
 30 29  1  0  0  0  0
 31 32  1  0  0  0  0
 31 33  2  0  0  0  0
 33 34  1  0  0  0  0
 35 37  1  0  0  0  0
 35 38  1  0  0  0  0
 36 35  1  0  0  0  0
 38 47  1  0  0  0  0
 39 38  2  0  0  0  0
 39 41  1  0  0  0  0
 40 39  1  0  0  0  0
 41 43  2  0  0  0  0
 42 41  1  0  0  0  0
 43 45  1  0  0  0  0
 43 44  1  0  0  0  0
 45 46  1  0  0  0  0
 47 48  1  0  0  0  0
 47 45  2  0  0  0  0
M  END
$$$$
