CSD_code = ZOLWOP | q = 0 | S = 0 | Stoichiometry = C23H30AuBrN2 | MND = 2
 OpenBabel04212202133D

 57 59  0  0  0  0  0  0  0  0999 V2000
    5.3316    5.7222    3.7253 Au  0  0  0  0  0  0  0  0  0  0  0  0
    6.1740    3.5153    3.6844 Br  0  0  0  0  0  0  0  0  0  0  0  0
    4.7404    8.4121    2.6860 N   0  0  0  0  0  0  0  0  0  0  0  0
    4.0119    8.0987    4.8639 N   0  0  0  0  0  0  0  0  0  0  0  0
    5.5074    7.8631    1.6064 C   0  0  0  0  0  0  0  0  0  0  0  0
    6.8879    8.0639    1.5921 C   0  0  0  0  0  0  0  0  0  0  0  0
    7.6273    7.5331    0.5477 C   0  0  0  0  0  0  0  0  0  0  0  0
    8.6982    7.6743    0.5364 H   0  0  0  0  0  0  0  0  0  0  0  0
    7.0239    6.8137   -0.4741 C   0  0  0  0  0  0  0  0  0  0  0  0
    5.6488    6.6344   -0.4391 C   0  0  0  0  0  0  0  0  0  0  0  0
    5.1683    6.0685   -1.2240 H   0  0  0  0  0  0  0  0  0  0  0  0
    4.8742    7.1500    0.5884 C   0  0  0  0  0  0  0  0  0  0  0  0
    7.5580    8.8119    2.7053 C   0  0  0  0  0  0  0  0  0  0  0  0
    8.6297    8.8661    2.5378 H   0  0  0  0  0  0  0  0  0  0  0  0
    7.3840    8.3043    3.6544 H   0  0  0  0  0  0  0  0  0  0  0  0
    7.1686    9.8263    2.7866 H   0  0  0  0  0  0  0  0  0  0  0  0
    7.8441    6.2090   -1.5700 C   0  0  0  0  0  0  0  0  0  0  0  0
    7.2745    6.1459   -2.4942 H   0  0  0  0  0  0  0  0  0  0  0  0
    8.1396    5.1986   -1.2864 H   0  0  0  0  0  0  0  0  0  0  0  0
    8.7477    6.7877   -1.7463 H   0  0  0  0  0  0  0  0  0  0  0  0
    3.3926    6.9248    0.6096 C   0  0  0  0  0  0  0  0  0  0  0  0
    2.8583    7.8305    0.3203 H   0  0  0  0  0  0  0  0  0  0  0  0
    3.0642    6.6383    1.6078 H   0  0  0  0  0  0  0  0  0  0  0  0
    3.1208    6.1331   -0.0831 H   0  0  0  0  0  0  0  0  0  0  0  0
    4.5976    7.6471    3.7602 C   0  0  0  0  0  3  0  0  0  0  0  0
    4.1301    9.7107    2.4027 C   0  0  0  0  0  0  0  0  0  0  0  0
    4.1597    9.8295    1.3163 H   0  0  0  0  0  0  0  0  0  0  0  0
    4.7144   10.5307    2.8333 H   0  0  0  0  0  0  0  0  0  0  0  0
    2.6823    9.7631    2.8842 C   0  0  0  0  0  0  0  0  0  0  0  0
    2.2230    8.7920    2.6888 H   0  0  0  0  0  0  0  0  0  0  0  0
    2.1330   10.5072    2.3049 H   0  0  0  0  0  0  0  0  0  0  0  0
    2.5721   10.0980    4.3734 C   0  0  0  0  0  0  0  0  0  0  0  0
    2.6022   11.1802    4.5166 H   0  0  0  0  0  0  0  0  0  0  0  0
    1.6120    9.7449    4.7543 H   0  0  0  0  0  0  0  0  0  0  0  0
    3.7165    9.4905    5.1843 C   0  0  0  0  0  0  0  0  0  0  0  0
    4.6274   10.0811    5.0385 H   0  0  0  0  0  0  0  0  0  0  0  0
    3.4645    9.5312    6.2461 H   0  0  0  0  0  0  0  0  0  0  0  0
    3.8595    7.1670    5.9409 C   0  0  0  0  0  0  0  0  0  0  0  0
    4.8184    7.1165    6.9534 C   0  0  0  0  0  0  0  0  0  0  0  0
    4.6480    6.2062    7.9850 C   0  0  0  0  0  0  0  0  0  0  0  0
    5.3937    6.1532    8.7649 H   0  0  0  0  0  0  0  0  0  0  0  0
    3.5555    5.3528    8.0279 C   0  0  0  0  0  0  0  0  0  0  0  0
    2.6161    5.4246    7.0092 C   0  0  0  0  0  0  0  0  0  0  0  0
    1.7658    4.7583    7.0248 H   0  0  0  0  0  0  0  0  0  0  0  0
    2.7499    6.3212    5.9613 C   0  0  0  0  0  0  0  0  0  0  0  0
    6.0232    8.0086    6.9242 C   0  0  0  0  0  0  0  0  0  0  0  0
    6.4026    8.1120    5.9090 H   0  0  0  0  0  0  0  0  0  0  0  0
    6.8122    7.5963    7.5470 H   0  0  0  0  0  0  0  0  0  0  0  0
    5.7795    9.0030    7.2997 H   0  0  0  0  0  0  0  0  0  0  0  0
    3.4143    4.3461    9.1262 C   0  0  0  0  0  0  0  0  0  0  0  0
    3.8929    3.4133    8.8273 H   0  0  0  0  0  0  0  0  0  0  0  0
    2.3670    4.1364    9.3306 H   0  0  0  0  0  0  0  0  0  0  0  0
    3.8934    4.6937   10.0384 H   0  0  0  0  0  0  0  0  0  0  0  0
    1.7436    6.3510    4.8512 C   0  0  0  0  0  0  0  0  0  0  0  0
    2.1939    5.9659    3.9348 H   0  0  0  0  0  0  0  0  0  0  0  0
    1.3977    7.3652    4.6589 H   0  0  0  0  0  0  0  0  0  0  0  0
    0.8866    5.7296    5.0963 H   0  0  0  0  0  0  0  0  0  0  0  0
  1 25  1  0  0  0  0
  2  1  1  0  0  0  0
  3 25  1  0  0  0  0
  4 35  1  0  0  0  0
  4 38  1  0  0  0  0
  5  3  1  0  0  0  0
  6  5  1  0  0  0  0
  6 13  1  0  0  0  0
  7  6  2  0  0  0  0
  8  7  1  0  0  0  0
  9 10  2  0  0  0  0
  9  7  1  0  0  0  0
 10 12  1  0  0  0  0
 11 10  1  0  0  0  0
 12 21  1  0  0  0  0
 12  5  2  0  0  0  0
 13 16  1  0  0  0  0
 13 15  1  0  0  0  0
 14 13  1  0  0  0  0
 17 19  1  0  0  0  0
 17  9  1  0  0  0  0
 18 17  1  0  0  0  0
 20 17  1  0  0  0  0
 21 23  1  0  0  0  0
 22 21  1  0  0  0  0
 24 21  1  0  0  0  0
 25  4  1  0  0  0  0
 26  3  1  0  0  0  0
 26 28  1  0  0  0  0
 26 29  1  0  0  0  0
 27 26  1  0  0  0  0
 29 32  1  0  0  0  0
 30 29  1  0  0  0  0
 31 29  1  0  0  0  0
 32 33  1  0  0  0  0
 32 34  1  0  0  0  0
 32 35  1  0  0  0  0
 35 37  1  0  0  0  0
 36 35  1  0  0  0  0
 38 45  2  0  0  0  0
 38 39  1  0  0  0  0
 39 40  2  0  0  0  0
 40 42  1  0  0  0  0
 40 41  1  0  0  0  0
 42 50  1  0  0  0  0
 43 44  1  0  0  0  0
 43 42  2  0  0  0  0
 45 43  1  0  0  0  0
 46 39  1  0  0  0  0
 46 49  1  0  0  0  0
 46 48  1  0  0  0  0
 47 46  1  0  0  0  0
 50 52  1  0  0  0  0
 50 53  1  0  0  0  0
 51 50  1  0  0  0  0
 54 57  1  0  0  0  0
 54 45  1  0  0  0  0
 55 54  1  0  0  0  0
 56 54  1  0  0  0  0
M  END
$$$$
