CSD_code = ZOLXAB | q = 1 | S = 0 | Stoichiometry = C30H33ClRhS2(1+) | MND = 8
 OpenBabel04212202133D

 67 69  0  0  1  0  0  0  0  0999 V2000
   -0.2198    6.2769    3.9495 C   0  0  0  0  0  0  0  0  0  0  0  0
   -0.2244    7.5778    3.4709 C   0  0  0  0  0  0  0  0  0  0  0  0
    0.3467    7.8401    2.5942 H   0  0  0  0  0  0  0  0  0  0  0  0
   -0.9569    8.5387    4.1468 C   0  0  0  0  0  0  0  0  0  0  0  0
   -0.9661    9.5531    3.7795 H   0  0  0  0  0  0  0  0  0  0  0  0
   -1.6734    8.2039    5.2848 C   0  0  0  0  0  0  0  0  0  0  0  0
   -2.2409    8.9588    5.8061 H   0  0  0  0  0  0  0  0  0  0  0  0
   -1.6676    6.8988    5.7510 C   0  0  0  0  0  0  0  0  0  0  0  0
   -2.2321    6.6331    6.6313 H   0  0  0  0  0  0  0  0  0  0  0  0
   -0.9443    5.9270    5.0813 C   0  0  0  0  0  0  0  0  0  0  0  0
   -0.9471    4.9029    5.4229 H   0  0  0  0  0  0  0  0  0  0  0  0
    0.0488    5.1314    1.4021 C   0  0  0  0  0  0  0  0  0  0  0  0
   -1.0027    5.3944    1.5098 H   0  0  0  0  0  0  0  0  0  0  0  0
    0.5931    5.9457    0.9261 H   0  0  0  0  0  0  0  0  0  0  0  0
    0.1996    3.8147    0.7109 C   0  0  0  0  0  0  0  0  0  0  0  0
   -0.8465    2.9012    0.7997 C   0  0  0  0  0  0  0  0  0  0  0  0
   -1.7393    3.1779    1.3409 H   0  0  0  0  0  0  0  0  0  0  0  0
   -0.7646    1.6555    0.2077 C   0  0  0  0  0  0  0  0  0  0  0  0
   -1.5887    0.9646    0.2889 H   0  0  0  0  0  0  0  0  0  0  0  0
    0.3767    1.3047   -0.4929 C   0  0  0  0  0  0  0  0  0  0  0  0
    0.4525    0.3380   -0.9648 H   0  0  0  0  0  0  0  0  0  0  0  0
    1.4224    2.2021   -0.5883 C   0  0  0  0  0  0  0  0  0  0  0  0
    2.3096    1.9281   -1.1401 H   0  0  0  0  0  0  0  0  0  0  0  0
    1.3558    3.4582    0.0093 C   0  0  0  0  0  0  0  0  0  0  0  0
    2.5388    4.3558   -0.1117 C   0  0  0  0  0  0  0  0  0  0  0  0
    2.2918    5.4144   -0.1753 H   0  0  0  0  0  0  0  0  0  0  0  0
    3.1491    4.0759   -0.9702 H   0  0  0  0  0  0  0  0  0  0  0  0
    3.5704    2.4891    1.6715 C   0  0  0  0  0  0  0  0  0  0  0  0
    2.5953    1.9806    2.5126 C   0  0  0  0  0  0  0  0  0  0  0  0
    1.9011    2.6488    3.0029 H   0  0  0  0  0  0  0  0  0  0  0  0
    2.5179    0.6133    2.7107 C   0  0  0  0  0  0  0  0  0  0  0  0
    1.7549    0.2100    3.3581 H   0  0  0  0  0  0  0  0  0  0  0  0
    3.4134   -0.2333    2.0777 C   0  0  0  0  0  0  0  0  0  0  0  0
    3.3484   -1.2987    2.2333 H   0  0  0  0  0  0  0  0  0  0  0  0
    4.3948    0.2850    1.2483 C   0  0  0  0  0  0  0  0  0  0  0  0
    5.0956   -0.3729    0.7587 H   0  0  0  0  0  0  0  0  0  0  0  0
    4.4778    1.6511    1.0423 C   0  0  0  0  0  0  0  0  0  0  0  0
    5.2362    2.0672    0.3968 H   0  0  0  0  0  0  0  0  0  0  0  0
    3.1488    5.3034    5.4346 C   0  0  0  0  0  0  0  0  0  0  0  0
    3.2507    6.7045    5.0960 C   0  0  2  0  0  0  0  0  0  0  0  0
    4.4497    6.8804    4.3188 C   0  0  2  0  0  3  0  0  0  0  0  0
    5.0149    5.5922    4.0881 C   0  0  2  0  0  0  0  0  0  0  0  0
    4.2109    4.6140    4.7929 C   0  0  0  0  0  0  0  0  0  0  0  0
    4.5834    3.1863    5.0118 C   0  0  0  0  0  0  0  0  0  0  0  0
    5.2628    3.1269    5.8637 H   0  0  0  0  0  0  0  0  0  0  0  0
    5.0908    2.7653    4.1471 H   0  0  0  0  0  0  0  0  0  0  0  0
    3.7110    2.5769    5.2323 H   0  0  0  0  0  0  0  0  0  0  0  0
    2.1905    4.7055    6.4063 C   0  0  0  0  0  0  0  0  0  0  0  0
    1.8814    3.7085    6.0996 H   0  0  0  0  0  0  0  0  0  0  0  0
    1.3080    5.3275    6.5299 H   0  0  0  0  0  0  0  0  0  0  0  0
    2.6845    4.6201    7.3754 H   0  0  0  0  0  0  0  0  0  0  0  0
    2.4603    7.8206    5.6931 C   0  0  0  0  0  0  0  0  0  0  0  0
    3.0152    8.2361    6.5358 H   0  0  0  0  0  0  0  0  0  0  0  0
    1.4919    7.4831    6.0531 H   0  0  0  0  0  0  0  0  0  0  0  0
    2.3018    8.6183    4.9704 H   0  0  0  0  0  0  0  0  0  0  0  0
    5.0445    8.1888    3.9323 C   0  0  0  0  0  0  0  0  0  0  0  0
    5.7045    8.0881    3.0745 H   0  0  0  0  0  0  0  0  0  0  0  0
    5.6286    8.5694    4.7719 H   0  0  0  0  0  0  0  0  0  0  0  0
    4.2751    8.9212    3.6985 H   0  0  0  0  0  0  0  0  0  0  0  0
    6.3154    5.3197    3.4130 C   0  0  0  0  0  0  0  0  0  0  0  0
    6.4657    5.9828    2.5636 H   0  0  0  0  0  0  0  0  0  0  0  0
    6.3737    4.2908    3.0664 H   0  0  0  0  0  0  0  0  0  0  0  0
    7.1271    5.4893    4.1221 H   0  0  0  0  0  0  0  0  0  0  0  0
    2.6254    7.2381    1.6415 Cl  0  0  0  0  0 15  0  0  0  0  0  0
    2.9941    5.6049    3.2317 Rh  0  0  0  0  0  0  0  0  0  0  0  0
    0.6838    4.9708    3.1271 S   0  0  0  0  0  0  0  0  0  0  0  0
    3.6889    4.2432    1.3309 S   0  0  0  0  0  0  0  0  0  0  0  0
  1 10  1  0  0  0  0
  2  1  2  0  0  0  0
  2  4  1  0  0  0  0
  3  2  1  0  0  0  0
  4  6  2  0  0  0  0
  5  4  1  0  0  0  0
  6  8  1  0  0  0  0
  6  7  1  0  0  0  0
  8  9  1  0  0  0  0
 10 11  1  0  0  0  0
 10  8  2  0  0  0  0
 12 13  1  0  0  0  0
 12 66  1  0  0  0  0
 14 12  1  0  0  0  0
 15 16  1  0  0  0  0
 15 12  1  0  0  0  0
 16 17  1  0  0  0  0
 18 19  1  0  0  0  0
 18 16  2  0  0  0  0
 20 18  1  0  0  0  0
 21 20  1  0  0  0  0
 22 20  2  0  0  0  0
 22 24  1  0  0  0  0
 23 22  1  0  0  0  0
 24 15  2  0  0  0  0
 25 24  1  0  0  0  0
 25 67  1  0  0  0  0
 26 25  1  0  0  0  0
 27 25  1  0  0  0  0
 28 29  1  0  0  0  0
 29 31  2  0  0  0  0
 29 30  1  0  0  0  0
 31 32  1  0  0  0  0
 33 34  1  0  0  0  0
 33 31  1  0  0  0  0
 35 33  2  0  0  0  0
 36 35  1  0  0  0  0
 37 35  1  0  0  0  0
 37 28  2  0  0  0  0
 38 37  1  0  0  0  0
 39 48  1  0  0  0  0
 40 39  1  0  0  0  0
 40 52  1  1  0  0  0
 41 56  1  1  0  0  0
 41 40  1  0  0  0  0
 42 60  1  6  0  0  0
 42 41  1  0  0  0  0
 42 43  1  0  0  0  0
 43 44  1  0  0  0  0
 43 39  2  0  0  0  0
 44 47  1  0  0  0  0
 44 45  1  0  0  0  0
 46 44  1  0  0  0  0
 48 50  1  0  0  0  0
 48 51  1  0  0  0  0
 49 48  1  0  0  0  0
 52 54  1  0  0  0  0
 52 53  1  0  0  0  0
 55 52  1  0  0  0  0
 56 58  1  0  0  0  0
 57 56  1  0  0  0  0
 59 56  1  0  0  0  0
 60 63  1  0  0  0  0
 61 60  1  0  0  0  0
 62 60  1  0  0  0  0
 65 42  1  0  0  0  0
 65 40  1  0  0  0  0
 66  1  1  0  0  0  0
 67 28  1  0  0  0  0
M  END
$$$$
