CSD_code = ZOLXOP | q = 1 | S = 0 | Stoichiometry = C30H33ClIrSe2(1+) | MND = 8
 OpenBabel04212202133D

 67 69  0  0  1  0  0  0  0  0999 V2000
    2.6479    2.3182   13.6965 C   0  0  0  0  0  0  0  0  0  0  0  0
    2.3336    1.5102   14.7798 C   0  0  0  0  0  0  0  0  0  0  0  0
    1.3707    1.0203   14.8239 H   0  0  0  0  0  0  0  0  0  0  0  0
    3.2612    1.3355   15.7921 C   0  0  0  0  0  0  0  0  0  0  0  0
    3.0221    0.7051   16.6345 H   0  0  0  0  0  0  0  0  0  0  0  0
    4.4924    1.9666   15.7218 C   0  0  0  0  0  0  0  0  0  0  0  0
    5.2148    1.8267   16.5107 H   0  0  0  0  0  0  0  0  0  0  0  0
    4.7975    2.7801   14.6422 C   0  0  0  0  0  0  0  0  0  0  0  0
    5.7552    3.2741   14.5868 H   0  0  0  0  0  0  0  0  0  0  0  0
    3.8740    2.9598   13.6285 C   0  0  0  0  0  0  0  0  0  0  0  0
    4.1114    3.5956   12.7824 H   0  0  0  0  0  0  0  0  0  0  0  0
    2.1595    1.1306   11.0480 C   0  0  0  0  0  0  0  0  0  0  0  0
    1.7380    0.1829   11.3907 H   0  0  0  0  0  0  0  0  0  0  0  0
    1.7506    1.3723   10.0676 H   0  0  0  0  0  0  0  0  0  0  0  0
    3.6448    1.0964   11.1078 C   0  0  0  0  0  0  0  0  0  0  0  0
    4.2444    0.1848   11.9751 C   0  0  0  0  0  0  0  0  0  0  0  0
    3.6170   -0.4761   12.5555 H   0  0  0  0  0  0  0  0  0  0  0  0
    5.6170    0.1077   12.1043 C   0  0  0  0  0  0  0  0  0  0  0  0
    6.0549   -0.6074   12.7824 H   0  0  0  0  0  0  0  0  0  0  0  0
    6.4225    0.9530   11.3595 C   0  0  0  0  0  0  0  0  0  0  0  0
    7.4960    0.9051   11.4519 H   0  0  0  0  0  0  0  0  0  0  0  0
    5.8428    1.8573   10.4914 C   0  0  0  0  0  0  0  0  0  0  0  0
    6.4686    2.5160    9.9059 H   0  0  0  0  0  0  0  0  0  0  0  0
    4.4597    1.9443   10.3484 C   0  0  0  0  0  0  0  0  0  0  0  0
    3.9183    2.9609    9.4000 C   0  0  0  0  0  0  0  0  0  0  0  0
    2.9333    2.7264    8.9977 H   0  0  0  0  0  0  0  0  0  0  0  0
    4.6206    3.1444    8.5848 H   0  0  0  0  0  0  0  0  0  0  0  0
    3.6887    5.8513    8.7566 C   0  0  0  0  0  0  0  0  0  0  0  0
    2.6594    5.7708    7.8333 C   0  0  0  0  0  0  0  0  0  0  0  0
    1.8472    5.0747    7.9795 H   0  0  0  0  0  0  0  0  0  0  0  0
    2.6830    6.6019    6.7265 C   0  0  0  0  0  0  0  0  0  0  0  0
    1.8854    6.5442    6.0018 H   0  0  0  0  0  0  0  0  0  0  0  0
    3.7220    7.5019    6.5485 C   0  0  0  0  0  0  0  0  0  0  0  0
    3.7331    8.1471    5.6838 H   0  0  0  0  0  0  0  0  0  0  0  0
    4.7479    7.5745    7.4772 C   0  0  0  0  0  0  0  0  0  0  0  0
    5.5589    8.2724    7.3376 H   0  0  0  0  0  0  0  0  0  0  0  0
    4.7360    6.7477    8.5868 C   0  0  0  0  0  0  0  0  0  0  0  0
    5.5329    6.7906    9.3179 H   0  0  0  0  0  0  0  0  0  0  0  0
    1.8711    6.3759   12.8779 C   0  0  1  0  0  0  0  0  0  0  0  0
    0.7412    5.6443   13.3308 C   0  0  2  0  0  3  0  0  0  0  0  0
   -0.2905    5.7561   12.3314 C   0  0  2  0  0  0  0  0  0  0  0  0
    0.1708    6.6570   11.3131 C   0  0  0  0  0  0  0  0  0  0  0  0
    1.5124    7.0171   11.6279 C   0  0  0  0  0  0  0  0  0  0  0  0
    2.3337    8.0596   10.9489 C   0  0  0  0  0  0  0  0  0  0  0  0
    2.0969    8.1316    9.8898 H   0  0  0  0  0  0  0  0  0  0  0  0
    3.3980    7.8531   11.0538 H   0  0  0  0  0  0  0  0  0  0  0  0
    2.1313    9.0280   11.4091 H   0  0  0  0  0  0  0  0  0  0  0  0
    3.1320    6.6372   13.6305 C   0  0  0  0  0  0  0  0  0  0  0  0
    3.0814    7.6169   14.1067 H   0  0  0  0  0  0  0  0  0  0  0  0
    3.9923    6.6331   12.9607 H   0  0  0  0  0  0  0  0  0  0  0  0
    3.2935    5.8889   14.4023 H   0  0  0  0  0  0  0  0  0  0  0  0
    0.5788    4.9572   14.6421 C   0  0  0  0  0  0  0  0  0  0  0  0
    1.5376    4.7705   15.1195 H   0  0  0  0  0  0  0  0  0  0  0  0
    0.0551    4.0063   14.5287 H   0  0  0  0  0  0  0  0  0  0  0  0
   -0.0177    5.5868   15.3035 H   0  0  0  0  0  0  0  0  0  0  0  0
   -1.6808    5.2381   12.4625 C   0  0  0  0  0  0  0  0  0  0  0  0
   -1.6989    4.2919   13.0001 H   0  0  0  0  0  0  0  0  0  0  0  0
   -2.1360    5.0922   11.4861 H   0  0  0  0  0  0  0  0  0  0  0  0
   -2.2886    5.9557   13.0156 H   0  0  0  0  0  0  0  0  0  0  0  0
   -0.6554    7.1798   10.1908 C   0  0  0  0  0  0  0  0  0  0  0  0
   -1.3660    7.9121   10.5760 H   0  0  0  0  0  0  0  0  0  0  0  0
   -1.2237    6.3811    9.7182 H   0  0  0  0  0  0  0  0  0  0  0  0
   -0.0394    7.6598    9.4353 H   0  0  0  0  0  0  0  0  0  0  0  0
    0.5050    3.6788    9.5432 Cl  0  0  0  0  0 15  0  0  0  0  0  0
    1.4687    4.8096   11.3840 Ir  0  0  0  0  0  0  0  0  0  0  0  0
    1.3586    2.4885   12.2666 Se  0  0  0  0  0  0  0  0  0  0  0  0
    3.7352    4.7149   10.3159 Se  0  0  0  0  0  0  0  0  0  0  0  0
  1  2  1  0  0  0  0
  2  3  1  0  0  0  0
  2  4  2  0  0  0  0
  4  5  1  0  0  0  0
  6  4  1  0  0  0  0
  6  7  1  0  0  0  0
  8  6  2  0  0  0  0
  9  8  1  0  0  0  0
 10  1  2  0  0  0  0
 10  8  1  0  0  0  0
 11 10  1  0  0  0  0
 12 15  1  0  0  0  0
 12 13  1  0  0  0  0
 12 66  1  0  0  0  0
 14 12  1  0  0  0  0
 15 16  1  0  0  0  0
 16 18  2  0  0  0  0
 16 17  1  0  0  0  0
 18 19  1  0  0  0  0
 20 21  1  0  0  0  0
 20 18  1  0  0  0  0
 22 20  2  0  0  0  0
 23 22  1  0  0  0  0
 24 22  1  0  0  0  0
 24 15  2  0  0  0  0
 25 67  1  0  0  0  0
 25 24  1  0  0  0  0
 26 25  1  0  0  0  0
 27 25  1  0  0  0  0
 28 67  1  0  0  0  0
 29 30  1  0  0  0  0
 29 28  2  0  0  0  0
 31 29  1  0  0  0  0
 32 31  1  0  0  0  0
 33 31  2  0  0  0  0
 33 35  1  0  0  0  0
 34 33  1  0  0  0  0
 35 37  2  0  0  0  0
 36 35  1  0  0  0  0
 37 28  1  0  0  0  0
 37 38  1  0  0  0  0
 39 40  1  0  0  0  0
 39 48  1  1  0  0  0
 40 52  1  1  0  0  0
 41 56  1  1  0  0  0
 41 40  1  0  0  0  0
 42 43  2  0  0  0  0
 42 41  1  0  0  0  0
 43 39  1  0  0  0  0
 44 46  1  0  0  0  0
 44 47  1  0  0  0  0
 44 43  1  0  0  0  0
 45 44  1  0  0  0  0
 48 49  1  0  0  0  0
 48 51  1  0  0  0  0
 50 48  1  0  0  0  0
 52 53  1  0  0  0  0
 52 55  1  0  0  0  0
 54 52  1  0  0  0  0
 56 57  1  0  0  0  0
 56 59  1  0  0  0  0
 58 56  1  0  0  0  0
 60 61  1  0  0  0  0
 60 42  1  0  0  0  0
 62 60  1  0  0  0  0
 63 60  1  0  0  0  0
 65 41  1  0  0  0  0
 65 39  1  0  0  0  0
 66  1  1  0  0  0  0
M  END
$$$$
