CSD_code = ZOLZOP | q = 0 | S = 0 | Stoichiometry = C22H20ClN3O3Ru | MND = 6
 OpenBabel04212202133D

 50 55  0  0  1  0  0  0  0  0999 V2000
   -0.3128   -0.1533    0.0552 Ru  0  0  0  0  0  0  0  0  0  0  0  0
    1.7215    0.7163    0.3655 Cl  0  0  0  0  0  0  0  0  0  0  0  0
   -0.4859   -0.1938    2.1304 O   0  0  0  0  0  0  0  0  0  0  0  0
    0.0591   -0.0479   -1.9844 O   0  0  0  0  0  0  0  0  0  0  0  0
   -2.8624   -1.3183   -0.3761 O   0  0  0  0  0  1  0  0  0  0  0  0
    0.5952   -2.0305    0.4844 N   0  0  0  0  0  0  0  0  0  0  0  0
   -0.9231    1.8524   -0.3408 N   0  0  0  0  0  0  0  0  0  0  0  0
   -1.8264   -0.8252   -0.1883 N   0  0  0  0  0  2  0  0  0  0  0  0
    1.0741   -2.9464   -0.3314 C   0  0  0  0  0  0  0  0  0  0  0  0
    1.8240   -4.0358    0.1640 C   0  0  0  0  0  0  0  0  0  0  0  0
    2.0595   -4.1729    1.5001 C   0  0  0  0  0  0  0  0  0  0  0  0
    1.6878   -3.2785    3.7885 C   0  0  0  0  0  0  0  0  0  0  0  0
    1.1249   -2.3086    4.5824 C   0  0  0  0  0  0  0  0  0  0  0  0
    0.3927   -1.2579    4.0402 C   0  0  0  0  0  0  0  0  0  0  0  0
    0.2110   -1.1510    2.6625 C   0  0  0  0  0  0  0  0  0  0  0  0
    0.7948   -2.1493    1.8249 C   0  0  1  0  0  3  0  0  0  0  0  0
    1.5293   -3.2209    2.3949 C   0  0  0  0  0  0  0  0  0  0  0  0
    0.8770   -2.8429   -1.8090 C   0  0  0  0  0  0  0  0  0  0  0  0
    2.1220   -2.2190   -2.4477 C   0  0  0  0  0  0  0  0  0  0  0  0
   -1.4064    2.7708    0.4725 C   0  0  0  0  0  0  0  0  0  0  0  0
   -1.6245    4.0913    0.0232 C   0  0  0  0  0  0  0  0  0  0  0  0
   -1.3380    4.4515   -1.2606 C   0  0  0  0  0  0  0  0  0  0  0  0
   -0.4923    3.7488   -3.4871 C   0  0  0  0  0  3  0  0  0  0  0  0
    0.0128    2.7450   -4.2779 C   0  0  0  0  0  0  0  0  0  0  0  0
    0.2094    1.4601   -3.7849 C   0  0  0  0  0  0  0  0  0  0  0  0
   -0.1018    1.1467   -2.4624 C   0  0  0  0  0  0  0  0  0  0  0  0
   -0.6271    2.1799   -1.6280 C   0  0  0  0  0  0  0  0  0  0  0  0
   -0.8214    3.4861   -2.1480 C   0  0  0  0  0  0  0  0  0  0  0  0
   -1.7803    2.4251    1.8773 C   0  0  0  0  0  0  0  0  0  0  0  0
   -3.1638    1.7696    1.9174 C   0  0  0  0  0  0  0  0  0  0  0  0
    2.2055   -4.7546   -0.5447 H   0  0  0  0  0  0  0  0  0  0  0  0
    2.6383   -4.9997    1.8851 H   0  0  0  0  0  0  0  0  0  0  0  0
    2.2543   -4.0904    4.2174 H   0  0  0  0  0  0  0  0  0  0  0  0
    1.2490   -2.3562    5.6543 H   0  0  0  0  0  0  0  0  0  0  0  0
   -0.0477   -0.5064    4.6765 H   0  0  0  0  0  0  0  0  0  0  0  0
    0.0109   -2.2199   -2.0346 H   0  0  0  0  0  0  0  0  0  0  0  0
    0.7145   -3.8421   -2.2194 H   0  0  0  0  0  0  0  0  0  0  0  0
    3.0071   -2.8164   -2.2383 H   0  0  0  0  0  0  0  0  0  0  0  0
    1.9902   -2.1485   -3.5235 H   0  0  0  0  0  0  0  0  0  0  0  0
    2.2707   -1.2173   -2.0518 H   0  0  0  0  0  0  0  0  0  0  0  0
   -2.0215    4.8090    0.7244 H   0  0  0  0  0  0  0  0  0  0  0  0
   -1.4981    5.4618   -1.6080 H   0  0  0  0  0  0  0  0  0  0  0  0
   -0.6389    4.7444   -3.8757 H   0  0  0  0  0  0  0  0  0  0  0  0
    0.2676    2.9516   -5.3071 H   0  0  0  0  0  0  0  0  0  0  0  0
    0.6087    0.6813   -4.4152 H   0  0  0  0  0  0  0  0  0  0  0  0
   -1.0508    1.7319    2.2954 H   0  0  0  0  0  0  0  0  0  0  0  0
   -1.7903    3.3351    2.4794 H   0  0  0  0  0  0  0  0  0  0  0  0
   -3.1498    0.8331    1.3638 H   0  0  0  0  0  0  0  0  0  0  0  0
   -3.9165    2.4248    1.4826 H   0  0  0  0  0  0  0  0  0  0  0  0
   -3.4388    1.5529    2.9456 H   0  0  0  0  0  0  0  0  0  0  0  0
  1  2  1  0  0  0  0
  1  6  1  0  0  0  0
  1  3  1  0  0  0  0
  3 15  1  0  0  0  0
  4  1  1  0  0  0  0
  5  8  1  0  0  0  0
  6 16  1  0  0  0  0
  7  1  1  0  0  0  0
  7 20  1  0  0  0  0
  8  1  1  0  0  0  0
  9 10  2  0  0  0  0
  9  6  1  0  0  0  0
 10 11  1  0  0  0  0
 11 32  1  0  0  0  0
 11 17  2  0  0  0  0
 12 33  1  0  0  0  0
 12 13  2  0  0  0  0
 13 34  1  0  0  0  0
 14 13  1  0  0  0  0
 14 35  1  0  0  0  0
 15 14  2  0  0  0  0
 16 17  1  1  0  0  0
 16 15  1  0  0  0  0
 17 12  1  0  0  0  0
 18  9  1  0  0  0  0
 19 38  1  0  0  0  0
 19 40  1  0  0  0  0
 19 18  1  0  0  0  0
 20 29  1  0  0  0  0
 21 20  2  0  0  0  0
 21 41  1  0  0  0  0
 22 21  1  0  0  0  0
 23 28  1  0  0  0  0
 24 25  2  0  0  0  0
 24 23  1  0  0  0  0
 25 26  1  0  0  0  0
 26  4  1  0  0  0  0
 26 27  2  0  0  0  0
 27  7  1  0  0  0  0
 28 27  1  0  0  0  0
 28 22  2  0  0  0  0
 29 30  1  0  0  0  0
 29 46  1  0  0  0  0
 29 47  1  0  0  0  0
 30 50  1  0  0  0  0
 31 10  1  0  0  0  0
 36 18  1  0  0  0  0
 37 18  1  0  0  0  0
 39 19  1  0  0  0  0
 42 22  1  0  0  0  0
 43 23  1  0  0  0  0
 44 24  1  0  0  0  0
 45 25  1  0  0  0  0
 48 30  1  0  0  0  0
 49 30  1  0  0  0  0
M  END
$$$$
