CSD_code = ZOMCIP | q = 0 | S = 0 | Stoichiometry = C13H11AgClN3S | MND = 2
 OpenBabel04212202133D

 30 33  0  0  1  0  0  0  0  0999 V2000
   -1.9041    8.8137    0.1183 Ag  0  0  0  0  0  0  0  0  0  0  0  0
   -1.2897   10.9371   -0.1847 Cl  0  0  0  0  0  0  0  0  0  0  0  0
   -2.3467    8.3645    2.9478 S   0  0  1  0  0  0  0  0  0  0  0  0
   -2.6516    5.8199   -0.6819 N   0  0  0  0  0  0  0  0  0  0  0  0
   -2.8046    6.1291    1.4309 N   0  0  0  0  0  0  0  0  0  0  0  0
   -3.0784    5.9946    3.7366 N   0  0  0  0  0  0  0  0  0  0  0  0
   -2.4905    6.7583    0.2647 C   0  0  0  0  0  0  0  0  0  0  0  0
   -3.0626    4.6313   -0.1357 C   0  0  0  0  0  0  0  0  0  0  0  0
   -3.2520    3.7637   -0.7334 H   0  0  0  0  0  0  0  0  0  0  0  0
   -3.1578    4.8177    1.1979 C   0  0  0  0  0  0  0  0  0  0  0  0
   -3.4330    4.1671    2.0004 H   0  0  0  0  0  0  0  0  0  0  0  0
   -2.4717    6.0282   -2.0986 C   0  0  0  0  0  0  0  0  0  0  0  0
   -1.8579    5.2204   -2.5069 H   0  0  0  0  0  0  0  0  0  0  0  0
   -1.9454    6.9855   -2.2235 H   0  0  0  0  0  0  0  0  0  0  0  0
   -3.7984    6.0870   -2.8004 C   0  0  0  0  0  0  0  0  0  0  0  0
   -4.4697    6.8515   -2.4329 H   0  0  0  0  0  0  0  0  0  0  0  0
   -4.1466    5.2840   -3.7871 C   0  0  0  0  0  0  0  0  0  0  0  0
   -3.4819    4.5230   -4.1632 H   0  0  0  0  0  0  0  0  0  0  0  0
   -5.1033    5.3630   -4.2730 H   0  0  0  0  0  0  0  0  0  0  0  0
   -2.7822    6.6802    2.6927 C   0  0  0  0  0  0  0  0  0  0  0  0
   -2.5990    8.0862    4.6549 C   0  0  1  0  0  3  0  0  0  0  0  0
   -2.4632    8.9762    5.7050 C   0  0  0  0  0  0  0  0  0  0  0  0
   -2.1645    9.9968    5.5244 H   0  0  0  0  0  0  0  0  0  0  0  0
   -2.7210    8.5164    6.9820 C   0  0  0  0  0  0  0  0  0  0  0  0
   -2.6221    9.1917    7.8179 H   0  0  0  0  0  0  0  0  0  0  0  0
   -3.1066    7.1959    7.2076 C   0  0  0  0  0  0  0  0  0  0  0  0
   -3.3015    6.8681    8.2176 H   0  0  0  0  0  0  0  0  0  0  0  0
   -3.2434    6.3045    6.1655 C   0  0  0  0  0  0  0  0  0  0  0  0
   -3.5409    5.2808    6.3265 H   0  0  0  0  0  0  0  0  0  0  0  0
   -2.9884    6.7469    4.8700 C   0  0  0  0  0  0  0  0  0  0  0  0
  1  7  2  0  0  0  0
  1  3  1  0  0  0  0
  2  1  1  0  0  0  0
  3 20  2  6  0  0  0
  3 21  1  0  0  0  0
  4  8  1  0  0  0  0
  4  7  1  0  0  0  0
  5 20  1  0  0  0  0
  6 30  2  0  0  0  0
  7  5  1  0  0  0  0
  8 10  2  0  0  0  0
  9  8  1  0  0  0  0
 10  5  1  0  0  0  0
 10 11  1  0  0  0  0
 12  4  1  0  0  0  0
 13 12  1  0  0  0  0
 14 12  1  0  0  0  0
 15 16  1  0  0  0  0
 15 12  1  0  0  0  0
 17 15  2  0  0  0  0
 18 17  1  0  0  0  0
 19 17  1  0  0  0  0
 20  6  1  0  0  0  0
 21 30  1  6  0  0  0
 21 22  1  0  0  0  0
 22 24  2  0  0  0  0
 23 22  1  0  0  0  0
 24 26  1  0  0  0  0
 24 25  1  0  0  0  0
 26 27  1  0  0  0  0
 28 29  1  0  0  0  0
 28 26  2  0  0  0  0
 30 28  1  0  0  0  0
M  END
$$$$
