CSD_code = ZOMLAO | q = 0 | S = 0 | Stoichiometry = C27H28AuClOP2 | MND = 4
 OpenBabel04212202133D

 60 63  0  0  0  0  0  0  0  0999 V2000
    0.7622    2.1204    1.3011 O   0  0  0  0  0  0  0  0  0  0  0  0
    1.2740    0.5953    3.4772 Au  0  0  0  0  0  0  0  0  0  0  0  0
    3.1637    0.3906    2.0857 P   0  0  0  0  0  4  0  0  0  0  0  0
    1.9541    2.5936    0.5801 P   0  0  0  0  0  0  0  0  0  0  0  0
    2.6861    2.2461    4.3510 Cl  0  0  0  0  0  0  0  0  0  0  0  0
    0.1679   -0.9887    2.8640 C   0  0  0  0  0  0  0  0  0  0  0  0
   -0.2463    0.9528    4.7684 C   0  0  0  0  0  0  0  0  0  0  0  0
    3.5321    2.0265    1.3603 C   0  0  0  0  0  0  0  0  0  0  0  0
    3.2047   -0.5662    0.5363 C   0  0  0  0  0  0  0  0  0  0  0  0
    4.4061   -0.9422   -0.0569 C   0  0  0  0  0  0  0  0  0  0  0  0
    4.3963   -1.5771   -1.2844 C   0  0  0  0  0  0  0  0  0  0  0  0
    3.1946   -1.8422   -1.9224 C   0  0  0  0  0  0  0  0  0  0  0  0
    1.9986   -1.4719   -1.3325 C   0  0  0  0  0  0  0  0  0  0  0  0
    2.0015   -0.8306   -0.1064 C   0  0  0  0  0  0  0  0  0  0  0  0
    4.6705   -0.1230    2.9343 C   0  0  0  0  0  0  0  0  0  0  0  0
    5.6305    0.7614    3.4102 C   0  0  0  0  0  0  0  0  0  0  0  0
    6.7112    0.2734    4.1243 C   0  0  0  0  0  0  0  0  0  0  0  0
    6.8331   -1.0836    4.3722 C   0  0  0  0  0  0  0  0  0  0  0  0
    5.8654   -1.9652    3.9144 C   0  0  0  0  0  0  0  0  0  0  0  0
    4.7825   -1.4867    3.2043 C   0  0  0  0  0  0  0  0  0  0  0  0
    2.0954    4.4038    0.5951 C   0  0  0  0  0  0  0  0  0  0  0  0
    1.9939    4.9980    1.8482 C   0  0  0  0  0  0  0  0  0  0  0  0
    2.0537    6.3743    1.9603 C   0  0  0  0  0  0  0  0  0  0  0  0
    2.2095    7.1533    0.8239 C   0  0  0  0  0  0  0  0  0  0  0  0
    2.3043    6.5586   -0.4237 C   0  0  0  0  0  0  0  0  0  0  0  0
    2.2471    5.1805   -0.5436 C   0  0  0  0  0  0  0  0  0  0  0  0
    1.9848    2.0574   -1.1544 C   0  0  0  0  0  0  0  0  0  0  0  0
    0.7656    1.6720   -1.6962 C   0  0  0  0  0  0  0  0  0  0  0  0
    0.6924    1.2518   -3.0111 C   0  0  0  0  0  0  0  0  0  0  0  0
    1.8402    1.2145   -3.7860 C   0  0  0  0  0  0  0  0  0  0  0  0
    3.0548    1.6135   -3.2516 C   0  0  0  0  0  0  0  0  0  0  0  0
    3.1299    2.0435   -1.9394 C   0  0  0  0  0  0  0  0  0  0  0  0
    0.8247   -1.7332    2.4231 H   0  0  0  0  0  0  0  0  0  0  0  0
   -0.5482   -0.6690    2.1167 H   0  0  0  0  0  0  0  0  0  0  0  0
   -0.3785   -1.4595    3.6709 H   0  0  0  0  0  0  0  0  0  0  0  0
   -0.0903    1.9285    5.2156 H   0  0  0  0  0  0  0  0  0  0  0  0
   -0.2712    0.2154    5.5630 H   0  0  0  0  0  0  0  0  0  0  0  0
   -1.2073    0.9555    4.2698 H   0  0  0  0  0  0  0  0  0  0  0  0
    3.7500    2.7278    2.1711 H   0  0  0  0  0  0  0  0  0  0  0  0
    4.3649    1.9651    0.6552 H   0  0  0  0  0  0  0  0  0  0  0  0
    5.3423   -0.7375    0.4459 H   0  0  0  0  0  0  0  0  0  0  0  0
    5.3292   -1.8661   -1.7462 H   0  0  0  0  0  0  0  0  0  0  0  0
    3.1928   -2.3398   -2.8809 H   0  0  0  0  0  0  0  0  0  0  0  0
    1.0622   -1.6787   -1.8290 H   0  0  0  0  0  0  0  0  0  0  0  0
    1.0760   -0.5258    0.3590 H   0  0  0  0  0  0  0  0  0  0  0  0
    5.5254    1.8227    3.2444 H   0  0  0  0  0  0  0  0  0  0  0  0
    7.4586    0.9591    4.4953 H   0  0  0  0  0  0  0  0  0  0  0  0
    7.6781   -1.4560    4.9322 H   0  0  0  0  0  0  0  0  0  0  0  0
    5.9539   -3.0222    4.1188 H   0  0  0  0  0  0  0  0  0  0  0  0
    4.0118   -2.1595    2.8469 H   0  0  0  0  0  0  0  0  0  0  0  0
    1.8679    4.3714    2.7215 H   0  0  0  0  0  0  0  0  0  0  0  0
    1.9780    6.8398    2.9316 H   0  0  0  0  0  0  0  0  0  0  0  0
    2.2535    8.2291    0.9099 H   0  0  0  0  0  0  0  0  0  0  0  0
    2.4204    7.1698   -1.3070 H   0  0  0  0  0  0  0  0  0  0  0  0
    2.3154    4.7103   -1.5150 H   0  0  0  0  0  0  0  0  0  0  0  0
   -0.1111    1.6996   -1.0644 H   0  0  0  0  0  0  0  0  0  0  0  0
   -0.2557    0.9516   -3.4325 H   0  0  0  0  0  0  0  0  0  0  0  0
    1.7890    0.8788   -4.8112 H   0  0  0  0  0  0  0  0  0  0  0  0
    3.9464    1.5917   -3.8611 H   0  0  0  0  0  0  0  0  0  0  0  0
    4.0761    2.3698   -1.5316 H   0  0  0  0  0  0  0  0  0  0  0  0
  2  5  1  0  0  0  0
  2  7  1  0  0  0  0
  3 15  1  0  0  0  0
  3  2  1  0  0  0  0
  4 21  1  0  0  0  0
  4  1  2  0  0  0  0
  4  8  1  0  0  0  0
  6  2  1  0  0  0  0
  6 35  1  0  0  0  0
  7 36  1  0  0  0  0
  7 37  1  0  0  0  0
  8  3  1  0  0  0  0
  8 39  1  0  0  0  0
  9  3  1  0  0  0  0
 10 41  1  0  0  0  0
 10  9  1  0  0  0  0
 11 10  2  0  0  0  0
 12 13  2  0  0  0  0
 12 11  1  0  0  0  0
 13 14  1  0  0  0  0
 14 45  1  0  0  0  0
 14  9  2  0  0  0  0
 15 20  2  0  0  0  0
 15 16  1  0  0  0  0
 16 17  2  0  0  0  0
 17 18  1  0  0  0  0
 17 47  1  0  0  0  0
 18 48  1  0  0  0  0
 19 49  1  0  0  0  0
 19 18  2  0  0  0  0
 20 19  1  0  0  0  0
 21 22  1  0  0  0  0
 22 23  2  0  0  0  0
 22 51  1  0  0  0  0
 23 52  1  0  0  0  0
 24 53  1  0  0  0  0
 24 23  1  0  0  0  0
 25 24  2  0  0  0  0
 26 25  1  0  0  0  0
 26 21  2  0  0  0  0
 27  4  1  0  0  0  0
 28 27  1  0  0  0  0
 28 56  1  0  0  0  0
 29 28  2  0  0  0  0
 30 31  2  0  0  0  0
 30 29  1  0  0  0  0
 31 32  1  0  0  0  0
 32 60  1  0  0  0  0
 32 27  2  0  0  0  0
 33  6  1  0  0  0  0
 34  6  1  0  0  0  0
 38  7  1  0  0  0  0
 40  8  1  0  0  0  0
 42 11  1  0  0  0  0
 43 12  1  0  0  0  0
 44 13  1  0  0  0  0
 46 16  1  0  0  0  0
 50 20  1  0  0  0  0
 54 25  1  0  0  0  0
 55 26  1  0  0  0  0
 57 29  1  0  0  0  0
 58 30  1  0  0  0  0
 59 31  1  0  0  0  0
M  END
$$$$
