CSD_code = ZOMSOM | q = 0 | S = 0 | Stoichiometry = C32H24Cl2N2O2P2Pt | MND = 4
 OpenBabel04212202133D

 65 71  0  0  0  0  0  0  0  0999 V2000
    0.8562    3.0449    9.8541 Pt  0  0  0  0  0  0  0  0  0  0  0  0
   -0.2853    2.8003    7.9125 Cl  0  0  0  0  0  0  0  0  0  0  0  0
   -0.8885    2.2479   11.0553 Cl  0  0  0  0  0  0  0  0  0  0  0  0
    2.8054    3.8756    8.9604 P   0  0  0  0  0  4  0  0  0  0  0  0
    2.3144    3.2498   11.6192 P   0  0  0  0  0  4  0  0  0  0  0  0
    4.9721    1.4419   10.3512 O   0  0  0  0  0  0  0  0  0  0  0  0
    5.4702    5.9409   10.9355 O   0  0  0  0  0  0  0  0  0  0  0  0
    3.5376    3.8634   10.5504 N   0  0  0  0  0  0  0  0  0  0  0  0
    4.9011    3.7134   10.7261 N   0  0  0  0  0  0  0  0  0  0  0  0
    5.5441    2.4803   10.5605 C   0  0  0  0  0  0  0  0  0  0  0  0
    6.9811    2.7791   10.6888 C   0  0  0  0  0  0  0  0  0  0  0  0
    8.0767    1.9417   10.6418 C   0  0  0  0  0  0  0  0  0  0  0  0
    7.9496    0.8794   10.5055 H   0  0  0  0  0  0  0  0  0  0  0  0
    9.3360    2.5176   10.7731 C   0  0  0  0  0  0  0  0  0  0  0  0
   10.2130    1.8891   10.7391 H   0  0  0  0  0  0  0  0  0  0  0  0
    9.4850    3.8864   10.9450 C   0  0  0  0  0  0  0  0  0  0  0  0
   10.4759    4.3036   11.0425 H   0  0  0  0  0  0  0  0  0  0  0  0
    8.3809    4.7312   10.9920 C   0  0  0  0  0  0  0  0  0  0  0  0
    8.4901    5.7964   11.1231 H   0  0  0  0  0  0  0  0  0  0  0  0
    7.1309    4.1606   10.8622 C   0  0  0  0  0  0  0  0  0  0  0  0
    5.7903    4.7823   10.8569 C   0  0  0  0  0  0  0  0  0  0  0  0
    3.9610    2.8827    7.9832 C   0  0  0  0  0  0  0  0  0  0  0  0
    3.5648    1.5985    7.6296 C   0  0  0  0  0  0  0  0  0  0  0  0
    2.5529    1.2824    7.8540 H   0  0  0  0  0  0  0  0  0  0  0  0
    4.4607    0.7525    7.0025 C   0  0  0  0  0  0  0  0  0  0  0  0
    4.1576   -0.2455    6.7252 H   0  0  0  0  0  0  0  0  0  0  0  0
    5.7513    1.1841    6.7418 C   0  0  0  0  0  0  0  0  0  0  0  0
    6.4557    0.5202    6.2627 H   0  0  0  0  0  0  0  0  0  0  0  0
    6.1467    2.4656    7.0929 C   0  0  0  0  0  0  0  0  0  0  0  0
    7.1545    2.7982    6.8892 H   0  0  0  0  0  0  0  0  0  0  0  0
    5.2541    3.3214    7.7118 C   0  0  0  0  0  0  0  0  0  0  0  0
    5.5570    4.3253    7.9820 H   0  0  0  0  0  0  0  0  0  0  0  0
    3.0618    5.5875    8.4324 C   0  0  0  0  0  0  0  0  0  0  0  0
    2.7872    6.6048    9.3421 C   0  0  0  0  0  0  0  0  0  0  0  0
    2.4808    6.3487   10.3475 H   0  0  0  0  0  0  0  0  0  0  0  0
    2.9065    7.9252    8.9551 C   0  0  0  0  0  0  0  0  0  0  0  0
    2.7092    8.7145    9.6647 H   0  0  0  0  0  0  0  0  0  0  0  0
    3.2695    8.2349    7.6534 C   0  0  0  0  0  0  0  0  0  0  0  0
    3.3609    9.2674    7.3504 H   0  0  0  0  0  0  0  0  0  0  0  0
    3.4990    7.2238    6.7342 C   0  0  0  0  0  0  0  0  0  0  0  0
    3.7605    7.4679    5.7150 H   0  0  0  0  0  0  0  0  0  0  0  0
    3.3897    5.8990    7.1166 C   0  0  0  0  0  0  0  0  0  0  0  0
    3.5547    5.1054    6.4006 H   0  0  0  0  0  0  0  0  0  0  0  0
    2.3186    4.3573   13.0512 C   0  0  0  0  0  0  0  0  0  0  0  0
    3.0487    5.5355   13.1434 C   0  0  0  0  0  0  0  0  0  0  0  0
    3.7121    5.8374   12.3464 H   0  0  0  0  0  0  0  0  0  0  0  0
    2.9252    6.3254   14.2743 C   0  0  0  0  0  0  0  0  0  0  0  0
    3.4989    7.2372   14.3511 H   0  0  0  0  0  0  0  0  0  0  0  0
    2.0687    5.9548   15.2974 C   0  0  0  0  0  0  0  0  0  0  0  0
    1.9744    6.5790   16.1735 H   0  0  0  0  0  0  0  0  0  0  0  0
    1.3237    4.7886   15.1958 C   0  0  0  0  0  0  0  0  0  0  0  0
    0.6468    4.5072   15.9883 H   0  0  0  0  0  0  0  0  0  0  0  0
    1.4443    3.9919   14.0746 C   0  0  0  0  0  0  0  0  0  0  0  0
    0.8618    3.0857   13.9678 H   0  0  0  0  0  0  0  0  0  0  0  0
    2.9352    1.6922   12.3025 C   0  0  0  0  0  0  0  0  0  0  0  0
    3.8637    1.6552   13.3367 C   0  0  0  0  0  0  0  0  0  0  0  0
    4.2107    2.5763   13.7874 H   0  0  0  0  0  0  0  0  0  0  0  0
    4.3391    0.4341   13.7776 C   0  0  0  0  0  0  0  0  0  0  0  0
    5.0662    0.3977   14.5761 H   0  0  0  0  0  0  0  0  0  0  0  0
    3.8852   -0.7399   13.1971 C   0  0  0  0  0  0  0  0  0  0  0  0
    4.2611   -1.6898   13.5481 H   0  0  0  0  0  0  0  0  0  0  0  0
    2.9536   -0.7011   12.1719 C   0  0  0  0  0  0  0  0  0  0  0  0
    2.6015   -1.6186   11.7254 H   0  0  0  0  0  0  0  0  0  0  0  0
    2.4781    0.5152   11.7213 C   0  0  0  0  0  0  0  0  0  0  0  0
    1.7464    0.5738   10.9199 H   0  0  0  0  0  0  0  0  0  0  0  0
  1  3  1  0  0  0  0
  1  5  1  0  0  0  0
  2  1  1  0  0  0  0
  4  1  1  0  0  0  0
  4  8  1  0  0  0  0
  5 55  1  0  0  0  0
  5 44  1  0  0  0  0
  6 10  2  0  0  0  0
  8  9  1  0  0  0  0
  8  5  1  0  0  0  0
  9 21  1  0  0  0  0
 10 11  1  0  0  0  0
 10  9  1  0  0  0  0
 11 20  1  0  0  0  0
 12 11  2  0  0  0  0
 12 14  1  0  0  0  0
 13 12  1  0  0  0  0
 14 16  2  0  0  0  0
 15 14  1  0  0  0  0
 16 18  1  0  0  0  0
 16 17  1  0  0  0  0
 18 19  1  0  0  0  0
 20 18  2  0  0  0  0
 21 20  1  0  0  0  0
 21  7  2  0  0  0  0
 22  4  1  0  0  0  0
 23 24  1  0  0  0  0
 23 22  2  0  0  0  0
 25 23  1  0  0  0  0
 26 25  1  0  0  0  0
 27 25  2  0  0  0  0
 27 29  1  0  0  0  0
 28 27  1  0  0  0  0
 29 31  2  0  0  0  0
 30 29  1  0  0  0  0
 31 32  1  0  0  0  0
 31 22  1  0  0  0  0
 33  4  1  0  0  0  0
 33 34  1  0  0  0  0
 34 35  1  0  0  0  0
 36 34  2  0  0  0  0
 36 37  1  0  0  0  0
 38 36  1  0  0  0  0
 39 38  1  0  0  0  0
 40 42  1  0  0  0  0
 40 38  2  0  0  0  0
 41 40  1  0  0  0  0
 42 33  2  0  0  0  0
 43 42  1  0  0  0  0
 44 45  2  0  0  0  0
 44 53  1  0  0  0  0
 45 47  1  0  0  0  0
 46 45  1  0  0  0  0
 47 48  1  0  0  0  0
 47 49  2  0  0  0  0
 49 50  1  0  0  0  0
 51 49  1  0  0  0  0
 51 52  1  0  0  0  0
 53 51  2  0  0  0  0
 54 53  1  0  0  0  0
 55 56  1  0  0  0  0
 56 58  2  0  0  0  0
 56 57  1  0  0  0  0
 58 59  1  0  0  0  0
 60 61  1  0  0  0  0
 60 58  1  0  0  0  0
 62 60  2  0  0  0  0
 63 62  1  0  0  0  0
 64 62  1  0  0  0  0
 64 55  2  0  0  0  0
 65 64  1  0  0  0  0
M  END
$$$$
