CSD_code = ZONJIX | q = 1 | S = 0 | Stoichiometry = C23H20ClN4Pt(1+) | MND = 4
 OpenBabel04212202133D

 49 54  0  0  0  0  0  0  0  0999 V2000
    9.9798   17.1593    8.4081 Pt  0  0  2  0  0  0  0  0  0  0  0  0
   10.1181   17.6999   10.5655 Cl  0  0  0  0  0  0  0  0  0  0  0  0
    9.0733   18.8184    7.7556 N   0  0  0  0  0  0  0  0  0  0  0  0
    9.8617   16.6982    6.5698 N   0  0  0  0  0  0  0  0  0  0  0  0
   10.8523   15.3622    8.5093 N   0  0  0  0  0  0  0  0  0  0  0  0
    9.3348   14.6351   -1.5481 N   0  0  0  0  0  0  0  0  0  0  0  0
    9.2896   17.5716    5.7238 C   0  0  0  0  0  0  0  0  0  0  0  0
    9.1881   17.2576    4.3819 C   0  0  0  0  0  0  0  0  0  0  0  0
    8.7066   17.9356    3.6981 H   0  0  0  0  0  0  0  0  0  0  0  0
    9.6867   16.0269    3.9076 C   0  0  0  0  0  0  0  0  0  0  0  0
   10.2791   15.1522    4.8412 C   0  0  0  0  0  0  0  0  0  0  0  0
   10.6944   14.2175    4.5053 H   0  0  0  0  0  0  0  0  0  0  0  0
   10.3531   15.5121    6.1731 C   0  0  0  0  0  0  0  0  0  0  0  0
    8.8362   18.7875    6.4140 C   0  0  0  0  0  0  0  0  0  0  0  0
    8.2105   19.8559    5.7821 C   0  0  0  0  0  0  0  0  0  0  0  0
    8.0264   19.8187    4.7210 H   0  0  0  0  0  0  0  0  0  0  0  0
    7.8266   20.9620    6.5225 C   0  0  0  0  0  0  0  0  0  0  0  0
    7.3404   21.7967    6.0426 H   0  0  0  0  0  0  0  0  0  0  0  0
    8.0785   20.9763    7.8862 C   0  0  0  0  0  0  0  0  0  0  0  0
    7.7973   21.8175    8.4978 H   0  0  0  0  0  0  0  0  0  0  0  0
    8.7035   19.8828    8.4621 C   0  0  0  0  0  3  0  0  0  0  0  0
    8.9190   19.8502    9.5230 H   0  0  0  0  0  0  0  0  0  0  0  0
   10.9257   14.7521    7.2932 C   0  0  0  0  0  0  0  0  0  0  0  0
   11.5069   13.4957    7.1663 C   0  0  0  0  0  0  0  0  0  0  0  0
   11.5615   13.0247    6.1986 H   0  0  0  0  0  0  0  0  0  0  0  0
   12.0143   12.8581    8.2866 C   0  0  0  0  0  0  0  0  0  0  0  0
   12.4680   11.8834    8.1998 H   0  0  0  0  0  0  0  0  0  0  0  0
   11.9279   13.4935    9.5163 C   0  0  0  0  0  0  0  0  0  0  0  0
   12.3088   13.0316   10.4120 H   0  0  0  0  0  0  0  0  0  0  0  0
   11.3395   14.7455    9.5821 C   0  0  0  0  0  0  0  0  0  0  0  0
   11.2515   15.2787   10.5207 H   0  0  0  0  0  0  0  0  0  0  0  0
    9.5942   15.6717    2.5096 C   0  0  0  0  0  0  0  0  0  0  0  0
    9.5679   16.6486    1.5022 C   0  0  0  0  0  0  0  0  0  0  0  0
    9.6635   17.6914    1.7648 H   0  0  0  0  0  0  0  0  0  0  0  0
    9.4923   16.3156    0.1754 C   0  0  0  0  0  0  0  0  0  0  0  0
    9.5162   17.1063   -0.5552 H   0  0  0  0  0  0  0  0  0  0  0  0
    9.4174   14.9693   -0.2413 C   0  0  0  0  0  0  0  0  0  0  0  0
    9.4330   13.9885    0.7733 C   0  0  0  0  0  0  0  0  0  0  0  0
    9.3450   12.9460    0.5180 H   0  0  0  0  0  0  0  0  0  0  0  0
    9.5276   14.3321    2.0960 C   0  0  0  0  0  0  0  0  0  0  0  0
    9.4949   13.5448    2.8339 H   0  0  0  0  0  0  0  0  0  0  0  0
    9.1299   15.6418   -2.5628 C   0  0  0  0  0  0  0  0  0  0  0  0
    8.3311   16.3255   -2.2711 H   0  0  0  0  0  0  0  0  0  0  0  0
    8.8360   15.1620   -3.4927 H   0  0  0  0  0  0  0  0  0  0  0  0
   10.0414   16.2192   -2.7456 H   0  0  0  0  0  0  0  0  0  0  0  0
    9.4498   13.2598   -1.9731 C   0  0  0  0  0  0  0  0  0  0  0  0
   10.2999   12.7768   -1.4885 H   0  0  0  0  0  0  0  0  0  0  0  0
    9.6142   13.2267   -3.0470 H   0  0  0  0  0  0  0  0  0  0  0  0
    8.5425   12.6918   -1.7455 H   0  0  0  0  0  0  0  0  0  0  0  0
  1  5  1  0  0  0  0
  1  2  1  1  0  0  0
  3  1  1  0  0  0  0
  3 21  1  0  0  0  0
  4  1  1  0  0  0  0
  5 30  1  0  0  0  0
  6 37  1  0  0  0  0
  7 14  1  0  0  0  0
  7  4  1  0  0  0  0
  8  7  2  0  0  0  0
  9  8  1  0  0  0  0
 10  8  1  0  0  0  0
 10 11  2  0  0  0  0
 11 13  1  0  0  0  0
 12 11  1  0  0  0  0
 13  4  1  0  0  0  0
 13 23  2  0  0  0  0
 14  3  1  0  0  0  0
 15 14  2  0  0  0  0
 15 17  1  0  0  0  0
 16 15  1  0  0  0  0
 17 19  2  0  0  0  0
 18 17  1  0  0  0  0
 19 21  1  0  0  0  0
 19 20  1  0  0  0  0
 21 22  1  0  0  0  0
 23  5  1  0  0  0  0
 24 23  1  0  0  0  0
 24 26  2  0  0  0  0
 25 24  1  0  0  0  0
 26 28  1  0  0  0  0
 27 26  1  0  0  0  0
 28 30  2  0  0  0  0
 28 29  1  0  0  0  0
 30 31  1  0  0  0  0
 32 10  1  0  0  0  0
 33 34  1  0  0  0  0
 33 32  2  0  0  0  0
 35 33  1  0  0  0  0
 36 35  1  0  0  0  0
 37 35  2  0  0  0  0
 37 38  1  0  0  0  0
 38 40  2  0  0  0  0
 39 38  1  0  0  0  0
 40 32  1  0  0  0  0
 40 41  1  0  0  0  0
 42 43  1  0  0  0  0
 42  6  1  0  0  0  0
 44 42  1  0  0  0  0
 45 42  1  0  0  0  0
 46 49  1  0  0  0  0
 46  6  1  0  0  0  0
 46 47  1  0  0  0  0
 48 46  1  0  0  0  0
M  END
$$$$
