CSD_code = ZONJOD | q = 1 | S = 0 | Stoichiometry = C21H13ClF2N3Pt(1+) | MND = 4
 OpenBabel04212202133D

 41 46  0  0  0  0  0  0  0  0999 V2000
    2.3138    0.5989    6.0845 Pt  0  0  1  0  0  0  0  0  0  0  0  0
    2.2776   -1.5477    5.5244 Cl  0  0  0  0  0  0  0  0  0  0  0  0
    3.5285    7.0847    5.6396 F   0  0  0  0  0  0  0  0  0  0  0  0
    2.5139   10.4621    8.7123 F   0  0  0  0  0  0  0  0  0  0  0  0
    1.9087    1.3668    4.2796 N   0  0  0  0  0  0  0  0  0  0  0  0
    2.3394    2.4329    6.5651 N   0  0  0  0  0  0  0  0  0  0  0  0
    2.7364    0.3746    8.0293 N   0  0  0  0  0  0  0  0  0  0  0  0
    1.8599    2.7282    4.2988 C   0  0  0  0  0  0  0  0  0  0  0  0
    1.6102    3.4465    3.1354 C   0  0  0  0  0  0  0  0  0  0  0  0
    1.5816    4.5233    3.1624 H   0  0  0  0  0  0  0  0  0  0  0  0
    1.4058    2.7685    1.9438 C   0  0  0  0  0  0  0  0  0  0  0  0
    1.2126    3.3140    1.0336 H   0  0  0  0  0  0  0  0  0  0  0  0
    1.4561    1.3828    1.9437 C   0  0  0  0  0  0  0  0  0  0  0  0
    1.3031    0.8181    1.0388 H   0  0  0  0  0  0  0  0  0  0  0  0
    1.7115    0.7211    3.1342 C   0  0  0  0  0  3  0  0  0  0  0  0
    1.7615   -0.3599    3.1785 H   0  0  0  0  0  0  0  0  0  0  0  0
    2.0980    3.3444    5.6111 C   0  0  0  0  0  0  0  0  0  0  0  0
    2.0998    4.6926    5.9366 C   0  0  0  0  0  0  0  0  0  0  0  0
    1.8900    5.4373    5.1881 H   0  0  0  0  0  0  0  0  0  0  0  0
    2.3689    5.0774    7.2559 C   0  0  0  0  0  0  0  0  0  0  0  0
    2.6161    4.0899    8.2182 C   0  0  0  0  0  0  0  0  0  0  0  0
    2.8432    4.3767    9.2313 H   0  0  0  0  0  0  0  0  0  0  0  0
    2.5931    2.7548    7.8429 C   0  0  0  0  0  0  0  0  0  0  0  0
    2.8264    1.5690    8.6789 C   0  0  0  0  0  0  0  0  0  0  0  0
    3.1220    1.6174   10.0361 C   0  0  0  0  0  0  0  0  0  0  0  0
    3.1920    2.5679   10.5391 H   0  0  0  0  0  0  0  0  0  0  0  0
    3.3284    0.4381   10.7347 C   0  0  0  0  0  0  0  0  0  0  0  0
    3.5601    0.4627   11.7878 H   0  0  0  0  0  0  0  0  0  0  0  0
    3.2324   -0.7678   10.0570 C   0  0  0  0  0  0  0  0  0  0  0  0
    3.3859   -1.7067   10.5628 H   0  0  0  0  0  0  0  0  0  0  0  0
    2.9341   -0.7540    8.7038 C   0  0  0  0  0  0  0  0  0  0  0  0
    2.8494   -1.6724    8.1360 H   0  0  0  0  0  0  0  0  0  0  0  0
    2.3995    6.4937    7.6354 C   0  0  0  0  0  0  0  0  0  0  0  0
    2.9744    7.4609    6.8062 C   0  0  0  0  0  0  0  0  0  0  0  0
    3.0310    8.7955    7.1521 C   0  0  0  0  0  0  0  0  0  0  0  0
    3.4938    9.5160    6.4974 H   0  0  0  0  0  0  0  0  0  0  0  0
    2.4780    9.1770    8.3632 C   0  0  0  0  0  0  0  0  0  0  0  0
    1.8902    8.2559    9.2173 C   0  0  0  0  0  0  0  0  0  0  0  0
    1.4642    8.5889   10.1496 H   0  0  0  0  0  0  0  0  0  0  0  0
    1.8635    6.9261    8.8508 C   0  0  0  0  0  0  0  0  0  0  0  0
    1.3883    6.2086    9.5014 H   0  0  0  0  0  0  0  0  0  0  0  0
  1  2  1  1  0  0  0
  1  6  1  0  0  0  0
  1  7  1  0  0  0  0
  3 34  1  0  0  0  0
  5  8  1  0  0  0  0
  5  1  1  0  0  0  0
  6 23  1  0  0  0  0
  7 24  1  0  0  0  0
  7 31  1  0  0  0  0
  8 17  1  0  0  0  0
  9 10  1  0  0  0  0
  9  8  2  0  0  0  0
 11  9  1  0  0  0  0
 12 11  1  0  0  0  0
 13 11  2  0  0  0  0
 13 15  1  0  0  0  0
 14 13  1  0  0  0  0
 15 16  1  0  0  0  0
 15  5  1  0  0  0  0
 17 18  2  0  0  0  0
 17  6  1  0  0  0  0
 18 20  1  0  0  0  0
 19 18  1  0  0  0  0
 20 33  1  0  0  0  0
 20 21  2  0  0  0  0
 21 22  1  0  0  0  0
 23 21  1  0  0  0  0
 23 24  2  0  0  0  0
 24 25  1  0  0  0  0
 25 26  1  0  0  0  0
 25 27  2  0  0  0  0
 27 28  1  0  0  0  0
 29 30  1  0  0  0  0
 29 27  1  0  0  0  0
 31 29  2  0  0  0  0
 32 31  1  0  0  0  0
 33 40  1  0  0  0  0
 34 35  1  0  0  0  0
 34 33  2  0  0  0  0
 35 37  2  0  0  0  0
 36 35  1  0  0  0  0
 37  4  1  0  0  0  0
 37 38  1  0  0  0  0
 38 39  1  0  0  0  0
 40 38  2  0  0  0  0
 40 41  1  0  0  0  0
M  END
$$$$
