CSD_code = ZONJUJ | q = 1 | S = 0 | Stoichiometry = C21H14Cl2N3Pt(1+) | MND = 4
 OpenBabel04212202133D

 41 46  0  0  0  0  0  0  0  0999 V2000
    0.3260    9.8747    1.4576 Pt  0  0  2  0  0  0  0  0  0  0  0  0
    2.0913    9.2673    0.2549 Cl  0  0  0  0  0  0  0  0  0  0  0  0
   -8.0841   12.7774    7.2203 Cl  0  0  0  0  0  0  0  0  0  0  0  0
    0.8456   11.7818    1.7743 N   0  0  0  0  0  0  0  0  0  0  0  0
   -1.1815   10.3942    2.4860 N   0  0  0  0  0  0  0  0  0  0  0  0
   -0.6407    8.1222    1.4444 N   0  0  0  0  0  0  0  0  0  0  0  0
   -0.0782   12.4515    2.5188 C   0  0  0  0  0  0  0  0  0  0  0  0
    0.1074   13.7905    2.8418 C   0  0  0  0  0  0  0  0  0  0  0  0
   -0.6306   14.3099    3.4307 H   0  0  0  0  0  0  0  0  0  0  0  0
    1.2438   14.4503    2.4010 C   0  0  0  0  0  0  0  0  0  0  0  0
    1.3988   15.4894    2.6446 H   0  0  0  0  0  0  0  0  0  0  0  0
    2.1729   13.7525    1.6443 C   0  0  0  0  0  0  0  0  0  0  0  0
    3.0692   14.2284    1.2820 H   0  0  0  0  0  0  0  0  0  0  0  0
    1.9344   12.4188    1.3540 C   0  0  0  0  0  3  0  0  0  0  0  0
    2.6333   11.8361    0.7666 H   0  0  0  0  0  0  0  0  0  0  0  0
   -1.2439   11.6578    2.9334 C   0  0  0  0  0  0  0  0  0  0  0  0
   -2.3332   12.0611    3.6896 C   0  0  0  0  0  0  0  0  0  0  0  0
   -2.4162   13.0755    4.0418 H   0  0  0  0  0  0  0  0  0  0  0  0
   -3.3541   11.1427    3.9746 C   0  0  0  0  0  0  0  0  0  0  0  0
   -3.2422    9.8340    3.4828 C   0  0  0  0  0  0  0  0  0  0  0  0
   -4.0078    9.1122    3.7124 H   0  0  0  0  0  0  0  0  0  0  0  0
   -2.1322    9.4795    2.7321 C   0  0  0  0  0  0  0  0  0  0  0  0
   -1.8160    8.1756    2.1316 C   0  0  0  0  0  0  0  0  0  0  0  0
   -2.6299    7.0534    2.2316 C   0  0  0  0  0  0  0  0  0  0  0  0
   -3.5572    7.1073    2.7778 H   0  0  0  0  0  0  0  0  0  0  0  0
   -2.2405    5.8686    1.6267 C   0  0  0  0  0  0  0  0  0  0  0  0
   -2.8636    4.9911    1.6974 H   0  0  0  0  0  0  0  0  0  0  0  0
   -1.0407    5.8331    0.9325 C   0  0  0  0  0  0  0  0  0  0  0  0
   -0.7014    4.9322    0.4485 H   0  0  0  0  0  0  0  0  0  0  0  0
   -0.2712    6.9834    0.8661 C   0  0  0  0  0  0  0  0  0  0  0  0
    0.6722    7.0006    0.3343 H   0  0  0  0  0  0  0  0  0  0  0  0
   -4.5134   11.5429    4.7702 C   0  0  0  0  0  0  0  0  0  0  0  0
   -4.3719   12.4301    5.8400 C   0  0  0  0  0  0  0  0  0  0  0  0
   -3.3939   12.8006    6.1073 H   0  0  0  0  0  0  0  0  0  0  0  0
   -5.4621   12.8040    6.5976 C   0  0  0  0  0  0  0  0  0  0  0  0
   -5.3425   13.4781    7.4305 H   0  0  0  0  0  0  0  0  0  0  0  0
   -6.7223   12.3067    6.2860 C   0  0  0  0  0  0  0  0  0  0  0  0
   -6.8829   11.4290    5.2198 C   0  0  0  0  0  0  0  0  0  0  0  0
   -7.8640   11.0529    4.9782 H   0  0  0  0  0  0  0  0  0  0  0  0
   -5.7859   11.0466    4.4765 C   0  0  0  0  0  0  0  0  0  0  0  0
   -5.9256   10.3862    3.6341 H   0  0  0  0  0  0  0  0  0  0  0  0
  1  2  1  1  0  0  0
  1  4  1  0  0  0  0
  1  5  1  0  0  0  0
  4  7  1  0  0  0  0
  5 22  1  0  0  0  0
  5 16  1  0  0  0  0
  6  1  1  0  0  0  0
  6 23  1  0  0  0  0
  7  8  2  0  0  0  0
  7 16  1  0  0  0  0
  8  9  1  0  0  0  0
 10 11  1  0  0  0  0
 10  8  1  0  0  0  0
 12 10  2  0  0  0  0
 13 12  1  0  0  0  0
 14 12  1  0  0  0  0
 14  4  1  0  0  0  0
 15 14  1  0  0  0  0
 16 17  2  0  0  0  0
 17 19  1  0  0  0  0
 17 18  1  0  0  0  0
 19 32  1  0  0  0  0
 20 21  1  0  0  0  0
 20 19  2  0  0  0  0
 22 20  1  0  0  0  0
 23 24  1  0  0  0  0
 23 22  2  0  0  0  0
 24 25  1  0  0  0  0
 26 27  1  0  0  0  0
 26 24  2  0  0  0  0
 28 26  1  0  0  0  0
 29 28  1  0  0  0  0
 30 28  2  0  0  0  0
 30  6  1  0  0  0  0
 31 30  1  0  0  0  0
 32 33  1  0  0  0  0
 33 34  1  0  0  0  0
 33 35  2  0  0  0  0
 35 36  1  0  0  0  0
 37 35  1  0  0  0  0
 37  3  1  0  0  0  0
 38 37  2  0  0  0  0
 39 38  1  0  0  0  0
 40 32  2  0  0  0  0
 40 38  1  0  0  0  0
 41 40  1  0  0  0  0
M  END
$$$$
