CSD_code = ZONKAQ | q = 1 | S = 0 | Stoichiometry = C21H14BrClN3Pt(1+) | MND = 4
 OpenBabel04212202133D

 41 46  0  0  0  0  0  0  0  0999 V2000
    0.1013   11.8280   12.7046 Pt  0  0  1  0  0  0  0  0  0  0  0  0
    8.7076    8.8820    6.9322 Br  0  0  0  0  0  0  0  0  0  0  0  0
   -1.6763   12.4374   13.8858 Cl  0  0  0  0  0  0  0  0  0  0  0  0
   -0.4054    9.9155   12.4002 N   0  0  0  0  0  0  0  0  0  0  0  0
    1.6203   11.3082   11.6943 N   0  0  0  0  0  0  0  0  0  0  0  0
    1.0587   13.5858   12.7122 N   0  0  0  0  0  0  0  0  0  0  0  0
    0.5305    9.2433   11.6732 C   0  0  0  0  0  0  0  0  0  0  0  0
    0.3564    7.8997   11.3632 C   0  0  0  0  0  0  0  0  0  0  0  0
    1.1042    7.3781   10.7888 H   0  0  0  0  0  0  0  0  0  0  0  0
   -0.7811    7.2380   11.7982 C   0  0  0  0  0  0  0  0  0  0  0  0
   -0.9270    6.1953   11.5645 H   0  0  0  0  0  0  0  0  0  0  0  0
   -1.7231    7.9388   12.5358 C   0  0  0  0  0  0  0  0  0  0  0  0
   -2.6211    7.4619   12.8926 H   0  0  0  0  0  0  0  0  0  0  0  0
   -1.4955    9.2768   12.8145 C   0  0  0  0  0  3  0  0  0  0  0  0
   -2.2044    9.8617   13.3875 H   0  0  0  0  0  0  0  0  0  0  0  0
    1.6948   10.0401   11.2613 C   0  0  0  0  0  0  0  0  0  0  0  0
    2.7933    9.6363   10.5183 C   0  0  0  0  0  0  0  0  0  0  0  0
    2.8865    8.6186   10.1788 H   0  0  0  0  0  0  0  0  0  0  0  0
    3.8084   10.5596   10.2308 C   0  0  0  0  0  0  0  0  0  0  0  0
    3.6846   11.8723   10.7066 C   0  0  0  0  0  0  0  0  0  0  0  0
    4.4463   12.5977   10.4749 H   0  0  0  0  0  0  0  0  0  0  0  0
    2.5666   12.2270   11.4459 C   0  0  0  0  0  0  0  0  0  0  0  0
    2.2388   13.5339   12.0330 C   0  0  0  0  0  0  0  0  0  0  0  0
    3.0478   14.6595   11.9308 C   0  0  0  0  0  0  0  0  0  0  0  0
    3.9785   14.6069   11.3900 H   0  0  0  0  0  0  0  0  0  0  0  0
    2.6500   15.8455   12.5277 C   0  0  0  0  0  0  0  0  0  0  0  0
    3.2698   16.7253   12.4560 H   0  0  0  0  0  0  0  0  0  0  0  0
    1.4464   15.8790   13.2153 C   0  0  0  0  0  0  0  0  0  0  0  0
    1.1013   16.7806   13.6938 H   0  0  0  0  0  0  0  0  0  0  0  0
    0.6810   14.7259   13.2824 C   0  0  0  0  0  0  0  0  0  0  0  0
   -0.2657   14.7076   13.8083 H   0  0  0  0  0  0  0  0  0  0  0  0
    4.9767   10.1594    9.4460 C   0  0  0  0  0  0  0  0  0  0  0  0
    4.8445    9.2683    8.3786 C   0  0  0  0  0  0  0  0  0  0  0  0
    3.8702    8.8921    8.1062 H   0  0  0  0  0  0  0  0  0  0  0  0
    5.9416    8.8950    7.6300 C   0  0  0  0  0  0  0  0  0  0  0  0
    5.8313    8.2165    6.7990 H   0  0  0  0  0  0  0  0  0  0  0  0
    7.1938    9.4006    7.9522 C   0  0  0  0  0  0  0  0  0  0  0  0
    7.3486   10.2809    9.0146 C   0  0  0  0  0  0  0  0  0  0  0  0
    8.3269   10.6618    9.2612 H   0  0  0  0  0  0  0  0  0  0  0  0
    6.2444   10.6612    9.7492 C   0  0  0  0  0  0  0  0  0  0  0  0
    6.3758   11.3256   10.5896 H   0  0  0  0  0  0  0  0  0  0  0  0
  1  6  1  0  0  0  0
  1  3  1  6  0  0  0
  2 37  1  0  0  0  0
  4  1  1  0  0  0  0
  4 14  1  0  0  0  0
  5  1  1  0  0  0  0
  6 30  1  0  0  0  0
  7  4  1  0  0  0  0
  8  7  2  0  0  0  0
  8 10  1  0  0  0  0
  9  8  1  0  0  0  0
 10 12  2  0  0  0  0
 11 10  1  0  0  0  0
 12 14  1  0  0  0  0
 12 13  1  0  0  0  0
 14 15  1  0  0  0  0
 16  7  1  0  0  0  0
 16  5  1  0  0  0  0
 17 16  2  0  0  0  0
 18 17  1  0  0  0  0
 19 17  1  0  0  0  0
 19 20  2  0  0  0  0
 20 22  1  0  0  0  0
 21 20  1  0  0  0  0
 22  5  1  0  0  0  0
 22 23  2  0  0  0  0
 23  6  1  0  0  0  0
 24 23  1  0  0  0  0
 24 26  2  0  0  0  0
 25 24  1  0  0  0  0
 26 28  1  0  0  0  0
 27 26  1  0  0  0  0
 28 30  2  0  0  0  0
 28 29  1  0  0  0  0
 30 31  1  0  0  0  0
 32 40  1  0  0  0  0
 32 19  1  0  0  0  0
 33 32  2  0  0  0  0
 34 33  1  0  0  0  0
 35 37  2  0  0  0  0
 35 33  1  0  0  0  0
 36 35  1  0  0  0  0
 37 38  1  0  0  0  0
 38 39  1  0  0  0  0
 38 40  2  0  0  0  0
 40 41  1  0  0  0  0
M  END
$$$$
