CSD_code = ZONPEZ | q = 0 | S = 0 | Stoichiometry = C16H23BrNiO3S2 | MND = 4
 OpenBabel04212202133D

 46 49  0  0  0  0  0  0  0  0999 V2000
    7.7849    6.2452   13.5033 Ni  0  0  2  0  0  0  0  0  0  0  0  0
    9.5178    5.0131   14.2035 Br  0  0  0  0  0  0  0  0  0  0  0  0
    6.6597    4.5197   12.7713 S   0  0  1  0  0  3  0  0  0  0  0  0
    8.9131    8.1158   13.6069 S   0  0  1  0  0  3  0  0  0  0  0  0
    7.6003    9.3787   13.4060 C   0  0  0  0  0  0  0  0  0  0  0  0
    7.6053   10.0194   14.2879 H   0  0  0  0  0  0  0  0  0  0  0  0
    7.8829    9.9793   12.5371 H   0  0  0  0  0  0  0  0  0  0  0  0
    5.7299    3.2385   16.4510 O   0  0  0  0  0  0  0  0  0  0  0  0
    8.6274    8.3027   17.5961 O   0  0  0  0  0  0  0  0  0  0  0  0
    6.3746    3.4419   14.1986 C   0  0  0  0  0  0  0  0  0  0  0  0
    5.5645    2.7602   13.9394 H   0  0  0  0  0  0  0  0  0  0  0  0
    7.2944    2.8725   14.3339 H   0  0  0  0  0  0  0  0  0  0  0  0
    6.2451    7.3024   13.0962 C   0  0  0  0  0  0  0  0  0  0  0  0
    5.0264    6.7025   12.7462 C   0  0  0  0  0  0  0  0  0  0  0  0
    5.4895    3.7613   17.7315 C   0  0  0  0  0  0  0  0  0  0  0  0
    5.1035    2.9178   18.3071 H   0  0  0  0  0  0  0  0  0  0  0  0
    4.7302    4.5558   17.6907 H   0  0  0  0  0  0  0  0  0  0  0  0
    3.8810    7.4679   12.5683 C   0  0  0  0  0  0  0  0  0  0  0  0
    2.9531    6.9786   12.3070 H   0  0  0  0  0  0  0  0  0  0  0  0
    5.1324    9.4584   12.9981 C   0  0  0  0  0  0  0  0  0  0  0  0
    5.1891   10.5352   13.0753 H   0  0  0  0  0  0  0  0  0  0  0  0
    6.2839    8.7026   13.1770 C   0  0  0  0  0  0  0  0  0  0  0  0
    6.7385    4.3241   18.4184 C   0  0  0  0  0  0  0  0  0  0  0  0
    6.6495    4.1876   19.5064 H   0  0  0  0  0  0  0  0  0  0  0  0
    7.6285    3.7798   18.0716 H   0  0  0  0  0  0  0  0  0  0  0  0
    6.0495    4.2032   15.4726 C   0  0  0  0  0  0  0  0  0  0  0  0
    6.9193    4.8084   15.7736 H   0  0  0  0  0  0  0  0  0  0  0  0
    5.1944    4.8849   15.3306 H   0  0  0  0  0  0  0  0  0  0  0  0
    9.3381    8.3319   15.3540 C   0  0  0  0  0  0  0  0  0  0  0  0
   10.2182    7.7127   15.5286 H   0  0  0  0  0  0  0  0  0  0  0  0
    9.6011    9.3794   15.5020 H   0  0  0  0  0  0  0  0  0  0  0  0
    8.2207    7.9232   16.2992 C   0  0  0  0  0  0  0  0  0  0  0  0
    7.2732    8.4275   16.0458 H   0  0  0  0  0  0  0  0  0  0  0  0
    8.0561    6.8358   16.2307 H   0  0  0  0  0  0  0  0  0  0  0  0
    4.9864    5.2234   12.5152 C   0  0  0  0  0  0  0  0  0  0  0  0
    4.7091    4.9982   11.4819 H   0  0  0  0  0  0  0  0  0  0  0  0
    4.2948    4.7074   13.1813 H   0  0  0  0  0  0  0  0  0  0  0  0
    3.9286    8.8415   12.7139 C   0  0  0  0  0  0  0  0  0  0  0  0
    3.0341    9.4320   12.5838 H   0  0  0  0  0  0  0  0  0  0  0  0
    6.8505    5.7006   18.1273 O   0  0  0  0  0  0  0  0  0  0  0  0
    7.7883    7.8549   18.6292 C   0  0  0  0  0  0  0  0  0  0  0  0
    6.7419    8.1234   18.4256 H   0  0  0  0  0  0  0  0  0  0  0  0
    8.1342    8.3873   19.5173 H   0  0  0  0  0  0  0  0  0  0  0  0
    7.8606    6.3435   18.8740 C   0  0  0  0  0  0  0  0  0  0  0  0
    8.8540    5.9704   18.5860 H   0  0  0  0  0  0  0  0  0  0  0  0
    7.7097    6.1374   19.9442 H   0  0  0  0  0  0  0  0  0  0  0  0
  1  4  1  0  0  0  0
  1  2  1  1  0  0  0
  3 35  1  1  0  0  0
  3  1  1  0  0  0  0
  3 10  1  0  0  0  0
  4  5  1  1  0  0  0
  4 29  1  0  0  0  0
  5  6  1  0  0  0  0
  7  5  1  0  0  0  0
  8 15  1  0  0  0  0
  9 41  1  0  0  0  0
 10 12  1  0  0  0  0
 10 26  1  0  0  0  0
 11 10  1  0  0  0  0
 13 22  1  0  0  0  0
 13  1  1  0  0  0  0
 14 13  2  0  0  0  0
 15 16  1  0  0  0  0
 15 23  1  0  0  0  0
 17 15  1  0  0  0  0
 18 38  2  0  0  0  0
 18 14  1  0  0  0  0
 19 18  1  0  0  0  0
 20 21  1  0  0  0  0
 20 22  2  0  0  0  0
 22  5  1  0  0  0  0
 23 24  1  0  0  0  0
 25 23  1  0  0  0  0
 26 27  1  0  0  0  0
 26  8  1  0  0  0  0
 28 26  1  0  0  0  0
 29 31  1  0  0  0  0
 29 30  1  0  0  0  0
 29 32  1  0  0  0  0
 32  9  1  0  0  0  0
 33 32  1  0  0  0  0
 34 32  1  0  0  0  0
 35 14  1  0  0  0  0
 35 37  1  0  0  0  0
 36 35  1  0  0  0  0
 38 20  1  0  0  0  0
 39 38  1  0  0  0  0
 40 23  1  0  0  0  0
 40 44  1  0  0  0  0
 41 44  1  0  0  0  0
 41 43  1  0  0  0  0
 42 41  1  0  0  0  0
 44 46  1  0  0  0  0
 45 44  1  0  0  0  0
M  END
$$$$
