CSD_code = ZOPJAS | q = 0 | S = 0 | Stoichiometry = C22H36Cl2O4Ti | MND = 6
 OpenBabel04212202133D

 65 66  0  0  0  0  0  0  0  0999 V2000
    4.7778   12.6325    7.8039 Ti  0  0  0  0  0  0  0  0  0  0  0  0
    2.8525   11.6057    7.2105 Cl  0  0  0  0  0  0  0  0  0  0  0  0
    3.8121   14.5521    8.4829 Cl  0  0  0  0  0  0  0  0  0  0  0  0
    5.6892   11.1709    7.3238 O   0  0  0  0  0  0  0  0  0  0  0  0
    6.3961   13.2802    8.1988 O   0  0  0  0  0  0  0  0  0  0  0  0
    4.8631   13.4016    5.9690 O   0  0  0  0  0  0  0  0  0  0  0  0
    4.5158   11.9348    9.6497 O   0  0  0  0  0  0  0  0  0  0  0  0
    7.0109   11.2202    7.4643 C   0  0  0  0  0  0  0  0  0  0  0  0
    7.4304   12.4728    7.9791 C   0  0  0  0  0  0  0  0  0  0  0  0
    8.7800   12.7592    8.2036 C   0  0  0  0  0  0  0  0  0  0  0  0
    9.6744   11.7402    7.8970 C   0  0  0  0  0  0  0  0  0  0  0  0
   10.7306   11.8931    8.0469 H   0  0  0  0  0  0  0  0  0  0  0  0
    9.2638   10.5124    7.3986 C   0  0  0  0  0  0  0  0  0  0  0  0
   10.0236    9.7774    7.1893 H   0  0  0  0  0  0  0  0  0  0  0  0
    7.9276   10.2084    7.1642 C   0  0  0  0  0  0  0  0  0  0  0  0
    9.1771   14.1220    8.7470 C   0  0  0  0  0  0  0  0  0  0  0  0
    8.4916   14.3295   10.1052 C   0  0  0  0  0  0  0  0  0  0  0  0
    7.4095   14.2996    9.9872 H   0  0  0  0  0  0  0  0  0  0  0  0
    8.7648   15.2974   10.5203 H   0  0  0  0  0  0  0  0  0  0  0  0
    8.7963   13.5526   10.8053 H   0  0  0  0  0  0  0  0  0  0  0  0
    8.6926   15.1998    7.7662 C   0  0  0  0  0  0  0  0  0  0  0  0
    9.1435   15.0494    6.7861 H   0  0  0  0  0  0  0  0  0  0  0  0
    8.9685   16.1884    8.1273 H   0  0  0  0  0  0  0  0  0  0  0  0
    7.6086   15.1590    7.6704 H   0  0  0  0  0  0  0  0  0  0  0  0
   10.6896   14.2627    8.9295 C   0  0  0  0  0  0  0  0  0  0  0  0
   11.2095   14.1437    7.9818 H   0  0  0  0  0  0  0  0  0  0  0  0
   11.0670   13.5277    9.6364 H   0  0  0  0  0  0  0  0  0  0  0  0
   10.9165   15.2535    9.3178 H   0  0  0  0  0  0  0  0  0  0  0  0
    7.4309    8.8788    6.6200 C   0  0  0  0  0  0  0  0  0  0  0  0
    6.4699    8.2577    7.6438 C   0  0  0  0  0  0  0  0  0  0  0  0
    6.9782    8.1038    8.5947 H   0  0  0  0  0  0  0  0  0  0  0  0
    6.1066    7.2971    7.2845 H   0  0  0  0  0  0  0  0  0  0  0  0
    5.6140    8.9131    7.7973 H   0  0  0  0  0  0  0  0  0  0  0  0
    6.6734    9.1350    5.3093 C   0  0  0  0  0  0  0  0  0  0  0  0
    7.3271    9.6150    4.5824 H   0  0  0  0  0  0  0  0  0  0  0  0
    5.8133    9.7762    5.4951 H   0  0  0  0  0  0  0  0  0  0  0  0
    6.3175    8.1960    4.8906 H   0  0  0  0  0  0  0  0  0  0  0  0
    8.5694    7.8935    6.3487 C   0  0  0  0  0  0  0  0  0  0  0  0
    9.2610    8.2909    5.6095 H   0  0  0  0  0  0  0  0  0  0  0  0
    8.1584    6.9632    5.9617 H   0  0  0  0  0  0  0  0  0  0  0  0
    9.1158    7.6679    7.2614 H   0  0  0  0  0  0  0  0  0  0  0  0
    5.9682   13.2703    5.0639 C   0  0  0  0  0  0  0  0  0  0  0  0
    6.0843   12.2037    4.8210 H   0  0  0  0  0  0  0  0  0  0  0  0
    6.8785   13.6272    5.5624 H   0  0  0  0  0  0  0  0  0  0  0  0
    5.6040   14.0881    3.8255 C   0  0  0  0  0  0  0  0  0  0  0  0
    6.0396   13.6726    2.9200 H   0  0  0  0  0  0  0  0  0  0  0  0
    5.9380   15.1205    3.9385 H   0  0  0  0  0  0  0  0  0  0  0  0
    4.0789   14.0228    3.8459 C   0  0  0  0  0  0  0  0  0  0  0  0
    3.6075   14.8200    3.2770 H   0  0  0  0  0  0  0  0  0  0  0  0
    3.7330   13.0587    3.4700 H   0  0  0  0  0  0  0  0  0  0  0  0
    3.7992   14.1334    5.3387 C   0  0  0  0  0  0  0  0  0  0  0  0
    3.8390   15.1777    5.6821 H   0  0  0  0  0  0  0  0  0  0  0  0
    2.8485   13.6840    5.6465 H   0  0  0  0  0  0  0  0  0  0  0  0
    3.3121   12.0855   10.4187 C   0  0  0  0  0  0  0  0  0  0  0  0
    2.4604   11.9689    9.7395 H   0  0  0  0  0  0  0  0  0  0  0  0
    3.2956   13.0940   10.8579 H   0  0  0  0  0  0  0  0  0  0  0  0
    3.4016   11.0087   11.4915 C   0  0  0  0  0  0  0  0  0  0  0  0
    3.1201   10.0402   11.0752 H   0  0  0  0  0  0  0  0  0  0  0  0
    2.7728   11.2267   12.3508 H   0  0  0  0  0  0  0  0  0  0  0  0
    4.8937   11.0390   11.8135 C   0  0  0  0  0  0  0  0  0  0  0  0
    5.1191   11.8808   12.4697 H   0  0  0  0  0  0  0  0  0  0  0  0
    5.2513   10.1234   12.2785 H   0  0  0  0  0  0  0  0  0  0  0  0
    5.5107   11.2587   10.4319 C   0  0  0  0  0  0  0  0  0  0  0  0
    6.4185   11.8747   10.4624 H   0  0  0  0  0  0  0  0  0  0  0  0
    5.7394   10.3042    9.9357 H   0  0  0  0  0  0  0  0  0  0  0  0
  1  5  1  0  0  0  0
  1  3  1  0  0  0  0
  2  1  1  0  0  0  0
  4  8  1  0  0  0  0
  4  1  1  0  0  0  0
  7 54  1  0  0  0  0
  7 63  1  0  0  0  0
  8  9  1  0  0  0  0
  9  5  1  0  0  0  0
  9 10  2  0  0  0  0
 10 16  1  0  0  0  0
 11 12  1  0  0  0  0
 11 10  1  0  0  0  0
 13 11  2  0  0  0  0
 14 13  1  0  0  0  0
 15 13  1  0  0  0  0
 15  8  2  0  0  0  0
 16 25  1  0  0  0  0
 16 17  1  0  0  0  0
 17 19  1  0  0  0  0
 17 20  1  0  0  0  0
 18 17  1  0  0  0  0
 21 23  1  0  0  0  0
 21 16  1  0  0  0  0
 22 21  1  0  0  0  0
 24 21  1  0  0  0  0
 25 28  1  0  0  0  0
 25 27  1  0  0  0  0
 26 25  1  0  0  0  0
 29 15  1  0  0  0  0
 29 30  1  0  0  0  0
 30 33  1  0  0  0  0
 30 31  1  0  0  0  0
 32 30  1  0  0  0  0
 34 36  1  0  0  0  0
 34 29  1  0  0  0  0
 35 34  1  0  0  0  0
 37 34  1  0  0  0  0
 38 29  1  0  0  0  0
 38 41  1  0  0  0  0
 39 38  1  0  0  0  0
 40 38  1  0  0  0  0
 42 44  1  0  0  0  0
 42  6  1  0  0  0  0
 43 42  1  0  0  0  0
 45 48  1  0  0  0  0
 45 47  1  0  0  0  0
 45 42  1  0  0  0  0
 46 45  1  0  0  0  0
 48 51  1  0  0  0  0
 49 48  1  0  0  0  0
 50 48  1  0  0  0  0
 51 53  1  0  0  0  0
 51 52  1  0  0  0  0
 51  6  1  0  0  0  0
 54 56  1  0  0  0  0
 54 57  1  0  0  0  0
 55 54  1  0  0  0  0
 57 60  1  0  0  0  0
 57 59  1  0  0  0  0
 58 57  1  0  0  0  0
 60 62  1  0  0  0  0
 60 61  1  0  0  0  0
 63 64  1  0  0  0  0
 63 60  1  0  0  0  0
 65 63  1  0  0  0  0
M  END
$$$$
