CSD_code = ZOPRIH | q = 0 | S = 0 | Stoichiometry = C29H31AuClN2O2P | MND = 2
 OpenBabel04212202133D

 67 70  0  0  1  0  0  0  0  0999 V2000
    3.7413    1.6112    4.5003 C   0  0  1  0  0  3  0  0  0  0  0  0
    5.8820    1.5958    5.6631 C   0  0  0  0  0  0  0  0  0  0  0  0
    6.1023    0.3351    5.0940 C   0  0  2  0  0  3  0  0  0  0  0  0
    5.1906   -0.3353    4.2725 C   0  0  0  0  0  0  0  0  0  0  0  0
    7.3907   -0.3578    5.4279 C   0  0  0  0  0  0  0  0  0  0  0  0
    8.1854    0.0110    4.7791 H   0  0  0  0  0  0  0  0  0  0  0  0
    7.2826   -1.4280    5.2729 H   0  0  0  0  0  0  0  0  0  0  0  0
    7.6710   -0.1461    6.4573 H   0  0  0  0  0  0  0  0  0  0  0  0
    4.4022    3.6110    5.7236 C   0  0  0  0  0  0  0  0  0  0  0  0
    3.4861    3.9644    5.2350 H   0  0  0  0  0  0  0  0  0  0  0  0
    5.5519    4.5213    5.2952 C   0  0  0  0  0  0  0  0  0  0  0  0
    6.4523    4.2774    5.8495 H   0  0  0  0  0  0  0  0  0  0  0  0
    5.2805    5.5571    5.4863 H   0  0  0  0  0  0  0  0  0  0  0  0
    5.7630    4.3960    4.2328 H   0  0  0  0  0  0  0  0  0  0  0  0
    4.1930    3.6423    7.2355 C   0  0  0  0  0  0  0  0  0  0  0  0
    3.3442    3.0240    7.5205 H   0  0  0  0  0  0  0  0  0  0  0  0
    4.0018    4.6643    7.5517 H   0  0  0  0  0  0  0  0  0  0  0  0
    5.0862    3.2773    7.7333 H   0  0  0  0  0  0  0  0  0  0  0  0
    2.9656   -0.2434    3.1340 C   0  0  0  0  0  0  0  0  0  0  0  0
    2.1609    0.4823    2.9701 H   0  0  0  0  0  0  0  0  0  0  0  0
    2.3790   -1.4676    3.8317 C   0  0  0  0  0  0  0  0  0  0  0  0
    3.1629   -2.1979    4.0080 H   0  0  0  0  0  0  0  0  0  0  0  0
    1.6142   -1.9111    3.1998 H   0  0  0  0  0  0  0  0  0  0  0  0
    1.9299   -1.1867    4.7828 H   0  0  0  0  0  0  0  0  0  0  0  0
    3.5693   -0.5946    1.7759 C   0  0  0  0  0  0  0  0  0  0  0  0
    4.0781    0.2722    1.3532 H   0  0  0  0  0  0  0  0  0  0  0  0
    2.7767   -0.9012    1.0975 H   0  0  0  0  0  0  0  0  0  0  0  0
    4.2903   -1.3985    1.8834 H   0  0  0  0  0  0  0  0  0  0  0  0
    2.3745    2.2056    4.4046 C   0  0  0  0  0  0  0  0  0  0  0  0
    1.9215    2.9926    3.3422 C   0  0  0  0  0  0  0  0  0  0  0  0
    0.6479    3.5561    3.3971 C   0  0  0  0  0  0  0  0  0  0  0  0
    0.3158    4.1836    2.5811 H   0  0  0  0  0  0  0  0  0  0  0  0
   -0.1796    3.3215    4.4790 C   0  0  0  0  0  0  0  0  0  0  0  0
   -1.1635    3.7638    4.5100 H   0  0  0  0  0  0  0  0  0  0  0  0
    0.2554    2.5124    5.5167 C   0  0  0  0  0  0  0  0  0  0  0  0
   -0.3902    2.3142    6.3582 H   0  0  0  0  0  0  0  0  0  0  0  0
    1.5248    1.9639    5.4818 C   0  0  0  0  0  0  0  0  0  0  0  0
    1.8702    1.3407    6.2935 H   0  0  0  0  0  0  0  0  0  0  0  0
    2.1194    2.2906    0.5717 C   0  0  0  0  0  0  0  0  0  0  0  0
    0.8924    1.6537    0.7159 C   0  0  0  0  0  0  0  0  0  0  0  0
    0.3404    1.7247    1.6428 H   0  0  0  0  0  0  0  0  0  0  0  0
    0.3749    0.9216   -0.3389 C   0  0  0  0  0  0  0  0  0  0  0  0
   -0.5770    0.4243   -0.2253 H   0  0  0  0  0  0  0  0  0  0  0  0
    1.0716    0.8220   -1.5316 C   0  0  0  0  0  0  0  0  0  0  0  0
    0.6628    0.2452   -2.3473 H   0  0  0  0  0  0  0  0  0  0  0  0
    2.2968    1.4549   -1.6771 C   0  0  0  0  0  0  0  0  0  0  0  0
    2.8443    1.3729   -2.6036 H   0  0  0  0  0  0  0  0  0  0  0  0
    2.8233    2.1809   -0.6269 C   0  0  0  0  0  0  0  0  0  0  0  0
    3.7880    2.6659   -0.7185 H   0  0  0  0  0  0  0  0  0  0  0  0
    2.5587    4.9744    1.4539 C   0  0  0  0  0  0  0  0  0  0  0  0
    1.8212    5.3552    0.3392 C   0  0  0  0  0  0  0  0  0  0  0  0
    1.4216    4.6063   -0.3305 H   0  0  0  0  0  0  0  0  0  0  0  0
    1.6042    6.7000    0.0919 C   0  0  0  0  0  0  0  0  0  0  0  0
    1.0318    6.9975   -0.7741 H   0  0  0  0  0  0  0  0  0  0  0  0
    2.1190    7.6601    0.9468 C   0  0  0  0  0  0  0  0  0  0  0  0
    1.9475    8.7068    0.7464 H   0  0  0  0  0  0  0  0  0  0  0  0
    2.8619    7.2811    2.0549 C   0  0  0  0  0  0  0  0  0  0  0  0
    3.2708    8.0301    2.7160 H   0  0  0  0  0  0  0  0  0  0  0  0
    3.0880    5.9422    2.3057 C   0  0  0  0  0  0  0  0  0  0  0  0
    3.6809    5.6326    3.1571 H   0  0  0  0  0  0  0  0  0  0  0  0
    4.6341    2.2348    5.2606 N   0  0  0  0  0  0  0  0  0  0  0  0
    3.9639    0.4052    3.9931 N   0  0  0  0  0  0  0  0  0  0  0  0
    6.5865    2.1749    6.4714 O   0  0  0  0  0  0  0  0  0  0  0  0
    5.2903   -1.4642    3.8189 O   0  0  0  0  0  0  0  0  0  0  0  0
    2.9536    3.2511    1.8649 P   0  0  0  0  0  4  0  0  0  0  0  0
    7.3981    2.5862    2.0657 Cl  0  0  0  0  0  0  0  0  0  0  0  0
    5.1656    2.8976    1.9800 Au  0  0  0  0  0  0  0  0  0  0  0  0
  1 29  1  1  0  0  0
  1 61  1  0  0  0  0
  2 63  2  0  0  0  0
  3  5  1  1  0  0  0
  3  2  1  0  0  0  0
  4  3  1  0  0  0  0
  5  8  1  0  0  0  0
  6  5  1  0  0  0  0
  7  5  1  0  0  0  0
  9 15  1  0  0  0  0
 10  9  1  0  0  0  0
 11 13  1  0  0  0  0
 11  9  1  0  0  0  0
 11 12  1  0  0  0  0
 14 11  1  0  0  0  0
 15 16  1  0  0  0  0
 15 17  1  0  0  0  0
 15 18  1  0  0  0  0
 19 21  1  0  0  0  0
 19 62  1  0  0  0  0
 20 19  1  0  0  0  0
 21 22  1  0  0  0  0
 21 24  1  0  0  0  0
 23 21  1  0  0  0  0
 25 28  1  0  0  0  0
 25 19  1  0  0  0  0
 26 25  1  0  0  0  0
 27 25  1  0  0  0  0
 29 37  1  0  0  0  0
 30 31  1  0  0  0  0
 30 29  2  0  0  0  0
 31 33  2  0  0  0  0
 32 31  1  0  0  0  0
 33 34  1  0  0  0  0
 33 35  1  0  0  0  0
 35 36  1  0  0  0  0
 37 35  2  0  0  0  0
 37 38  1  0  0  0  0
 39 40  1  0  0  0  0
 39 65  1  0  0  0  0
 40 41  1  0  0  0  0
 42 43  1  0  0  0  0
 42 40  2  0  0  0  0
 44 42  1  0  0  0  0
 45 44  1  0  0  0  0
 46 44  2  0  0  0  0
 46 48  1  0  0  0  0
 47 46  1  0  0  0  0
 48 39  2  0  0  0  0
 49 48  1  0  0  0  0
 50 65  1  0  0  0  0
 50 59  1  0  0  0  0
 51 50  2  0  0  0  0
 52 51  1  0  0  0  0
 53 51  1  0  0  0  0
 53 55  2  0  0  0  0
 54 53  1  0  0  0  0
 55 57  1  0  0  0  0
 56 55  1  0  0  0  0
 57 59  2  0  0  0  0
 57 58  1  0  0  0  0
 59 60  1  0  0  0  0
 61  2  1  0  0  0  0
 61  9  1  0  0  0  0
 62  4  1  0  0  0  0
 62  1  1  0  0  0  0
 64  4  2  0  0  0  0
 65 67  1  0  0  0  0
 65 30  1  0  0  0  0
 67 66  1  0  0  0  0
M  END
$$$$
