CSD_code = ZOQHIW | q = 0 | S = 0 | Stoichiometry = C10H15F5W | MND = 10
 OpenBabel04212202133D

 31 31  0  0  1  0  0  0  0  0999 V2000
   10.9062    3.3666    3.3665 W   0  0  0  0  0  0  0  0  0  0  0  0
    9.1719    4.1740    3.3515 F   0  0  0  0  0  0  0  0  0  0  0  0
    9.9127    2.0740    4.3179 F   0  0  0  0  0  0  0  0  0  0  0  0
   10.9841    4.3503    4.9786 F   0  0  0  0  0  0  0  0  0  0  0  0
   11.2863    4.9871    2.4767 F   0  0  0  0  0  0  0  0  0  0  0  0
   10.2122    2.6772    1.7552 F   0  0  0  0  0  0  0  0  0  0  0  0
   12.2925    1.3615    3.5549 C   0  0  0  0  0  0  0  0  0  0  0  0
   12.6916    2.3422    4.5132 C   0  0  2  0  0  3  0  0  0  0  0  0
   13.2187    3.4618    3.7955 C   0  0  1  0  0  0  0  0  0  0  0  0
   13.1408    3.1608    2.4006 C   0  0  2  0  0  3  0  0  0  0  0  0
   12.5865    1.8608    2.2580 C   0  0  0  0  0  0  0  0  0  0  0  0
   11.7891   -0.0294    3.8475 C   0  0  0  0  0  0  0  0  0  0  0  0
   12.5976    2.1653    6.0130 C   0  0  0  0  0  0  0  0  0  0  0  0
   13.8036    4.7339    4.3695 C   0  0  0  0  0  0  0  0  0  0  0  0
   13.6822    4.0036    1.2721 C   0  0  0  0  0  0  0  0  0  0  0  0
   12.4751    1.0742    0.9796 C   0  0  0  0  0  0  0  0  0  0  0  0
   10.9185   -0.2537    3.2295 H   0  0  0  0  0  0  0  0  0  0  0  0
   11.4985   -0.1207    4.8907 H   0  0  0  0  0  0  0  0  0  0  0  0
   12.5634   -0.7667    3.6317 H   0  0  0  0  0  0  0  0  0  0  0  0
   12.9915    3.0369    6.5299 H   0  0  0  0  0  0  0  0  0  0  0  0
   13.1655    1.2902    6.3298 H   0  0  0  0  0  0  0  0  0  0  0  0
   11.5533    2.0354    6.3144 H   0  0  0  0  0  0  0  0  0  0  0  0
   13.7531    4.7252    5.4557 H   0  0  0  0  0  0  0  0  0  0  0  0
   13.2432    5.6035    4.0121 H   0  0  0  0  0  0  0  0  0  0  0  0
   14.8473    4.8426    4.0732 H   0  0  0  0  0  0  0  0  0  0  0  0
   13.9529    4.9928    1.6313 H   0  0  0  0  0  0  0  0  0  0  0  0
   12.9296    4.1204    0.4907 H   0  0  0  0  0  0  0  0  0  0  0  0
   14.5654    3.5347    0.8368 H   0  0  0  0  0  0  0  0  0  0  0  0
   12.5136    1.7357    0.1183 H   0  0  0  0  0  0  0  0  0  0  0  0
   11.5362    0.5238    0.9482 H   0  0  0  0  0  0  0  0  0  0  0  0
   13.2955    0.3588    0.9072 H   0  0  0  0  0  0  0  0  0  0  0  0
  1  9  1  0  0  0  0
  1  3  1  0  0  0  0
  1  4  1  0  0  0  0
  2  1  1  0  0  0  0
  5  1  1  0  0  0  0
  6  1  1  0  0  0  0
  7 12  1  0  0  0  0
  7  8  1  0  0  0  0
  8 13  1  1  0  0  0
  9 14  1  1  0  0  0
  9  8  1  0  0  0  0
 10 15  1  1  0  0  0
 10  9  1  0  0  0  0
 11 10  1  0  0  0  0
 11  7  2  0  0  0  0
 12 18  1  0  0  0  0
 13 22  1  0  0  0  0
 13 21  1  0  0  0  0
 13 20  1  0  0  0  0
 14 23  1  0  0  0  0
 15 26  1  0  0  0  0
 16 11  1  0  0  0  0
 17 12  1  0  0  0  0
 19 12  1  0  0  0  0
 24 14  1  0  0  0  0
 25 14  1  0  0  0  0
 27 15  1  0  0  0  0
 28 15  1  0  0  0  0
 29 16  1  0  0  0  0
 30 16  1  0  0  0  0
 31 16  1  0  0  0  0
M  END
$$$$
