CSD_code = ZOQZUA | q = 0 | S = 0 | Stoichiometry = C19H15I3N2OW | MND = 6
 OpenBabel04212202133D

 41 41  0  0  1  0  0  0  0  0999 V2000
   -0.3584    1.5945    3.9863 W   0  0  0  0  0  0  0  0  0  0  0  0
   -2.4331    3.2295    4.5672 I   0  0  0  0  0 15  0  0  0  0  0  0
   -1.3301    1.0163    1.4799 I   0  0  0  0  0 15  0  0  0  0  0  0
    1.0878    2.4139    6.1820 I   0  0  0  0  0 15  0  0  0  0  0  0
   -0.9767    0.1167    4.7653 N   0  0  0  0  0  2  0  0  0  0  0  0
    1.5094    1.1253    3.1893 N   0  0  0  0  0  0  0  0  0  0  0  0
    0.6039    3.0990    3.0580 O   0  0  0  0  0  0  0  0  0  0  0  0
   -1.4468   -0.9654    5.4263 C   0  0  0  0  0  0  0  0  0  0  0  0
   -0.6013   -2.0436    5.7405 C   0  0  0  0  0  0  0  0  0  0  0  0
   -1.0965   -3.1335    6.4231 C   0  0  0  0  0  0  0  0  0  0  0  0
   -2.4288   -3.1798    6.8040 C   0  0  0  0  0  0  0  0  0  0  0  0
   -3.2715   -2.1207    6.5000 C   0  0  0  0  0  0  0  0  0  0  0  0
   -2.7959   -1.0216    5.8195 C   0  0  0  0  0  0  0  0  0  0  0  0
    1.6087    2.3660    2.7379 C   0  0  2  0  0  3  0  0  0  0  0  0
    2.6854    2.9124    1.9028 C   0  0  0  0  0  0  0  0  0  0  0  0
    3.3014    2.1348    0.9225 C   0  0  0  0  0  0  0  0  0  0  0  0
    4.2802    2.6979    0.1275 C   0  0  0  0  0  0  0  0  0  0  0  0
    4.6514    4.0220    0.3079 C   0  0  0  0  0  0  0  0  0  0  0  0
    4.0301    4.7973    1.2742 C   0  0  0  0  0  0  0  0  0  0  0  0
    3.0389    4.2511    2.0662 C   0  0  0  0  0  0  0  0  0  0  0  0
    2.5035    0.1253    3.1754 C   0  0  0  0  0  0  0  0  0  0  0  0
    3.8371    0.3925    3.4762 C   0  0  0  0  0  0  0  0  0  0  0  0
    4.7407   -0.6523    3.5261 C   0  0  0  0  0  0  0  0  0  0  0  0
    4.3274   -1.9523    3.2847 C   0  0  0  0  0  0  0  0  0  0  0  0
    2.9964   -2.2178    3.0045 C   0  0  0  0  0  0  0  0  0  0  0  0
    2.0794   -1.1855    2.9564 C   0  0  0  0  0  0  0  0  0  0  0  0
    0.4402   -1.9907    5.4444 H   0  0  0  0  0  0  0  0  0  0  0  0
   -0.4373   -3.9553    6.6625 H   0  0  0  0  0  0  0  0  0  0  0  0
   -2.8085   -4.0373    7.3380 H   0  0  0  0  0  0  0  0  0  0  0  0
   -4.3091   -2.1533    6.7973 H   0  0  0  0  0  0  0  0  0  0  0  0
   -3.4412   -0.1860    5.5749 H   0  0  0  0  0  0  0  0  0  0  0  0
    2.9964    1.1099    0.7682 H   0  0  0  0  0  0  0  0  0  0  0  0
    4.7516    2.1016   -0.6382 H   0  0  0  0  0  0  0  0  0  0  0  0
    5.4219    4.4525   -0.3132 H   0  0  0  0  0  0  0  0  0  0  0  0
    4.3129    5.8299    1.4082 H   0  0  0  0  0  0  0  0  0  0  0  0
    2.5435    4.8434    2.8220 H   0  0  0  0  0  0  0  0  0  0  0  0
    4.1520    1.4044    3.6886 H   0  0  0  0  0  0  0  0  0  0  0  0
    5.7725   -0.4460    3.7650 H   0  0  0  0  0  0  0  0  0  0  0  0
    5.0404   -2.7607    3.3271 H   0  0  0  0  0  0  0  0  0  0  0  0
    2.6678   -3.2306    2.8294 H   0  0  0  0  0  0  0  0  0  0  0  0
    1.0310   -1.3771    2.7493 H   0  0  0  0  0  0  0  0  0  0  0  0
  1  5  1  0  0  0  0
  5  8  1  0  0  0  0
  6  1  1  0  0  0  0
  7  1  1  0  0  0  0
  8  9  2  0  0  0  0
  8 13  1  0  0  0  0
  9 10  1  0  0  0  0
 10 28  1  0  0  0  0
 10 11  2  0  0  0  0
 11 29  1  0  0  0  0
 12 30  1  0  0  0  0
 12 11  1  0  0  0  0
 13 12  2  0  0  0  0
 14 15  1  6  0  0  0
 14  7  1  0  0  0  0
 14  6  1  0  0  0  0
 15 20  1  0  0  0  0
 16 15  2  0  0  0  0
 17 18  2  0  0  0  0
 17 16  1  0  0  0  0
 18 19  1  0  0  0  0
 19 35  1  0  0  0  0
 19 20  2  0  0  0  0
 20 36  1  0  0  0  0
 21  6  1  0  0  0  0
 21 22  1  0  0  0  0
 22 23  2  0  0  0  0
 22 37  1  0  0  0  0
 23 38  1  0  0  0  0
 24 39  1  0  0  0  0
 24 23  1  0  0  0  0
 25 24  2  0  0  0  0
 26 25  1  0  0  0  0
 26 21  2  0  0  0  0
 27  9  1  0  0  0  0
 31 13  1  0  0  0  0
 32 16  1  0  0  0  0
 33 17  1  0  0  0  0
 34 18  1  0  0  0  0
 40 25  1  0  0  0  0
 41 26  1  0  0  0  0
M  END
$$$$
