CSD_code = ZORTIJ | q = -1 | S = 0 | Stoichiometry = C2H3Cl4N2ORu(1-) | MND = 6
 OpenBabel04212202133D

 13 12  0  0  0  0  0  0  0  0999 V2000
    7.3401    1.9128    4.9743 Ru  0  0  0  0  0  0  0  0  0  0  0  0
    8.4904    1.9926    3.0018 Cl  0  0  0  0  0  0  0  0  0  0  0  0
    9.3666    1.1825    6.0371 Cl  0  0  0  0  0  0  0  0  0  0  0  0
    5.4256    2.7569    3.7967 Cl  0  0  0  0  0  0  0  0  0  0  0  0
    6.7065   -0.2775    4.5451 Cl  0  0  0  0  0  0  0  0  0  0  0  0
    6.0038    2.0985    7.4548 O   0  0  0  0  0  1  0  0  0  0  0  0
    6.5338    1.9707    6.4335 N   0  0  0  0  0  2  0  0  0  0  0  0
    8.0199    3.8979    5.1904 N   0  0  0  0  0  2  0  0  0  0  0  0
    8.6749    4.6445    4.6174 C   0  0  0  0  0  2  0  0  0  0  0  0
    9.4918    5.5559    3.8826 C   0  0  0  0  0  0  0  0  0  0  0  0
   10.3980    5.7804    4.4437 H   0  0  0  0  0  0  0  0  0  0  0  0
    9.7539    5.0596    2.9464 H   0  0  0  0  0  0  0  0  0  0  0  0
    8.9402    6.4711    3.6719 H   0  0  0  0  0  0  0  0  0  0  0  0
  1  8  1  0  0  0  0
  1  3  1  0  0  0  0
  1  7  1  0  0  0  0
  2  1  1  0  0  0  0
  4  1  1  0  0  0  0
  5  1  1  0  0  0  0
  7  6  1  0  0  0  0
  9  8  1  0  0  0  0
 10 11  1  0  0  0  0
 10  9  1  0  0  0  0
 12 10  1  0  0  0  0
 13 10  1  0  0  0  0
M  END
$$$$
