CSD_code = ZOTMIE | q = 0 | S = 0 | Stoichiometry = C16H18AuClNOP | MND = 2
 OpenBabel04212202133D

 39 40  0  0  0  0  0  0  0  0999 V2000
    5.6636   -1.5152    5.0992 Au  0  0  0  0  0  0  0  0  0  0  0  0
    5.4929   -0.7795    7.2433 Cl  0  0  0  0  0  0  0  0  0  0  0  0
    5.6606   -2.4592    3.0626 P   0  0  0  0  0  4  0  0  0  0  0  0
    8.3032   -3.8350    5.1437 O   0  0  0  0  0  0  0  0  0  0  0  0
    6.6611   -4.3257    6.6138 N   0  0  0  0  0  0  0  0  0  0  0  0
    6.2152   -1.4781    1.6447 C   0  0  0  0  0  0  0  0  0  0  0  0
    5.5181   -0.2891    1.4326 C   0  0  0  0  0  0  0  0  0  0  0  0
    5.8734    0.5491    0.3948 C   0  0  0  0  0  0  0  0  0  0  0  0
    6.9342    0.2107   -0.4319 C   0  0  0  0  0  0  0  0  0  0  0  0
    7.6378   -0.9617   -0.2147 C   0  0  0  0  0  0  0  0  0  0  0  0
    7.2863   -1.8084    0.8231 C   0  0  0  0  0  0  0  0  0  0  0  0
    3.9977   -2.9753    2.5432 C   0  0  0  0  0  0  0  0  0  0  0  0
    2.9627   -2.9880    3.4701 C   0  0  0  0  0  0  0  0  0  0  0  0
    1.6995   -3.4076    3.0910 C   0  0  0  0  0  0  0  0  0  0  0  0
    1.4667   -3.8078    1.7859 C   0  0  0  0  0  0  0  0  0  0  0  0
    2.4960   -3.7893    0.8568 C   0  0  0  0  0  0  0  0  0  0  0  0
    3.7601   -3.3759    1.2311 C   0  0  0  0  0  0  0  0  0  0  0  0
    6.5809   -4.0436    2.9796 C   0  0  0  0  0  0  0  0  0  0  0  0
    6.3080   -4.8284    4.2618 C   0  0  0  0  0  0  0  0  0  0  0  0
    7.1889   -4.2581    5.3805 C   0  0  0  0  0  0  0  0  0  0  0  0
    7.3282   -3.7723    7.7725 C   0  0  0  0  0  0  0  0  0  0  0  0
    5.6984   -4.5956    6.7383 H   0  0  0  0  0  0  0  0  0  0  0  0
    4.6971   -0.0364    2.0927 H   0  0  0  0  0  0  0  0  0  0  0  0
    5.3298    1.4675    0.2309 H   0  0  0  0  0  0  0  0  0  0  0  0
    7.2153    0.8656   -1.2430 H   0  0  0  0  0  0  0  0  0  0  0  0
    8.4687   -1.2187   -0.8550 H   0  0  0  0  0  0  0  0  0  0  0  0
    7.8459   -2.7168    0.9882 H   0  0  0  0  0  0  0  0  0  0  0  0
    3.1545   -2.6582    4.4843 H   0  0  0  0  0  0  0  0  0  0  0  0
    0.8968   -3.4172    3.8130 H   0  0  0  0  0  0  0  0  0  0  0  0
    0.4800   -4.1300    1.4891 H   0  0  0  0  0  0  0  0  0  0  0  0
    2.3103   -4.0957   -0.1621 H   0  0  0  0  0  0  0  0  0  0  0  0
    4.5652   -3.3508    0.5087 H   0  0  0  0  0  0  0  0  0  0  0  0
    6.2819   -4.5968    2.0830 H   0  0  0  0  0  0  0  0  0  0  0  0
    7.6529   -3.8212    2.9465 H   0  0  0  0  0  0  0  0  0  0  0  0
    5.2494   -4.7913    4.5330 H   0  0  0  0  0  0  0  0  0  0  0  0
    6.5909   -5.8754    4.1241 H   0  0  0  0  0  0  0  0  0  0  0  0
    7.3058   -4.4909    8.5915 H   0  0  0  0  0  0  0  0  0  0  0  0
    6.8443   -2.8436    8.0821 H   0  0  0  0  0  0  0  0  0  0  0  0
    8.3579   -3.5623    7.4922 H   0  0  0  0  0  0  0  0  0  0  0  0
  1  2  1  0  0  0  0
  3  1  1  0  0  0  0
  4 20  2  0  0  0  0
  5 22  1  0  0  0  0
  5 21  1  0  0  0  0
  6  3  1  0  0  0  0
  7  6  1  0  0  0  0
  7 23  1  0  0  0  0
  8  7  2  0  0  0  0
  9 10  2  0  0  0  0
  9  8  1  0  0  0  0
 10 11  1  0  0  0  0
 11 27  1  0  0  0  0
 11  6  2  0  0  0  0
 12  3  1  0  0  0  0
 12 13  1  0  0  0  0
 13 28  1  0  0  0  0
 14 13  2  0  0  0  0
 14 29  1  0  0  0  0
 15 14  1  0  0  0  0
 16 17  1  0  0  0  0
 16 15  2  0  0  0  0
 17 12  2  0  0  0  0
 18  3  1  0  0  0  0
 18 19  1  0  0  0  0
 19 35  1  0  0  0  0
 19 20  1  0  0  0  0
 20  5  1  0  0  0  0
 21 38  1  0  0  0  0
 21 37  1  0  0  0  0
 24  8  1  0  0  0  0
 25  9  1  0  0  0  0
 26 10  1  0  0  0  0
 30 15  1  0  0  0  0
 31 16  1  0  0  0  0
 32 17  1  0  0  0  0
 33 18  1  0  0  0  0
 34 18  1  0  0  0  0
 36 19  1  0  0  0  0
 39 21  1  0  0  0  0
M  END
$$$$
