CSD_code = ZOTMEA | q = 0 | S = 0 | Stoichiometry = C9H12Cl2N4OPt | MND = 4
 OpenBabel04212202133D

 29 31  0  0  1  0  0  0  0  0999 V2000
   -0.7773    2.7432    2.7002 Pt  0  0  0  0  0  0  0  0  0  0  0  0
    0.1886    4.6808    2.1418 Cl  0  0  0  0  0  0  0  0  0  0  0  0
   -0.5702    1.9725    0.6116 Cl  0  0  0  0  0  0  0  0  0  0  0  0
   -1.6854    1.0118    3.2590 N   0  0  0  0  0  0  0  0  0  0  0  0
   -3.0683   -0.3231    4.3187 N   0  0  0  0  0  0  0  0  0  0  0  0
   -1.0153    3.4017    4.6097 N   0  0  0  0  0  0  0  0  0  0  0  0
   -1.9480    3.6773    6.5772 N   0  0  0  0  0  0  0  0  0  0  0  0
   -4.0842    2.8367    4.1757 O   0  0  0  0  0  0  0  0  0  0  0  0
   -1.5292   -0.2403    2.7574 C   0  0  0  0  0  0  0  0  0  0  0  0
   -2.3850   -1.0771    3.4098 C   0  0  0  0  0  0  0  0  0  0  0  0
   -2.6081    0.9455    4.2043 C   0  0  2  0  0  3  0  0  0  0  0  0
   -3.1424    2.1310    4.9583 C   0  0  1  0  0  0  0  0  0  0  0  0
   -2.0223    3.0375    5.3859 C   0  0  1  0  0  3  0  0  0  0  0  0
   -0.2605    4.2842    5.3134 C   0  0  0  0  0  0  0  0  0  0  0  0
   -0.8325    4.4620    6.5379 C   0  0  0  0  0  0  0  0  0  0  0  0
   -2.8786    3.5864    7.6686 C   0  0  0  0  0  0  0  0  0  0  0  0
   -4.1037   -0.7928    5.1977 C   0  0  0  0  0  0  0  0  0  0  0  0
   -3.6424    3.1648    3.3757 H   0  0  0  0  0  0  0  0  0  0  0  0
   -0.8391   -0.4327    1.9610 H   0  0  0  0  0  0  0  0  0  0  0  0
   -2.5593   -2.1269    3.2989 H   0  0  0  0  0  0  0  0  0  0  0  0
   -3.6991    1.7901    5.8375 H   0  0  0  0  0  0  0  0  0  0  0  0
    0.6102    4.7333    4.8798 H   0  0  0  0  0  0  0  0  0  0  0  0
   -0.5408    5.0743    7.3654 H   0  0  0  0  0  0  0  0  0  0  0  0
   -2.8400    2.5976    8.1314 H   0  0  0  0  0  0  0  0  0  0  0  0
   -3.8933    3.7780    7.3170 H   0  0  0  0  0  0  0  0  0  0  0  0
   -2.6182    4.3325    8.4164 H   0  0  0  0  0  0  0  0  0  0  0  0
   -3.7786   -0.7489    6.2398 H   0  0  0  0  0  0  0  0  0  0  0  0
   -4.3362   -1.8256    4.9475 H   0  0  0  0  0  0  0  0  0  0  0  0
   -5.0043   -0.1890    5.0778 H   0  0  0  0  0  0  0  0  0  0  0  0
  1  4  1  0  0  0  0
  1  6  1  0  0  0  0
  2  1  1  0  0  0  0
  3  1  1  0  0  0  0
  5 17  1  0  0  0  0
  6 14  1  0  0  0  0
  7 16  1  0  0  0  0
  8 12  1  0  0  0  0
  9  4  1  0  0  0  0
  9 10  2  0  0  0  0
 10  5  1  0  0  0  0
 11  4  1  6  0  0  0
 11  5  1  0  0  0  0
 11 12  1  0  0  0  0
 12 13  1  0  0  0  0
 12 21  1  1  0  0  0
 13  6  1  6  0  0  0
 13  7  1  0  0  0  0
 14 15  2  0  0  0  0
 15  7  1  0  0  0  0
 15 23  1  0  0  0  0
 16 24  1  0  0  0  0
 16 26  1  0  0  0  0
 17 27  1  0  0  0  0
 18  8  1  0  0  0  0
 19  9  1  0  0  0  0
 20 10  1  0  0  0  0
 22 14  1  0  0  0  0
 25 16  1  0  0  0  0
 28 17  1  0  0  0  0
 29 17  1  0  0  0  0
M  END
$$$$
