CSD_code = ZOVHOJ | q = 0 | S = 0 | Stoichiometry = C19H18BrN2NiP | MND = 4
 OpenBabel04212202133D

 42 46  0  0  0  0  0  0  0  0999 V2000
   11.0050    0.6122    8.8320 Br  0  0  0  0  0  0  0  0  0  0  0  0
   11.7574    0.3761   10.8759 Ni  0  0  2  0  0  0  0  0  0  0  0  0
   13.3654    1.7035   10.4929 P   0  0  2  0  0  4  0  0  0  0  0  0
   12.7396    6.1585    9.6005 C   0  0  0  0  0  0  0  0  0  0  0  0
   12.5870    7.2058    9.3863 H   0  0  0  0  0  0  0  0  0  0  0  0
   12.5631    0.1450   12.6328 N   0  0  0  0  0  0  0  0  0  0  0  0
   14.4085    0.5849   14.2177 C   0  0  0  0  0  0  0  0  0  0  0  0
   13.9996   -0.0568   14.9835 H   0  0  0  0  0  0  0  0  0  0  0  0
   12.7572    3.8712    8.8736 C   0  0  0  0  0  0  0  0  0  0  0  0
   12.5821    3.1324    8.1048 H   0  0  0  0  0  0  0  0  0  0  0  0
   14.3243    1.5998   12.0338 C   0  0  0  0  0  0  0  0  0  0  0  0
   13.1461    3.4712   10.1505 C   0  0  0  0  0  0  0  0  0  0  0  0
   13.7448    0.7531   12.9975 C   0  0  0  0  0  0  0  0  0  0  0  0
   13.0968    5.7597   10.8782 C   0  0  0  0  0  0  0  0  0  0  0  0
   13.2187    6.4936   11.6614 H   0  0  0  0  0  0  0  0  0  0  0  0
   14.5428    1.1477    9.1921 C   0  0  0  0  0  0  0  0  0  0  0  0
   14.0739    1.3116    8.2184 H   0  0  0  0  0  0  0  0  0  0  0  0
   15.4534    1.7500    9.2568 H   0  0  0  0  0  0  0  0  0  0  0  0
   15.6015    1.2396   14.4486 C   0  0  0  0  0  0  0  0  0  0  0  0
   16.1036    1.1013   15.3949 H   0  0  0  0  0  0  0  0  0  0  0  0
   10.4475   -0.8457   11.5062 N   0  0  0  0  0  0  0  0  0  0  0  0
   13.2915    4.4195   11.1585 C   0  0  0  0  0  0  0  0  0  0  0  0
   13.5580    4.1090   12.1596 H   0  0  0  0  0  0  0  0  0  0  0  0
   16.1662    2.0675   13.4876 C   0  0  0  0  0  0  0  0  0  0  0  0
   17.1017    2.5678   13.6860 H   0  0  0  0  0  0  0  0  0  0  0  0
    8.8414   -2.2537   12.1950 C   0  0  0  0  0  0  0  0  0  0  0  0
    7.9561   -2.8583   12.1590 H   0  0  0  0  0  0  0  0  0  0  0  0
   10.7099   -1.2088   12.8188 C   0  0  0  0  0  0  0  0  0  0  0  0
   11.8535   -0.6631   13.3909 C   0  0  0  0  0  3  0  0  0  0  0  0
   12.1388   -0.9014   14.4112 H   0  0  0  0  0  0  0  0  0  0  0  0
    9.7026   -2.0945   13.2575 C   0  0  0  0  0  0  0  0  0  0  0  0
    9.6413   -2.5418   14.2310 H   0  0  0  0  0  0  0  0  0  0  0  0
   15.5243    2.2473   12.2751 C   0  0  0  0  0  0  0  0  0  0  0  0
   15.9478    2.8931   11.5181 H   0  0  0  0  0  0  0  0  0  0  0  0
   14.8318   -0.3359    9.3910 C   0  0  0  0  0  0  0  0  0  0  0  0
   15.4521   -0.7225    8.5858 H   0  0  0  0  0  0  0  0  0  0  0  0
   13.8926   -0.8974    9.3985 H   0  0  0  0  0  0  0  0  0  0  0  0
   15.3434   -0.5090   10.3377 H   0  0  0  0  0  0  0  0  0  0  0  0
    9.3380   -1.4684   11.1384 C   0  0  0  0  0  0  0  0  0  0  0  0
    8.9220   -1.3538   10.1526 H   0  0  0  0  0  0  0  0  0  0  0  0
   12.5622    5.2128    8.6032 C   0  0  0  0  0  0  0  0  0  0  0  0
   12.2624    5.5198    7.6127 H   0  0  0  0  0  0  0  0  0  0  0  0
  2  1  1  6  0  0  0
  2 21  1  0  0  0  0
  2  6  1  0  0  0  0
  3 16  1  6  0  0  0
  3  2  1  0  0  0  0
  3 11  1  0  0  0  0
  4 14  1  0  0  0  0
  5  4  1  0  0  0  0
  6 13  1  0  0  0  0
  6 29  1  0  0  0  0
  7 19  1  0  0  0  0
  7  8  1  0  0  0  0
  9 12  2  0  0  0  0
 10  9  1  0  0  0  0
 11 33  2  0  0  0  0
 11 13  1  0  0  0  0
 12  3  1  0  0  0  0
 12 22  1  0  0  0  0
 13  7  2  0  0  0  0
 14 22  2  0  0  0  0
 14 15  1  0  0  0  0
 16 18  1  0  0  0  0
 16 35  1  0  0  0  0
 17 16  1  0  0  0  0
 19 20  1  0  0  0  0
 21 28  1  0  0  0  0
 22 23  1  0  0  0  0
 24 25  1  0  0  0  0
 24 19  2  0  0  0  0
 26 31  1  0  0  0  0
 27 26  1  0  0  0  0
 28 31  2  0  0  0  0
 28 29  1  0  0  0  0
 29 30  1  0  0  0  0
 31 32  1  0  0  0  0
 33 24  1  0  0  0  0
 34 33  1  0  0  0  0
 35 37  1  0  0  0  0
 35 38  1  0  0  0  0
 36 35  1  0  0  0  0
 39 21  1  0  0  0  0
 39 26  2  0  0  0  0
 40 39  1  0  0  0  0
 41  9  1  0  0  0  0
 41  4  2  0  0  0  0
 42 41  1  0  0  0  0
M  END
$$$$
