CSD_code = ZOVSUA | q = 0 | S = 0 | Stoichiometry = C20H37Cl2CoN2P2 | MND = 5
 OpenBabel04212202133D

 64 66  0  0  0  0  0  0  0  0999 V2000
    0.1729    5.4759    3.5401 Co  0  0  0  0  0  0  0  0  0  0  0  0
    0.1037    4.8444    5.5767 Cl  0  0  0  0  0  0  0  0  0  0  0  0
    1.1113    5.0469    1.6655 Cl  0  0  0  0  0  0  0  0  0  0  0  0
   -1.6016    4.2602    3.0607 P   0  0  0  0  0  4  0  0  0  0  0  0
    1.6146    7.0680    4.0433 P   0  0  0  0  0  4  0  0  0  0  0  0
   -0.6565    6.8080    2.4446 C   0  0  0  0  0  0  0  0  0  0  0  0
   -2.3157    5.1870    1.8435 N   0  0  0  0  0  0  0  0  0  0  0  0
    1.1768    8.2694    2.9408 N   0  0  0  0  0  0  0  0  0  0  0  0
   -1.8183    6.4917    1.7447 C   0  0  0  0  0  0  0  0  0  0  0  0
   -2.4330    7.4757    0.9716 C   0  0  0  0  0  0  0  0  0  0  0  0
   -1.8581    8.7285    0.8755 C   0  0  0  0  0  0  0  0  0  0  0  0
   -0.6760    9.0274    1.5255 C   0  0  0  0  0  0  0  0  0  0  0  0
   -0.0492    8.0531    2.3015 C   0  0  0  0  0  0  0  0  0  0  0  0
   -3.4350    4.7821    1.0221 C   0  0  0  0  0  0  0  0  0  0  0  0
    1.9011    9.4994    2.7077 C   0  0  0  0  0  0  0  0  0  0  0  0
   -1.5361    2.5195    2.4129 C   0  0  0  0  0  0  0  0  0  0  0  0
   -0.8487    2.4323    1.0556 C   0  0  0  0  0  0  0  0  0  0  0  0
   -0.7973    1.6849    3.4568 C   0  0  0  0  0  0  0  0  0  0  0  0
   -2.8904    4.1717    4.4232 C   0  0  0  0  0  0  0  0  0  0  0  0
   -4.1010    3.2781    4.1767 C   0  0  0  0  0  0  0  0  0  0  0  0
   -3.3265    5.6069    4.7067 C   0  0  0  0  0  0  0  0  0  0  0  0
    3.4598    6.8884    3.9037 C   0  0  0  0  0  0  0  0  0  0  0  0
    3.9150    6.6612    2.4673 C   0  0  0  0  0  0  0  0  0  0  0  0
    3.8554    5.7150    4.7975 C   0  0  0  0  0  0  0  0  0  0  0  0
    1.3776    7.8485    5.7345 C   0  0  0  0  0  0  0  0  0  0  0  0
    2.4028    8.8873    6.1762 C   0  0  0  0  0  0  0  0  0  0  0  0
   -0.0309    8.4369    5.7517 C   0  0  0  0  0  0  0  0  0  0  0  0
   -3.3468    7.2674    0.4396 H   0  0  0  0  0  0  0  0  0  0  0  0
   -2.3358    9.4851    0.2708 H   0  0  0  0  0  0  0  0  0  0  0  0
   -0.2432   10.0085    1.4179 H   0  0  0  0  0  0  0  0  0  0  0  0
   -3.6024    3.7145    1.1420 H   0  0  0  0  0  0  0  0  0  0  0  0
   -4.3531    5.3130    1.2964 H   0  0  0  0  0  0  0  0  0  0  0  0
   -3.2225    4.9816   -0.0319 H   0  0  0  0  0  0  0  0  0  0  0  0
    2.8751    9.4399    3.1873 H   0  0  0  0  0  0  0  0  0  0  0  0
    2.0531    9.6538    1.6358 H   0  0  0  0  0  0  0  0  0  0  0  0
    1.3662   10.3670    3.1094 H   0  0  0  0  0  0  0  0  0  0  0  0
   -2.5661    2.1543    2.3181 H   0  0  0  0  0  0  0  0  0  0  0  0
   -1.2986    3.1144    0.3380 H   0  0  0  0  0  0  0  0  0  0  0  0
    0.2034    2.6885    1.1425 H   0  0  0  0  0  0  0  0  0  0  0  0
   -0.9270    1.4174    0.6673 H   0  0  0  0  0  0  0  0  0  0  0  0
   -1.2992    1.7219    4.4225 H   0  0  0  0  0  0  0  0  0  0  0  0
   -0.7336    0.6453    3.1388 H   0  0  0  0  0  0  0  0  0  0  0  0
    0.2152    2.0662    3.5861 H   0  0  0  0  0  0  0  0  0  0  0  0
   -2.3469    3.8014    5.2993 H   0  0  0  0  0  0  0  0  0  0  0  0
   -3.8244    2.2293    4.0999 H   0  0  0  0  0  0  0  0  0  0  0  0
   -4.7862    3.3760    5.0184 H   0  0  0  0  0  0  0  0  0  0  0  0
   -4.6372    3.5722    3.2773 H   0  0  0  0  0  0  0  0  0  0  0  0
   -2.4540    6.2434    4.8543 H   0  0  0  0  0  0  0  0  0  0  0  0
   -3.9049    6.0101    3.8768 H   0  0  0  0  0  0  0  0  0  0  0  0
   -3.9366    5.6507    5.6071 H   0  0  0  0  0  0  0  0  0  0  0  0
    3.9212    7.8077    4.2846 H   0  0  0  0  0  0  0  0  0  0  0  0
    3.5513    7.4449    1.8070 H   0  0  0  0  0  0  0  0  0  0  0  0
    5.0034    6.6477    2.4237 H   0  0  0  0  0  0  0  0  0  0  0  0
    3.5426    5.7117    2.0934 H   0  0  0  0  0  0  0  0  0  0  0  0
    3.5375    5.8763    5.8267 H   0  0  0  0  0  0  0  0  0  0  0  0
    3.3845    4.8012    4.4362 H   0  0  0  0  0  0  0  0  0  0  0  0
    4.9348    5.5718    4.7863 H   0  0  0  0  0  0  0  0  0  0  0  0
    1.4025    7.0061    6.4346 H   0  0  0  0  0  0  0  0  0  0  0  0
    3.3956    8.4580    6.2877 H   0  0  0  0  0  0  0  0  0  0  0  0
    2.4511    9.7222    5.4809 H   0  0  0  0  0  0  0  0  0  0  0  0
    2.1056    9.2817    7.1475 H   0  0  0  0  0  0  0  0  0  0  0  0
   -0.7540    7.6903    5.4233 H   0  0  0  0  0  0  0  0  0  0  0  0
   -0.3008    8.7531    6.7577 H   0  0  0  0  0  0  0  0  0  0  0  0
   -0.1032    9.2967    5.0875 H   0  0  0  0  0  0  0  0  0  0  0  0
  1  5  1  0  0  0  0
  1  2  1  0  0  0  0
  3  1  1  0  0  0  0
  4  1  1  0  0  0  0
  4 19  1  0  0  0  0
  5 25  1  0  0  0  0
  6  1  1  0  0  0  0
  7  4  1  0  0  0  0
  8  5  1  0  0  0  0
  9  7  1  0  0  0  0
  9  6  2  0  0  0  0
 10  9  1  0  0  0  0
 11 10  2  0  0  0  0
 11 12  1  0  0  0  0
 12 13  2  0  0  0  0
 13  6  1  0  0  0  0
 13  8  1  0  0  0  0
 14 31  1  0  0  0  0
 14 32  1  0  0  0  0
 14  7  1  0  0  0  0
 15  8  1  0  0  0  0
 15 36  1  0  0  0  0
 15 34  1  0  0  0  0
 16  4  1  0  0  0  0
 16 18  1  0  0  0  0
 17 39  1  0  0  0  0
 17 16  1  0  0  0  0
 18 43  1  0  0  0  0
 18 41  1  0  0  0  0
 19 21  1  0  0  0  0
 19 44  1  0  0  0  0
 20 19  1  0  0  0  0
 20 46  1  0  0  0  0
 21 48  1  0  0  0  0
 21 50  1  0  0  0  0
 22  5  1  0  0  0  0
 22 51  1  0  0  0  0
 22 24  1  0  0  0  0
 23 22  1  0  0  0  0
 24 55  1  0  0  0  0
 25 27  1  0  0  0  0
 25 26  1  0  0  0  0
 25 58  1  0  0  0  0
 26 59  1  0  0  0  0
 26 61  1  0  0  0  0
 27 63  1  0  0  0  0
 28 10  1  0  0  0  0
 29 11  1  0  0  0  0
 30 12  1  0  0  0  0
 33 14  1  0  0  0  0
 35 15  1  0  0  0  0
 37 16  1  0  0  0  0
 38 17  1  0  0  0  0
 40 17  1  0  0  0  0
 42 18  1  0  0  0  0
 45 20  1  0  0  0  0
 47 20  1  0  0  0  0
 49 21  1  0  0  0  0
 52 23  1  0  0  0  0
 53 23  1  0  0  0  0
 54 23  1  0  0  0  0
 56 24  1  0  0  0  0
 57 24  1  0  0  0  0
 60 26  1  0  0  0  0
 62 27  1  0  0  0  0
 64 27  1  0  0  0  0
M  END
$$$$
