CSD_code = ZOVVAJ | q = 0 | S = 0 | Stoichiometry = C20H37ClN2NiP2 | MND = 4
 OpenBabel04212202133D

 63 65  0  0  0  0  0  0  0  0999 V2000
   14.6922    4.3129    0.7876 Ni  0  0  0  0  0  0  0  0  0  0  0  0
   15.5046    5.1246   -0.9889 Cl  0  0  0  0  0  0  0  0  0  0  0  0
   13.0579    3.3661   -0.1764 P   0  0  0  0  0  4  0  0  0  0  0  0
   16.1584    5.1604    2.0647 P   0  0  0  0  0  4  0  0  0  0  0  0
   12.3003    2.4804    1.0526 N   0  0  0  0  0  0  0  0  0  0  0  0
   15.7452    4.5975    3.6073 N   0  0  0  0  0  0  0  0  0  0  0  0
   14.0165    3.5103    2.3630 C   0  0  0  0  0  0  0  0  0  0  0  0
   12.9059    2.6602    2.3067 C   0  0  0  0  0  0  0  0  0  0  0  0
   12.4371    2.0360    3.4601 C   0  0  0  0  0  0  0  0  0  0  0  0
   13.0757    2.2627    4.6647 C   0  0  0  0  0  0  0  0  0  0  0  0
   14.1706    3.1025    4.7467 C   0  0  0  0  0  0  0  0  0  0  0  0
   14.6439    3.7275    3.5957 C   0  0  0  0  0  0  0  0  0  0  0  0
   11.0320    1.7959    0.9544 C   0  0  0  0  0  0  0  0  0  0  0  0
   16.3406    4.9982    4.8602 C   0  0  0  0  0  0  0  0  0  0  0  0
   11.7167    4.4421   -0.8856 C   0  0  0  0  0  0  0  0  0  0  0  0
   11.4564    5.5099    0.1744 C   0  0  0  0  0  0  0  0  0  0  0  0
   12.1540    5.0698   -2.2039 C   0  0  0  0  0  0  0  0  0  0  0  0
   13.5086    2.1602   -1.5202 C   0  0  0  0  0  0  0  0  0  0  0  0
   14.5930    1.2615   -0.9318 C   0  0  0  0  0  0  0  0  0  0  0  0
   12.3754    1.3434   -2.1288 C   0  0  0  0  0  0  0  0  0  0  0  0
   16.2648    7.0072    2.2467 C   0  0  0  0  0  0  0  0  0  0  0  0
   14.8201    7.4878    2.3616 C   0  0  0  0  0  0  0  0  0  0  0  0
   16.9598    7.6419    1.0476 C   0  0  0  0  0  0  0  0  0  0  0  0
   17.8957    4.5809    1.7221 C   0  0  0  0  0  0  0  0  0  0  0  0
   17.8125    3.0612    1.6021 C   0  0  0  0  0  0  0  0  0  0  0  0
   18.9676    5.0050    2.7182 C   0  0  0  0  0  0  0  0  0  0  0  0
   11.5855    1.3751    3.4261 H   0  0  0  0  0  0  0  0  0  0  0  0
   12.7121    1.7759    5.5581 H   0  0  0  0  0  0  0  0  0  0  0  0
   14.6490    3.2596    5.7004 H   0  0  0  0  0  0  0  0  0  0  0  0
   10.6430    1.8941   -0.0557 H   0  0  0  0  0  0  0  0  0  0  0  0
   11.1414    0.7305    1.1817 H   0  0  0  0  0  0  0  0  0  0  0  0
   10.3004    2.2234    1.6480 H   0  0  0  0  0  0  0  0  0  0  0  0
   17.1007    5.7532    4.6767 H   0  0  0  0  0  0  0  0  0  0  0  0
   15.5869    5.4243    5.5303 H   0  0  0  0  0  0  0  0  0  0  0  0
   16.8110    4.1487    5.3663 H   0  0  0  0  0  0  0  0  0  0  0  0
   10.8079    3.8469   -1.0371 H   0  0  0  0  0  0  0  0  0  0  0  0
   11.1422    5.0561    1.1142 H   0  0  0  0  0  0  0  0  0  0  0  0
   12.3792    6.0656    0.3576 H   0  0  0  0  0  0  0  0  0  0  0  0
   10.6882    6.2101   -0.1496 H   0  0  0  0  0  0  0  0  0  0  0  0
   12.2076    4.3286   -2.9983 H   0  0  0  0  0  0  0  0  0  0  0  0
   11.4452    5.8405   -2.5039 H   0  0  0  0  0  0  0  0  0  0  0  0
   13.1360    5.5273   -2.0941 H   0  0  0  0  0  0  0  0  0  0  0  0
   13.9618    2.7898   -2.2960 H   0  0  0  0  0  0  0  0  0  0  0  0
   15.4025    1.8798   -0.5357 H   0  0  0  0  0  0  0  0  0  0  0  0
   14.1920    0.6616   -0.1150 H   0  0  0  0  0  0  0  0  0  0  0  0
   15.0056    0.5954   -1.6873 H   0  0  0  0  0  0  0  0  0  0  0  0
   11.5517    1.9749   -2.4560 H   0  0  0  0  0  0  0  0  0  0  0  0
   12.7474    0.8022   -2.9984 H   0  0  0  0  0  0  0  0  0  0  0  0
   12.0008    0.6108   -1.4178 H   0  0  0  0  0  0  0  0  0  0  0  0
   16.8072    7.2543    3.1674 H   0  0  0  0  0  0  0  0  0  0  0  0
   14.3169    7.0068    3.2006 H   0  0  0  0  0  0  0  0  0  0  0  0
   14.7722    8.5671    2.4967 H   0  0  0  0  0  0  0  0  0  0  0  0
   14.2838    7.2286    1.4465 H   0  0  0  0  0  0  0  0  0  0  0  0
   18.0239    7.4167    1.0386 H   0  0  0  0  0  0  0  0  0  0  0  0
   16.5211    7.2734    0.1216 H   0  0  0  0  0  0  0  0  0  0  0  0
   16.8413    8.7244    1.0789 H   0  0  0  0  0  0  0  0  0  0  0  0
   18.1278    4.9971    0.7342 H   0  0  0  0  0  0  0  0  0  0  0  0
   17.0344    2.7939    0.8810 H   0  0  0  0  0  0  0  0  0  0  0  0
   18.7575    2.6394    1.2640 H   0  0  0  0  0  0  0  0  0  0  0  0
   17.5516    2.6146    2.5617 H   0  0  0  0  0  0  0  0  0  0  0  0
   18.9631    6.0807    2.8840 H   0  0  0  0  0  0  0  0  0  0  0  0
   18.8311    4.4996    3.6714 H   0  0  0  0  0  0  0  0  0  0  0  0
   19.9492    4.7299    2.3332 H   0  0  0  0  0  0  0  0  0  0  0  0
  1  4  1  0  0  0  0
  1  7  1  0  0  0  0
  2  1  1  0  0  0  0
  3  1  1  0  0  0  0
  3  5  1  0  0  0  0
  4 21  1  0  0  0  0
  4  6  1  0  0  0  0
  5  8  1  0  0  0  0
  6 14  1  0  0  0  0
  7 12  1  0  0  0  0
  8  7  2  0  0  0  0
  8  9  1  0  0  0  0
  9 10  2  0  0  0  0
 10 11  1  0  0  0  0
 10 28  1  0  0  0  0
 11 29  1  0  0  0  0
 12  6  1  0  0  0  0
 12 11  2  0  0  0  0
 13  5  1  0  0  0  0
 13 31  1  0  0  0  0
 13 32  1  0  0  0  0
 14 35  1  0  0  0  0
 14 34  1  0  0  0  0
 15  3  1  0  0  0  0
 15 16  1  0  0  0  0
 16 38  1  0  0  0  0
 16 37  1  0  0  0  0
 17 42  1  0  0  0  0
 17 15  1  0  0  0  0
 18 19  1  0  0  0  0
 18  3  1  0  0  0  0
 19 44  1  0  0  0  0
 19 45  1  0  0  0  0
 20 18  1  0  0  0  0
 20 49  1  0  0  0  0
 21 22  1  0  0  0  0
 21 50  1  0  0  0  0
 22 52  1  0  0  0  0
 22 51  1  0  0  0  0
 23 56  1  0  0  0  0
 23 21  1  0  0  0  0
 24  4  1  0  0  0  0
 24 26  1  0  0  0  0
 25 24  1  0  0  0  0
 25 60  1  0  0  0  0
 26 61  1  0  0  0  0
 26 62  1  0  0  0  0
 27  9  1  0  0  0  0
 30 13  1  0  0  0  0
 33 14  1  0  0  0  0
 36 15  1  0  0  0  0
 39 16  1  0  0  0  0
 40 17  1  0  0  0  0
 41 17  1  0  0  0  0
 43 18  1  0  0  0  0
 46 19  1  0  0  0  0
 47 20  1  0  0  0  0
 48 20  1  0  0  0  0
 53 22  1  0  0  0  0
 54 23  1  0  0  0  0
 55 23  1  0  0  0  0
 57 24  1  0  0  0  0
 58 25  1  0  0  0  0
 59 25  1  0  0  0  0
 63 26  1  0  0  0  0
M  END
$$$$
