CSD_code = ZOYROW | q = 0 | S = 0 | Stoichiometry = C24H34ClF2NNiP2 | MND = 4
 OpenBabel04212202133D

 65 68  0  0  0  0  0  0  0  0999 V2000
    2.5050    2.5529   12.9154 Ni  0  0  0  0  0  0  0  0  0  0  0  0
    3.9095    3.1792   11.4186 P   0  0  0  0  0  4  0  0  0  0  0  0
    1.8015    4.4832   13.1381 Cl  0  0  0  0  0  0  0  0  0  0  0  0
    1.1252    1.6375   14.3069 P   0  0  0  0  0  4  0  0  0  0  0  0
    3.2298    0.7922   12.6924 N   0  0  0  0  0  0  0  0  0  0  0  0
    6.2424   -0.1945    8.1919 F   0  0  0  0  0  0  0  0  0  0  0  0
    2.5626   -2.6045   16.9801 F   0  0  0  0  0  0  0  0  0  0  0  0
    4.0872   -0.8049   11.0393 C   0  0  0  0  0  0  0  0  0  0  0  0
    3.5937   -1.6354   11.5204 H   0  0  0  0  0  0  0  0  0  0  0  0
    5.2569    1.3395    9.6895 C   0  0  0  0  0  0  0  0  0  0  0  0
    5.7238    2.1494    9.1522 H   0  0  0  0  0  0  0  0  0  0  0  0
    4.4544    1.5668   10.7946 C   0  0  0  0  0  0  0  0  0  0  0  0
    3.1011   -0.0955   13.7277 C   0  0  0  0  0  0  0  0  0  0  0  0
    5.4668    4.0971   11.8195 C   0  0  0  0  0  0  0  0  0  0  0  0
    6.1485    4.0094   10.9646 H   0  0  0  0  0  0  0  0  0  0  0  0
    1.8745   -0.7148   15.7455 C   0  0  0  0  0  0  0  0  0  0  0  0
    1.0855   -0.5508   16.4628 H   0  0  0  0  0  0  0  0  0  0  0  0
    3.9422    4.3349    8.7868 C   0  0  0  0  0  0  0  0  0  0  0  0
    4.1367    3.4119    8.2465 H   0  0  0  0  0  0  0  0  0  0  0  0
    4.8897    4.8002    9.0501 H   0  0  0  0  0  0  0  0  0  0  0  0
    3.4123    5.0083    8.1143 H   0  0  0  0  0  0  0  0  0  0  0  0
    1.8307    3.2686    9.6639 C   0  0  0  0  0  0  0  0  0  0  0  0
    1.2185    3.8016    8.9394 H   0  0  0  0  0  0  0  0  0  0  0  0
    1.2314    3.1053   10.5661 H   0  0  0  0  0  0  0  0  0  0  0  0
    2.1020    2.2989    9.2463 H   0  0  0  0  0  0  0  0  0  0  0  0
    5.4600    0.0379    9.2753 C   0  0  0  0  0  0  0  0  0  0  0  0
    3.9937   -1.1503   13.9849 C   0  0  0  0  0  0  0  0  0  0  0  0
    4.8593   -1.2868   13.3552 H   0  0  0  0  0  0  0  0  0  0  0  0
    3.8114   -1.9845   15.0670 C   0  0  0  0  0  0  0  0  0  0  0  0
    4.5019   -2.7892   15.2658 H   0  0  0  0  0  0  0  0  0  0  0  0
    3.0815    4.0719   10.0153 C   0  0  0  0  0  0  0  0  0  0  0  0
    2.7682    5.0277   10.4556 H   0  0  0  0  0  0  0  0  0  0  0  0
    0.7843    2.3681   15.9752 C   0  0  0  0  0  0  0  0  0  0  0  0
    0.3931    1.5772   16.6257 H   0  0  0  0  0  0  0  0  0  0  0  0
    5.1720    5.5619   12.1226 C   0  0  0  0  0  0  0  0  0  0  0  0
    4.8342    6.0909   11.2342 H   0  0  0  0  0  0  0  0  0  0  0  0
    6.0690    6.0553   12.4934 H   0  0  0  0  0  0  0  0  0  0  0  0
    4.3959    5.6385   12.8830 H   0  0  0  0  0  0  0  0  0  0  0  0
    3.9180    0.4955   11.5478 C   0  0  0  0  0  0  0  0  0  0  0  0
    2.7420   -1.7753   15.9216 C   0  0  0  0  0  0  0  0  0  0  0  0
    6.0698    3.3881   13.0309 C   0  0  0  0  0  0  0  0  0  0  0  0
    6.9857    3.8794   13.3540 H   0  0  0  0  0  0  0  0  0  0  0  0
    6.2972    2.3486   12.7954 H   0  0  0  0  0  0  0  0  0  0  0  0
    5.3571    3.4041   13.8590 H   0  0  0  0  0  0  0  0  0  0  0  0
    2.0582    0.1214   14.6582 C   0  0  0  0  0  0  0  0  0  0  0  0
   -0.2239    3.5085   15.8815 C   0  0  0  0  0  0  0  0  0  0  0  0
    0.1198    4.2562   15.1693 H   0  0  0  0  0  0  0  0  0  0  0  0
   -0.3338    3.9853   16.8541 H   0  0  0  0  0  0  0  0  0  0  0  0
   -1.2016    3.1492   15.5672 H   0  0  0  0  0  0  0  0  0  0  0  0
    4.8492   -1.0299    9.9140 C   0  0  0  0  0  0  0  0  0  0  0  0
    4.9788   -2.0275    9.5242 H   0  0  0  0  0  0  0  0  0  0  0  0
    2.1253    2.8576   16.5178 C   0  0  0  0  0  0  0  0  0  0  0  0
    2.8297    2.0308   16.6107 H   0  0  0  0  0  0  0  0  0  0  0  0
    2.0013    3.3192   17.4954 H   0  0  0  0  0  0  0  0  0  0  0  0
    2.5480    3.5997   15.8381 H   0  0  0  0  0  0  0  0  0  0  0  0
   -0.5116    1.0599   13.6348 C   0  0  0  0  0  0  0  0  0  0  0  0
   -1.0953    1.9707   13.4503 H   0  0  0  0  0  0  0  0  0  0  0  0
   -0.2302    0.3755   12.2985 C   0  0  0  0  0  0  0  0  0  0  0  0
    0.3788    1.0221   11.6617 H   0  0  0  0  0  0  0  0  0  0  0  0
   -1.1575    0.1498   11.7753 H   0  0  0  0  0  0  0  0  0  0  0  0
    0.3135   -0.5552   12.4566 H   0  0  0  0  0  0  0  0  0  0  0  0
   -1.2746    0.1391   14.5779 C   0  0  0  0  0  0  0  0  0  0  0  0
   -2.2186   -0.1525   14.1197 H   0  0  0  0  0  0  0  0  0  0  0  0
   -1.4968    0.6284   15.5233 H   0  0  0  0  0  0  0  0  0  0  0  0
   -0.7019   -0.7649   14.7747 H   0  0  0  0  0  0  0  0  0  0  0  0
  1  3  1  0  0  0  0
  1  4  1  0  0  0  0
  2 14  1  0  0  0  0
  2  1  1  0  0  0  0
  4 45  1  0  0  0  0
  4 33  1  0  0  0  0
  5  1  1  0  0  0  0
  5 13  1  0  0  0  0
  6 26  1  0  0  0  0
  8  9  1  0  0  0  0
  8 39  1  0  0  0  0
 10 12  1  0  0  0  0
 11 10  1  0  0  0  0
 12  2  1  0  0  0  0
 12 39  2  0  0  0  0
 13 27  2  0  0  0  0
 13 45  1  0  0  0  0
 14 35  1  0  0  0  0
 14 41  1  0  0  0  0
 15 14  1  0  0  0  0
 16 40  1  0  0  0  0
 16 17  1  0  0  0  0
 18 20  1  0  0  0  0
 18 31  1  0  0  0  0
 19 18  1  0  0  0  0
 21 18  1  0  0  0  0
 22 31  1  0  0  0  0
 22 24  1  0  0  0  0
 23 22  1  0  0  0  0
 25 22  1  0  0  0  0
 26 10  2  0  0  0  0
 26 50  1  0  0  0  0
 27 29  1  0  0  0  0
 28 27  1  0  0  0  0
 29 30  1  0  0  0  0
 29 40  2  0  0  0  0
 31 32  1  0  0  0  0
 31  2  1  0  0  0  0
 33 52  1  0  0  0  0
 33 34  1  0  0  0  0
 35 37  1  0  0  0  0
 35 38  1  0  0  0  0
 36 35  1  0  0  0  0
 39  5  1  0  0  0  0
 40  7  1  0  0  0  0
 41 42  1  0  0  0  0
 41 44  1  0  0  0  0
 43 41  1  0  0  0  0
 45 16  2  0  0  0  0
 46 33  1  0  0  0  0
 46 48  1  0  0  0  0
 47 46  1  0  0  0  0
 49 46  1  0  0  0  0
 50  8  2  0  0  0  0
 51 50  1  0  0  0  0
 52 53  1  0  0  0  0
 52 54  1  0  0  0  0
 55 52  1  0  0  0  0
 56  4  1  0  0  0  0
 56 62  1  0  0  0  0
 57 56  1  0  0  0  0
 58 61  1  0  0  0  0
 58 56  1  0  0  0  0
 59 58  1  0  0  0  0
 60 58  1  0  0  0  0
 62 65  1  0  0  0  0
 62 64  1  0  0  0  0
 63 62  1  0  0  0  0
M  END
$$$$
