CSD_code = ZOZDIB | q = 0 | S = 0 | Stoichiometry = C23H20ClNiP | MND = 7
 OpenBabel04212202133D

 46 50  0  0  1  0  0  0  0  0999 V2000
    1.5674    1.8094    4.4295 Ni  0  0  1  0  0  0  0  0  0  0  0  0
    0.5727    0.1537    3.6538 Cl  0  0  0  0  0  0  0  0  0  0  0  0
    0.7963    2.9623    2.8235 P   0  0  0  0  0  4  0  0  0  0  0  0
    2.2370    3.1827    5.8750 C   0  0  1  0  0  0  0  0  0  0  0  0
    1.7100    2.0845    6.5598 C   0  0  0  0  0  3  0  0  0  0  0  0
    2.4253    0.9407    6.1161 C   0  0  2  0  0  0  0  0  0  0  0  0
    3.5185    1.3674    5.2928 C   0  0  0  0  0  0  0  0  0  0  0  0
    3.3821    2.7363    5.1059 C   0  0  0  0  0  0  0  0  0  0  0  0
    1.5241    4.6205    2.5887 C   0  0  0  0  0  0  0  0  0  0  0  0
    2.5111    4.8733    1.6440 C   0  0  0  0  0  0  0  0  0  0  0  0
    3.0789    6.1329    1.5574 C   0  0  0  0  0  0  0  0  0  0  0  0
    2.6745    7.1414    2.4156 C   0  0  0  0  0  0  0  0  0  0  0  0
    1.6967    6.8909    3.3662 C   0  0  0  0  0  0  0  0  0  0  0  0
    1.1279    5.6354    3.4565 C   0  0  0  0  0  0  0  0  0  0  0  0
    1.0790    2.1622    1.2141 C   0  0  0  0  0  0  0  0  0  0  0  0
    2.2848    1.4771    1.0813 C   0  0  0  0  0  0  0  0  0  0  0  0
    2.6019    0.8483   -0.1063 C   0  0  0  0  0  0  0  0  0  0  0  0
    1.7093    0.8916   -1.1664 C   0  0  0  0  0  0  0  0  0  0  0  0
    0.5026    1.5565   -1.0312 C   0  0  0  0  0  0  0  0  0  0  0  0
    0.1822    2.1935    0.1561 C   0  0  0  0  0  0  0  0  0  0  0  0
   -0.9766    3.3531    2.8870 C   0  0  0  0  0  0  0  0  0  0  0  0
   -1.5287    4.3294    2.0609 C   0  0  0  0  0  0  0  0  0  0  0  0
   -2.8816    4.6048    2.1334 C   0  0  0  0  0  0  0  0  0  0  0  0
   -3.6854    3.9194    3.0315 C   0  0  0  0  0  0  0  0  0  0  0  0
   -3.1351    2.9610    3.8662 C   0  0  0  0  0  0  0  0  0  0  0  0
   -1.7823    2.6790    3.7969 C   0  0  0  0  0  0  0  0  0  0  0  0
    1.9808    4.2199    6.0321 H   0  0  0  0  0  0  0  0  0  0  0  0
    0.9349    2.0977    7.3087 H   0  0  0  0  0  0  0  0  0  0  0  0
    2.3006   -0.0609    6.5016 H   0  0  0  0  0  0  0  0  0  0  0  0
    4.3207    0.7380    4.9426 H   0  0  0  0  0  0  0  0  0  0  0  0
    4.0694    3.3953    4.5971 H   0  0  0  0  0  0  0  0  0  0  0  0
    2.8297    4.0863    0.9750 H   0  0  0  0  0  0  0  0  0  0  0  0
    3.8424    6.3262    0.8180 H   0  0  0  0  0  0  0  0  0  0  0  0
    3.1224    8.1216    2.3472 H   0  0  0  0  0  0  0  0  0  0  0  0
    1.3823    7.6756    4.0388 H   0  0  0  0  0  0  0  0  0  0  0  0
    0.3650    5.4296    4.1963 H   0  0  0  0  0  0  0  0  0  0  0  0
    2.9549    1.4273    1.9361 H   0  0  0  0  0  0  0  0  0  0  0  0
    3.5361    0.3157   -0.2052 H   0  0  0  0  0  0  0  0  0  0  0  0
    1.9499    0.3941   -2.0942 H   0  0  0  0  0  0  0  0  0  0  0  0
   -0.1986    1.5743   -1.8526 H   0  0  0  0  0  0  0  0  0  0  0  0
   -0.7682    2.6952    0.2617 H   0  0  0  0  0  0  0  0  0  0  0  0
   -0.8962    4.8774    1.3753 H   0  0  0  0  0  0  0  0  0  0  0  0
   -3.3109    5.3588    1.4898 H   0  0  0  0  0  0  0  0  0  0  0  0
   -4.7415    4.1397    3.0834 H   0  0  0  0  0  0  0  0  0  0  0  0
   -3.7597    2.4344    4.5721 H   0  0  0  0  0  0  0  0  0  0  0  0
   -1.3344    1.9328    4.4438 H   0  0  0  0  0  0  0  0  0  0  0  0
  1  2  1  1  0  0  0
  1  4  1  0  0  0  0
  1  6  1  0  0  0  0
  3 21  1  0  0  0  0
  3  1  1  0  0  0  0
  4 27  1  1  0  0  0
  4  5  1  0  0  0  0
  5 28  1  0  0  0  0
  6 29  1  1  0  0  0
  6  5  1  0  0  0  0
  7  6  1  0  0  0  0
  8  7  2  0  0  0  0
  8  4  1  0  0  0  0
  9  3  1  0  0  0  0
  9 14  1  0  0  0  0
 10  9  2  0  0  0  0
 11 10  1  0  0  0  0
 11 12  2  0  0  0  0
 12 13  1  0  0  0  0
 13 14  2  0  0  0  0
 13 35  1  0  0  0  0
 14 36  1  0  0  0  0
 15  3  1  0  0  0  0
 16 15  1  0  0  0  0
 16 37  1  0  0  0  0
 17 16  2  0  0  0  0
 18 19  2  0  0  0  0
 18 17  1  0  0  0  0
 19 20  1  0  0  0  0
 20 41  1  0  0  0  0
 20 15  2  0  0  0  0
 21 26  1  0  0  0  0
 22 23  1  0  0  0  0
 22 21  2  0  0  0  0
 23 24  2  0  0  0  0
 24 44  1  0  0  0  0
 24 25  1  0  0  0  0
 25 45  1  0  0  0  0
 26 25  2  0  0  0  0
 26 46  1  0  0  0  0
 30  7  1  0  0  0  0
 31  8  1  0  0  0  0
 32 10  1  0  0  0  0
 33 11  1  0  0  0  0
 34 12  1  0  0  0  0
 38 17  1  0  0  0  0
 39 18  1  0  0  0  0
 40 19  1  0  0  0  0
 42 22  1  0  0  0  0
 43 23  1  0  0  0  0
M  END
$$$$
