CSD_code = ZUBZUR | q = 0 | S = 0 | Stoichiometry = C18H18CdI2N4 | MND = 6
 OpenBabel04212202133D

 43 47  0  0  1  0  0  0  0  0999 V2000
   -0.3534    3.4625    9.5474 I   0  0  0  0  0  0  0  0  0  0  0  0
   -3.1019    0.1777   11.2610 I   0  0  0  0  0  0  0  0  0  0  0  0
   -1.5247    2.3114   11.7355 Cd  0  0  0  0  0  0  0  0  0  0  0  0
    0.5575    1.4415   12.6477 N   0  0  0  0  0  0  0  0  0  0  0  0
   -2.4396    2.3418   14.3316 N   0  0  0  0  0  0  0  0  0  0  0  0
   -2.9082    4.2963   12.2392 N   0  0  0  0  0  0  0  0  0  0  0  0
   -0.2899    3.9669   13.3126 N   0  0  1  0  0  4  0  0  0  0  0  0
    0.8653    0.1521   12.6003 C   0  0  0  0  0  3  0  0  0  0  0  0
    2.1314   -0.3289   12.8877 C   0  0  0  0  0  0  0  0  0  0  0  0
    3.1162    0.5810   13.2401 C   0  0  0  0  0  0  0  0  0  0  0  0
    2.7933    1.9257   13.2952 C   0  0  0  0  0  0  0  0  0  0  0  0
    1.4958    2.3218   12.9883 C   0  0  0  0  0  0  0  0  0  0  0  0
    1.1145    3.7805   12.9787 C   0  0  0  0  0  0  0  0  0  0  0  0
   -3.6835    1.9547   14.5621 C   0  0  0  0  0  0  0  0  0  0  0  0
   -4.5168    2.5867   15.4729 C   0  0  0  0  0  0  0  0  0  0  0  0
   -4.0212    3.6738   16.1722 C   0  0  0  0  0  0  0  0  0  0  0  0
   -2.7136    4.0709   15.9446 C   0  0  0  0  0  0  0  0  0  0  0  0
   -1.9543    3.3747   15.0129 C   0  0  0  0  0  0  0  0  0  0  0  0
   -4.2289    4.2936   12.1406 C   0  0  0  0  0  3  0  0  0  0  0  0
   -3.0238    6.3565   13.4164 C   0  0  0  0  0  0  0  0  0  0  0  0
   -2.3036    5.3021   12.8668 C   0  0  0  0  0  0  0  0  0  0  0  0
   -0.7979    5.2717   12.9115 C   0  0  0  0  0  0  0  0  0  0  0  0
   -4.4046    6.3521   13.3179 C   0  0  0  0  0  0  0  0  0  0  0  0
   -5.0245    5.2981   12.6664 C   0  0  0  0  0  0  0  0  0  0  0  0
   -0.5189    3.7273   14.7317 C   0  0  0  0  0  0  0  0  0  0  0  0
    0.0627   -0.5203   12.3189 H   0  0  0  0  0  0  0  0  0  0  0  0
    2.3396   -1.3851   12.8325 H   0  0  0  0  0  0  0  0  0  0  0  0
    4.1183    0.2499   13.4684 H   0  0  0  0  0  0  0  0  0  0  0  0
    3.5347    2.6633   13.5631 H   0  0  0  0  0  0  0  0  0  0  0  0
   -4.0258    1.0987   13.9966 H   0  0  0  0  0  0  0  0  0  0  0  0
   -5.5247    2.2354   15.6248 H   0  0  0  0  0  0  0  0  0  0  0  0
   -4.6368    4.2025   16.8850 H   0  0  0  0  0  0  0  0  0  0  0  0
   -2.2891    4.9086   16.4775 H   0  0  0  0  0  0  0  0  0  0  0  0
   -4.6652    3.4520   11.6143 H   0  0  0  0  0  0  0  0  0  0  0  0
   -2.5083    7.1655   13.9117 H   0  0  0  0  0  0  0  0  0  0  0  0
   -4.9853    7.1581   13.7413 H   0  0  0  0  0  0  0  0  0  0  0  0
   -6.0968    5.2552   12.5645 H   0  0  0  0  0  0  0  0  0  0  0  0
   -0.4309    6.0731   13.5748 H   0  0  0  0  0  0  0  0  0  0  0  0
   -0.4434    5.4811   11.8959 H   0  0  0  0  0  0  0  0  0  0  0  0
    1.2818    4.1483   11.9598 H   0  0  0  0  0  0  0  0  0  0  0  0
    1.7781    4.3459   13.6535 H   0  0  0  0  0  0  0  0  0  0  0  0
    0.0924    2.8703   15.0331 H   0  0  0  0  0  0  0  0  0  0  0  0
   -0.2176    4.5986   15.3383 H   0  0  0  0  0  0  0  0  0  0  0  0
  1  3  1  0  0  0  0
  2  3  1  0  0  0  0
  3  6  1  0  0  0  0
  3  4  1  0  0  0  0
  3  7  1  0  0  0  0
  4 12  1  0  0  0  0
  5 14  2  0  0  0  0
  5 18  1  0  0  0  0
  6 21  1  0  0  0  0
  7 25  1  1  0  0  0
  8  4  1  0  0  0  0
  8  9  1  0  0  0  0
  9 10  2  0  0  0  0
 10 11  1  0  0  0  0
 10 28  1  0  0  0  0
 11 29  1  0  0  0  0
 12 11  2  0  0  0  0
 13 12  1  0  0  0  0
 13  7  1  0  0  0  0
 13 41  1  0  0  0  0
 14 15  1  0  0  0  0
 15 31  1  0  0  0  0
 15 16  2  0  0  0  0
 16 32  1  0  0  0  0
 17 16  1  0  0  0  0
 17 33  1  0  0  0  0
 18 17  2  0  0  0  0
 19  6  1  0  0  0  0
 19 24  1  0  0  0  0
 20 35  1  0  0  0  0
 21 22  1  0  0  0  0
 21 20  2  0  0  0  0
 22  7  1  0  0  0  0
 22 38  1  0  0  0  0
 23 20  1  0  0  0  0
 23 36  1  0  0  0  0
 24 23  2  0  0  0  0
 25 18  1  0  0  0  0
 25 42  1  0  0  0  0
 25 43  1  0  0  0  0
 26  8  1  0  0  0  0
 27  9  1  0  0  0  0
 30 14  1  0  0  0  0
 34 19  1  0  0  0  0
 37 24  1  0  0  0  0
 39 22  1  0  0  0  0
 40 13  1  0  0  0  0
M  END
$$$$
