CSD_code = ZUBZEB | q = 1 | S = 0 | Stoichiometry = C18H18IN4Zn(1+) | MND = 5
 OpenBabel04212202133D

 42 47  0  0  1  0  0  0  0  0999 V2000
    5.5259   -1.2162    1.6579 I   0  0  0  0  0  0  0  0  0  0  0  0
    4.6720   -2.8695   -0.0010 Zn  0  0  0  0  0  0  0  0  0  0  0  0
    3.9056   -4.3505   -1.4900 N   0  0  2  0  0  4  0  0  0  0  0  0
    2.7409   -3.4153    0.7562 N   0  0  0  0  0  0  0  0  0  0  0  0
    6.1176   -4.4524    0.0489 N   0  0  0  0  0  0  0  0  0  0  0  0
    4.6387   -1.7803   -1.8485 N   0  0  0  0  0  0  0  0  0  0  0  0
    3.0257   -5.2621   -0.7716 C   0  0  0  0  0  0  0  0  0  0  0  0
    2.1964   -4.5162    0.2392 C   0  0  1  0  0  3  0  0  0  0  0  0
    0.9492   -4.9757    0.6374 C   0  0  0  0  0  0  0  0  0  0  0  0
    0.2506   -4.2707    1.6042 C   0  0  0  0  0  0  0  0  0  0  0  0
    0.8231   -3.1257    2.1372 C   0  0  0  0  0  0  0  0  0  0  0  0
    2.0696   -2.7356    1.6827 C   0  0  0  0  0  0  0  0  0  0  0  0
    5.0646   -5.0385   -2.0422 C   0  0  0  0  0  0  0  0  0  0  0  0
    6.0809   -5.3145   -0.9665 C   0  0  1  0  0  3  0  0  0  0  0  0
    6.9559   -6.3880   -1.0509 C   0  0  0  0  0  0  0  0  0  0  0  0
    7.8981   -6.5669   -0.0508 C   0  0  0  0  0  0  0  0  0  0  0  0
    7.9300   -5.6662    1.0031 C   0  0  0  0  0  0  0  0  0  0  0  0
    7.0204   -4.6245    1.0113 C   0  0  0  0  0  0  0  0  0  0  0  0
    3.1894   -3.5927   -2.5071 C   0  0  0  0  0  0  0  0  0  0  0  0
    3.9261   -2.3219   -2.8358 C   0  0  1  0  0  3  0  0  0  0  0  0
    3.8380   -1.7310   -4.0880 C   0  0  0  0  0  0  0  0  0  0  0  0
    4.5089   -0.5404   -4.3176 C   0  0  0  0  0  0  0  0  0  0  0  0
    5.2486    0.0170   -3.2857 C   0  0  0  0  0  0  0  0  0  0  0  0
    5.2848   -0.6380   -2.0681 C   0  0  0  0  0  0  0  0  0  0  0  0
    2.3768   -5.8281   -1.4544 H   0  0  0  0  0  0  0  0  0  0  0  0
    3.6455   -5.9824   -0.2262 H   0  0  0  0  0  0  0  0  0  0  0  0
    0.5395   -5.8721    0.1988 H   0  0  0  0  0  0  0  0  0  0  0  0
   -0.7199   -4.6087    1.9322 H   0  0  0  0  0  0  0  0  0  0  0  0
    0.3179   -2.5450    2.8910 H   0  0  0  0  0  0  0  0  0  0  0  0
    2.5511   -1.8510    2.0754 H   0  0  0  0  0  0  0  0  0  0  0  0
    4.7835   -5.9713   -2.5504 H   0  0  0  0  0  0  0  0  0  0  0  0
    5.5352   -4.3832   -2.7835 H   0  0  0  0  0  0  0  0  0  0  0  0
    6.8994   -7.0653   -1.8885 H   0  0  0  0  0  0  0  0  0  0  0  0
    8.5906   -7.3929   -0.0943 H   0  0  0  0  0  0  0  0  0  0  0  0
    8.6444   -5.7646    1.8034 H   0  0  0  0  0  0  0  0  0  0  0  0
    7.0150   -3.8993    1.8129 H   0  0  0  0  0  0  0  0  0  0  0  0
    3.0229   -4.1845   -3.4180 H   0  0  0  0  0  0  0  0  0  0  0  0
    2.2089   -3.3152   -2.1046 H   0  0  0  0  0  0  0  0  0  0  0  0
    3.2508   -2.1963   -4.8641 H   0  0  0  0  0  0  0  0  0  0  0  0
    4.4554   -0.0606   -5.2822 H   0  0  0  0  0  0  0  0  0  0  0  0
    5.7873    0.9407   -3.4172 H   0  0  0  0  0  0  0  0  0  0  0  0
    5.8467   -0.2342   -1.2376 H   0  0  0  0  0  0  0  0  0  0  0  0
  2  5  1  0  0  0  0
  2  4  1  0  0  0  0
  2  1  1  0  0  0  0
  3 19  1  6  0  0  0
  3  7  1  0  0  0  0
  3  2  1  0  0  0  0
  4 12  1  0  0  0  0
  5 18  1  0  0  0  0
  6  2  1  0  0  0  0
  7 26  1  0  0  0  0
  7  8  1  0  0  0  0
  8  9  1  1  0  0  0
  8  4  1  0  0  0  0
  9 10  2  0  0  0  0
 10 28  1  0  0  0  0
 10 11  1  0  0  0  0
 11 29  1  0  0  0  0
 12 30  1  0  0  0  0
 12 11  2  0  0  0  0
 13  3  1  0  0  0  0
 13 14  1  0  0  0  0
 14 15  1  6  0  0  0
 14  5  1  0  0  0  0
 15 16  2  0  0  0  0
 16 17  1  0  0  0  0
 17 18  2  0  0  0  0
 17 35  1  0  0  0  0
 18 36  1  0  0  0  0
 19 38  1  0  0  0  0
 20 21  1  1  0  0  0
 20 19  1  0  0  0  0
 20  6  1  0  0  0  0
 22 21  2  0  0  0  0
 22 23  1  0  0  0  0
 23 24  2  0  0  0  0
 24  6  1  0  0  0  0
 24 42  1  0  0  0  0
 25  7  1  0  0  0  0
 27  9  1  0  0  0  0
 31 13  1  0  0  0  0
 32 13  1  0  0  0  0
 33 15  1  0  0  0  0
 34 16  1  0  0  0  0
 37 19  1  0  0  0  0
 39 21  1  0  0  0  0
 40 22  1  0  0  0  0
 41 23  1  0  0  0  0
M  END
$$$$
