CSD_code = ZUDWIE | q = 0 | S = 0 | Stoichiometry = C18H32AsClHfSi2 | MND = 12
 OpenBabel04212202133D

 55 54  0  0  1  0  0  0  0  0999 V2000
   -0.2000    3.5900    3.1765 Hf  0  0  0  0  0  0  0  0  0  0  0  0
    2.2368    3.4858    2.6152 As  0  0  0  0  0  2  0  0  0  0  0  0
   -0.9455    2.9374    1.0312 Cl  0  0  0  0  0  0  0  0  0  0  0  0
    2.7715    1.1964    2.2090 Si  0  0  0  0  0  0  0  0  0  0  0  0
    3.5104    3.9792    4.5617 Si  0  0  0  0  0  0  0  0  0  0  0  0
    1.6191    0.5691    0.8155 C   0  0  0  0  0  0  0  0  0  0  0  0
    1.6830    1.2382   -0.0385 H   0  0  0  0  0  0  0  0  0  0  0  0
    0.5775    0.5373    1.1214 H   0  0  0  0  0  0  0  0  0  0  0  0
    1.8937   -0.4258    0.4796 H   0  0  0  0  0  0  0  0  0  0  0  0
    4.5453    1.2376    1.4620 C   0  0  0  0  0  0  0  0  0  0  0  0
    5.3057    1.0526    2.2126 H   0  0  0  0  0  0  0  0  0  0  0  0
    4.7206    2.2289    1.0435 H   0  0  0  0  0  0  0  0  0  0  0  0
    4.6796    0.5056    0.6726 H   0  0  0  0  0  0  0  0  0  0  0  0
    2.8040   -0.1417    3.5977 C   0  0  0  0  0  0  0  0  0  0  0  0
    3.2476    0.2386    4.5130 H   0  0  0  0  0  0  0  0  0  0  0  0
    3.4003   -0.9911    3.2797 H   0  0  0  0  0  0  0  0  0  0  0  0
    1.8149   -0.5168    3.8371 H   0  0  0  0  0  0  0  0  0  0  0  0
    4.1534    5.7686    4.2981 C   0  0  0  0  0  0  0  0  0  0  0  0
    3.3544    6.4996    4.3647 H   0  0  0  0  0  0  0  0  0  0  0  0
    4.5834    5.8413    3.3012 H   0  0  0  0  0  0  0  0  0  0  0  0
    4.9158    6.0490    5.0175 H   0  0  0  0  0  0  0  0  0  0  0  0
    2.6261    3.9290    6.2712 C   0  0  0  0  0  0  0  0  0  0  0  0
    2.4104    2.9134    6.5884 H   0  0  0  0  0  0  0  0  0  0  0  0
    1.6898    4.4803    6.2536 H   0  0  0  0  0  0  0  0  0  0  0  0
    3.2492    4.3774    7.0385 H   0  0  0  0  0  0  0  0  0  0  0  0
    5.0863    2.8971    4.7086 C   0  0  0  0  0  0  0  0  0  0  0  0
    4.8522    1.8594    4.9175 H   0  0  0  0  0  0  0  0  0  0  0  0
    5.7451    3.2515    5.4944 H   0  0  0  0  0  0  0  0  0  0  0  0
    5.6312    2.9312    3.7705 H   0  0  0  0  0  0  0  0  0  0  0  0
   -1.9404    1.7749    3.8323 C   0  0  0  0  0  0  0  0  0  0  0  0
   -0.6856    1.1360    3.8681 C   0  0  0  0  0  0  0  0  0  0  0  0
   -0.4215    0.2554    3.3005 H   0  0  0  0  0  0  0  0  0  0  0  0
    0.0895    1.7283    4.8904 C   0  0  0  0  0  0  0  0  0  0  0  0
    1.0432    1.3687    5.2505 H   0  0  0  0  0  0  0  0  0  0  0  0
   -0.6831    2.7492    5.4838 C   0  0  0  0  0  0  0  0  0  0  0  0
   -0.4365    3.2870    6.3885 H   0  0  0  0  0  0  0  0  0  0  0  0
   -1.9346    2.7805    4.8218 C   0  0  0  0  0  3  0  0  0  0  0  0
   -2.8049    3.3319    5.1517 H   0  0  0  0  0  0  0  0  0  0  0  0
   -3.1288    1.3462    3.0205 C   0  0  0  0  0  0  0  0  0  0  0  0
   -3.9055    2.1096    3.0334 H   0  0  0  0  0  0  0  0  0  0  0  0
   -3.5520    0.4289    3.4347 H   0  0  0  0  0  0  0  0  0  0  0  0
   -2.8544    1.1459    1.9854 H   0  0  0  0  0  0  0  0  0  0  0  0
   -1.5431    5.5613    2.9293 C   0  0  1  0  0  0  0  0  0  0  0  0
   -0.9967    5.6845    4.2423 C   0  0  0  0  0  0  0  0  0  0  0  0
   -1.5680    5.6731    5.1620 H   0  0  0  0  0  0  0  0  0  0  0  0
    0.3357    6.1319    4.1190 C   0  0  0  0  0  0  0  0  0  0  0  0
    0.9739    6.4285    4.9373 H   0  0  0  0  0  0  0  0  0  0  0  0
    0.6213    6.2876    2.7543 C   0  0  0  0  0  0  0  0  0  0  0  0
    1.5365    6.6850    2.3400 H   0  0  0  0  0  0  0  0  0  0  0  0
   -0.5206    5.9325    2.0218 C   0  0  0  0  0  0  0  0  0  0  0  0
   -0.6387    6.0269    0.9517 H   0  0  0  0  0  0  0  0  0  0  0  0
   -2.9902    5.3252    2.5783 C   0  0  0  0  0  0  0  0  0  0  0  0
   -3.0993    4.5719    1.7942 H   0  0  0  0  0  0  0  0  0  0  0  0
   -3.4355    6.2493    2.2031 H   0  0  0  0  0  0  0  0  0  0  0  0
   -3.5650    5.0150    3.4512 H   0  0  0  0  0  0  0  0  0  0  0  0
  2  5  1  0  0  0  0
  3  1  1  0  0  0  0
  4  2  1  0  0  0  0
  4 14  1  0  0  0  0
  5 26  1  0  0  0  0
  5 22  1  0  0  0  0
  6  8  1  0  0  0  0
  6  4  1  0  0  0  0
  7  6  1  0  0  0  0
  9  6  1  0  0  0  0
 10  4  1  0  0  0  0
 10 11  1  0  0  0  0
 12 10  1  0  0  0  0
 13 10  1  0  0  0  0
 14 17  1  0  0  0  0
 14 15  1  0  0  0  0
 16 14  1  0  0  0  0
 18 19  1  0  0  0  0
 18  5  1  0  0  0  0
 18 21  1  0  0  0  0
 20 18  1  0  0  0  0
 22 23  1  0  0  0  0
 22 25  1  0  0  0  0
 24 22  1  0  0  0  0
 26 27  1  0  0  0  0
 26 28  1  0  0  0  0
 29 26  1  0  0  0  0
 30 31  2  0  0  0  0
 30 37  1  0  0  0  0
 31 33  1  0  0  0  0
 32 31  1  0  0  0  0
 33 34  1  0  0  0  0
 33 35  2  0  0  0  0
 35 36  1  0  0  0  0
 37 38  1  0  0  0  0
 37 35  1  0  0  0  0
 39 40  1  0  0  0  0
 39 41  1  0  0  0  0
 39 30  1  0  0  0  0
 42 39  1  0  0  0  0
 43  1  1  6  0  0  0
 43 44  1  0  0  0  0
 44 45  1  0  0  0  0
 46 44  2  0  0  0  0
 46 47  1  0  0  0  0
 48 46  1  0  0  0  0
 49 48  1  0  0  0  0
 50 48  2  0  0  0  0
 50 43  1  0  0  0  0
 51 50  1  0  0  0  0
 52 43  1  0  0  0  0
 52 55  1  0  0  0  0
 53 52  1  0  0  0  0
 54 52  1  0  0  0  0
M  END
$$$$
