CSD_code = ZUDWOK | q = 0 | S = 0 | Stoichiometry = C25H37AsClHfNSi2 | MND = 13
 OpenBabel04212202133D

 68 67  0  0  0  0  0  0  0  0999 V2000
   -3.2822    5.2268   15.5698 Hf  0  0  0  0  0  0  0  0  0  0  0  0
   -5.5676    4.6784   18.9001 As  0  0  0  0  0  0  0  0  0  0  0  0
   -7.6520    4.7622   17.7339 Si  0  0  0  0  0  0  0  0  0  0  0  0
   -5.5912    6.7619   20.0513 Si  0  0  0  0  0  0  0  0  0  0  0  0
   -3.2410    5.7316   17.5672 N   0  0  0  0  0  0  0  0  0  0  0  0
   -4.4223    5.2100   17.4240 C   0  0  0  0  0  2  0  0  0  0  0  0
   -1.0401    5.9632   15.5896 Cl  0  0  0  0  0 15  0  0  0  0  0  0
   -1.9433    2.9699   15.8720 C   0  0  0  0  0  0  0  0  0  0  0  0
   -2.8982    2.6445   16.8417 C   0  0  0  0  0  3  0  0  0  0  0  0
   -4.1709    2.6587   16.2517 C   0  0  0  0  0  0  0  0  0  0  0  0
   -4.0284    3.0155   14.8987 C   0  0  0  0  0  0  0  0  0  0  0  0
   -2.6295    3.2175   14.6488 C   0  0  0  0  0  0  0  0  0  0  0  0
   -0.4557    2.8859   16.0500 C   0  0  0  0  0  0  0  0  0  0  0  0
   -3.6668    7.5493   14.6981 C   0  0  0  0  0  0  0  0  0  0  0  0
   -4.9214    7.0895   15.1464 C   0  0  0  0  0  3  0  0  0  0  0  0
   -5.3092    5.9909   14.3434 C   0  0  0  0  0  0  0  0  0  0  0  0
   -4.2925    5.7753   13.3873 C   0  0  0  0  0  0  0  0  0  0  0  0
   -3.2775    6.7327   13.6099 C   0  0  0  0  0  0  0  0  0  0  0  0
   -2.9398    8.7684   15.1884 C   0  0  0  0  0  0  0  0  0  0  0  0
   -2.4013    5.8632   18.6790 C   0  0  0  0  0  0  0  0  0  0  0  0
   -1.5832    6.9920   18.7617 C   0  0  0  0  0  0  0  0  0  0  0  0
   -0.6706    7.1102   19.7901 C   0  0  0  0  0  0  0  0  0  0  0  0
   -0.5447    6.1023   20.7344 C   0  0  0  0  0  0  0  0  0  0  0  0
   -1.3428    4.9739   20.6469 C   0  0  0  0  0  0  0  0  0  0  0  0
   -2.2734    4.8534   19.6326 C   0  0  0  0  0  0  0  0  0  0  0  0
   -7.6893    3.5033   16.2897 C   0  0  0  0  0  0  0  0  0  0  0  0
   -8.2543    6.4420   17.0276 C   0  0  0  0  0  0  0  0  0  0  0  0
   -8.9556    4.1480   18.9975 C   0  0  0  0  0  0  0  0  0  0  0  0
   -5.1863    8.2671   18.9402 C   0  0  0  0  0  0  0  0  0  0  0  0
   -4.3474    6.7120   21.5060 C   0  0  0  0  0  0  0  0  0  0  0  0
   -7.3122    7.0256   20.8451 C   0  0  0  0  0  0  0  0  0  0  0  0
   -2.6782    2.3381   17.8522 H   0  0  0  0  0  0  0  0  0  0  0  0
   -5.0857    2.3555   16.7392 H   0  0  0  0  0  0  0  0  0  0  0  0
   -4.7930    2.9188   14.1392 H   0  0  0  0  0  0  0  0  0  0  0  0
   -2.1576    3.2589   13.6712 H   0  0  0  0  0  0  0  0  0  0  0  0
   -0.1472    1.8393   16.0946 H   0  0  0  0  0  0  0  0  0  0  0  0
   -0.1427    3.3681   16.9757 H   0  0  0  0  0  0  0  0  0  0  0  0
    0.0655    3.3611   15.2221 H   0  0  0  0  0  0  0  0  0  0  0  0
   -5.5335    7.5766   15.8922 H   0  0  0  0  0  0  0  0  0  0  0  0
   -6.2787    5.5157   14.3533 H   0  0  0  0  0  0  0  0  0  0  0  0
   -4.3566    5.1139   12.5334 H   0  0  0  0  0  0  0  0  0  0  0  0
   -2.4147    6.9032   12.9803 H   0  0  0  0  0  0  0  0  0  0  0  0
   -3.3615    9.1162   16.1307 H   0  0  0  0  0  0  0  0  0  0  0  0
   -3.0271    9.5780   14.4614 H   0  0  0  0  0  0  0  0  0  0  0  0
   -1.8791    8.5593   15.3269 H   0  0  0  0  0  0  0  0  0  0  0  0
   -1.6699    7.7603   18.0074 H   0  0  0  0  0  0  0  0  0  0  0  0
   -0.0455    7.9885   19.8512 H   0  0  0  0  0  0  0  0  0  0  0  0
    0.1781    6.1938   21.5309 H   0  0  0  0  0  0  0  0  0  0  0  0
   -1.2408    4.1809   21.3729 H   0  0  0  0  0  0  0  0  0  0  0  0
   -2.8837    3.9615   19.5561 H   0  0  0  0  0  0  0  0  0  0  0  0
   -6.8568    3.6556   15.6099 H   0  0  0  0  0  0  0  0  0  0  0  0
   -8.6078    3.5855   15.7158 H   0  0  0  0  0  0  0  0  0  0  0  0
   -7.6284    2.4851   16.6638 H   0  0  0  0  0  0  0  0  0  0  0  0
   -9.3069    6.3959   16.7642 H   0  0  0  0  0  0  0  0  0  0  0  0
   -7.7074    6.7148   16.1311 H   0  0  0  0  0  0  0  0  0  0  0  0
   -8.1338    7.2466   17.7468 H   0  0  0  0  0  0  0  0  0  0  0  0
   -9.9025    3.9119   18.5232 H   0  0  0  0  0  0  0  0  0  0  0  0
   -9.1479    4.8904   19.7647 H   0  0  0  0  0  0  0  0  0  0  0  0
   -8.5968    3.2493   19.4943 H   0  0  0  0  0  0  0  0  0  0  0  0
   -4.3290    8.0542   18.3068 H   0  0  0  0  0  0  0  0  0  0  0  0
   -4.9455    9.1448   19.5322 H   0  0  0  0  0  0  0  0  0  0  0  0
   -6.0210    8.5245   18.2945 H   0  0  0  0  0  0  0  0  0  0  0  0
   -4.2996    5.7137   21.9349 H   0  0  0  0  0  0  0  0  0  0  0  0
   -4.6418    7.3969   22.2957 H   0  0  0  0  0  0  0  0  0  0  0  0
   -3.3450    6.9845   21.1923 H   0  0  0  0  0  0  0  0  0  0  0  0
   -7.5770    6.1666   21.4550 H   0  0  0  0  0  0  0  0  0  0  0  0
   -8.0931    7.1600   20.1045 H   0  0  0  0  0  0  0  0  0  0  0  0
   -7.3140    7.8999   21.4876 H   0  0  0  0  0  0  0  0  0  0  0  0
  1  5  1  0  0  0  0
  2  4  1  0  0  0  0
  3  2  1  0  0  0  0
  3 28  1  0  0  0  0
  4 31  1  0  0  0  0
  4 30  1  0  0  0  0
  5 20  1  0  0  0  0
  6  5  1  0  0  0  0
  6  2  1  0  0  0  0
  8 13  1  0  0  0  0
  8  9  1  0  0  0  0
  9 32  1  0  0  0  0
 10 33  1  0  0  0  0
 10  9  1  0  0  0  0
 11 10  2  0  0  0  0
 12 11  1  0  0  0  0
 12  8  2  0  0  0  0
 13 36  1  0  0  0  0
 13 37  1  0  0  0  0
 14 15  1  0  0  0  0
 14 19  1  0  0  0  0
 15 39  1  0  0  0  0
 16 40  1  0  0  0  0
 16 15  1  0  0  0  0
 17 18  1  0  0  0  0
 17 16  2  0  0  0  0
 18 14  2  0  0  0  0
 19 45  1  0  0  0  0
 19 43  1  0  0  0  0
 20 21  2  0  0  0  0
 20 25  1  0  0  0  0
 21 22  1  0  0  0  0
 22 47  1  0  0  0  0
 22 23  2  0  0  0  0
 23 48  1  0  0  0  0
 24 23  1  0  0  0  0
 24 49  1  0  0  0  0
 25 24  2  0  0  0  0
 26 53  1  0  0  0  0
 26  3  1  0  0  0  0
 27  3  1  0  0  0  0
 27 56  1  0  0  0  0
 28 59  1  0  0  0  0
 28 58  1  0  0  0  0
 29 61  1  0  0  0  0
 29  4  1  0  0  0  0
 30 63  1  0  0  0  0
 30 64  1  0  0  0  0
 31 66  1  0  0  0  0
 31 68  1  0  0  0  0
 34 11  1  0  0  0  0
 35 12  1  0  0  0  0
 38 13  1  0  0  0  0
 41 17  1  0  0  0  0
 42 18  1  0  0  0  0
 44 19  1  0  0  0  0
 46 21  1  0  0  0  0
 50 25  1  0  0  0  0
 51 26  1  0  0  0  0
 52 26  1  0  0  0  0
 54 27  1  0  0  0  0
 55 27  1  0  0  0  0
 57 28  1  0  0  0  0
 60 29  1  0  0  0  0
 62 29  1  0  0  0  0
 65 30  1  0  0  0  0
 67 31  1  0  0  0  0
M  END
$$$$
