CSD_code = ZUFBUZ | q = 0 | S = 0 | Stoichiometry = C16H23AuBClN4O2 | MND = 2
 OpenBabel04212202133D

 48 50  0  0  1  0  0  0  0  0999 V2000
   21.8407    2.3651    4.3593 C   0  0  1  0  0  3  0  0  0  0  0  0
   21.6464    4.5379    4.8286 C   0  0  0  0  0  0  0  0  0  0  0  0
   21.6973    5.5901    4.6376 H   0  0  0  0  0  0  0  0  0  0  0  0
   21.2783    3.8653    5.9390 C   0  0  0  0  0  0  0  0  0  0  0  0
   20.9487    4.1920    6.9022 H   0  0  0  0  0  0  0  0  0  0  0  0
   20.9082   -0.7205    6.8919 C   0  0  0  0  0  0  0  0  0  0  0  0
   20.9538   -1.7173    6.4758 H   0  0  0  0  0  0  0  0  0  0  0  0
   20.6026   -0.4743    8.2250 C   0  0  0  0  0  0  0  0  0  0  0  0
   20.3990   -1.2710    8.9198 H   0  0  0  0  0  0  0  0  0  0  0  0
   20.5676    0.8587    8.6090 C   0  0  0  0  0  0  0  0  0  0  0  0
   20.3299    1.1615    9.6203 H   0  0  0  0  0  0  0  0  0  0  0  0
   21.1151    1.4949    6.5185 C   0  0  0  0  0  0  0  0  0  0  0  0
   22.3792    3.9201    2.5308 C   0  0  0  0  0  0  0  0  0  0  0  0
   23.0312    3.1207    2.1712 H   0  0  0  0  0  0  0  0  0  0  0  0
   22.9325    4.8629    2.5355 H   0  0  0  0  0  0  0  0  0  0  0  0
   21.1528    4.0276    1.6202 C   0  0  0  0  0  0  0  0  0  0  0  0
   20.4712    4.7865    2.0092 H   0  0  0  0  0  0  0  0  0  0  0  0
   20.6253    3.0732    1.6247 H   0  0  0  0  0  0  0  0  0  0  0  0
   21.5484    4.3793    0.1877 C   0  0  0  0  0  0  0  0  0  0  0  0
   22.2796    3.6493   -0.1649 H   0  0  0  0  0  0  0  0  0  0  0  0
   22.0504    5.3479    0.1682 H   0  0  0  0  0  0  0  0  0  0  0  0
   18.2763    3.8543   -1.6694 C   0  0  0  0  0  0  0  0  0  0  0  0
   19.0580    4.7938   -2.6600 C   0  0  0  0  0  0  0  0  0  0  0  0
   16.8617    4.3136   -1.3250 C   0  0  0  0  0  0  0  0  0  0  0  0
   16.4132    3.5902   -0.6489 H   0  0  0  0  0  0  0  0  0  0  0  0
   16.2572    4.3746   -2.2256 H   0  0  0  0  0  0  0  0  0  0  0  0
   16.8704    5.2782   -0.8283 H   0  0  0  0  0  0  0  0  0  0  0  0
   18.2310    2.3951   -2.1360 C   0  0  0  0  0  0  0  0  0  0  0  0
   19.2332    2.0367   -2.3553 H   0  0  0  0  0  0  0  0  0  0  0  0
   17.6000    2.2828   -3.0122 H   0  0  0  0  0  0  0  0  0  0  0  0
   17.8287    1.7868   -1.3295 H   0  0  0  0  0  0  0  0  0  0  0  0
   18.5225    6.2305   -2.6735 C   0  0  0  0  0  0  0  0  0  0  0  0
   18.4786    6.6274   -1.6625 H   0  0  0  0  0  0  0  0  0  0  0  0
   17.5383    6.2770   -3.1294 H   0  0  0  0  0  0  0  0  0  0  0  0
   19.2083    6.8487   -3.2477 H   0  0  0  0  0  0  0  0  0  0  0  0
   19.1526    4.2823   -4.0948 C   0  0  0  0  0  0  0  0  0  0  0  0
   19.6840    3.3376   -4.1405 H   0  0  0  0  0  0  0  0  0  0  0  0
   19.7021    5.0065   -4.6907 H   0  0  0  0  0  0  0  0  0  0  0  0
   18.1586    4.1610   -4.5164 H   0  0  0  0  0  0  0  0  0  0  0  0
   21.9922    3.6048    3.8814 N   0  0  0  0  0  0  0  0  0  0  0  0
   21.3968    2.5261    5.6354 N   0  0  0  0  0  0  0  0  0  0  0  0
   21.1578    0.2604    6.0459 N   0  0  0  0  0  0  0  0  0  0  0  0
   20.8230    1.8446    7.7653 N   0  0  0  0  0  0  0  0  0  0  0  0
   20.3695    4.8461   -2.0885 O   0  0  0  0  0  0  0  0  0  0  0  0
   19.0855    3.8862   -0.4897 O   0  0  0  0  0  0  0  0  0  0  0  0
   22.4825   -1.3558    2.4333 Cl  0  0  0  0  0  0  0  0  0  0  0  0
   22.1380    0.6074    3.4591 Au  0  0  0  0  0  0  0  0  0  0  0  0
   20.3130    4.3747   -0.8135 B   0  0  0  0  0  0  0  0  0  0  0  0
  1 47  1  6  0  0  0
  1 41  1  0  0  0  0
  2  4  2  0  0  0  0
  3  2  1  0  0  0  0
  4  5  1  0  0  0  0
  6  8  2  0  0  0  0
  7  6  1  0  0  0  0
  8 10  1  0  0  0  0
  8  9  1  0  0  0  0
 10 11  1  0  0  0  0
 12 43  1  0  0  0  0
 13 15  1  0  0  0  0
 13 40  1  0  0  0  0
 14 13  1  0  0  0  0
 16 18  1  0  0  0  0
 16 17  1  0  0  0  0
 16 13  1  0  0  0  0
 19 16  1  0  0  0  0
 20 19  1  0  0  0  0
 21 19  1  0  0  0  0
 22 24  1  0  0  0  0
 22 45  1  0  0  0  0
 23 44  1  0  0  0  0
 23 22  1  0  0  0  0
 24 27  1  0  0  0  0
 24 25  1  0  0  0  0
 26 24  1  0  0  0  0
 28 22  1  0  0  0  0
 28 31  1  0  0  0  0
 29 28  1  0  0  0  0
 30 28  1  0  0  0  0
 32 23  1  0  0  0  0
 32 33  1  0  0  0  0
 34 32  1  0  0  0  0
 35 32  1  0  0  0  0
 36 23  1  0  0  0  0
 37 36  1  0  0  0  0
 38 36  1  0  0  0  0
 39 36  1  0  0  0  0
 40  1  1  0  0  0  0
 40  2  1  0  0  0  0
 41  4  1  0  0  0  0
 41 12  1  0  0  0  0
 42 12  2  0  0  0  0
 42  6  1  0  0  0  0
 43 10  2  0  0  0  0
 44 48  1  0  0  0  0
 46 47  1  0  0  0  0
 48 45  1  0  0  0  0
 48 19  1  0  0  0  0
M  END
$$$$
