CSD_code = ZUFKIU | q = 0 | S = 0 | Stoichiometry = C20H29ClIrOP | MND = 8
 OpenBabel04212202133D

 53 53  0  0  1  0  0  0  0  0999 V2000
    4.1632    2.8802   18.4120 Ir  0  0  0  0  0  0  0  0  0  0  0  0
    2.2951    2.7992   16.9667 Cl  0  0  0  0  0 15  0  0  0  0  0  0
    5.3618    4.0033   16.7914 P   0  0  0  0  0  0  0  0  0  0  0  0
    4.2207    5.6496   18.9852 O   0  0  0  0  0  0  0  0  0  0  0  0
    6.0239    2.8422   15.5544 C   0  0  0  0  0  0  0  0  0  0  0  0
    5.1054    1.9942   14.9399 C   0  0  0  0  0  0  0  0  0  0  0  0
    5.5275    1.0569   14.0167 C   0  0  0  0  0  0  0  0  0  0  0  0
    6.8736    0.9489   13.7038 C   0  0  0  0  0  0  0  0  0  0  0  0
    7.7921    1.7830   14.3173 C   0  0  0  0  0  0  0  0  0  0  0  0
    7.3721    2.7253   15.2412 C   0  0  0  0  0  0  0  0  0  0  0  0
    4.4579    5.1893   15.7297 C   0  0  0  0  0  0  0  0  0  0  0  0
    6.7977    5.0168   17.2957 C   0  0  0  0  0  0  0  0  0  0  0  0
    3.5160    4.6672   19.0397 C   0  0  0  0  0  0  0  0  0  0  0  0
    2.1230    4.7194   19.6177 C   0  0  0  0  0  0  0  0  0  0  0  0
    5.6947    2.0540   19.7923 C   0  0  1  0  0  0  0  0  0  0  0  0
    4.4684    2.0820   20.5241 C   0  0  1  0  0  3  0  0  0  0  0  0
    3.5498    1.2515   19.8308 C   0  0  2  0  0  0  0  0  0  0  0  0
    4.2826    0.5377   18.7955 C   0  0  0  0  0  0  0  0  0  0  0  0
    5.5881    1.0115   18.7792 C   0  0  0  0  0  0  0  0  0  0  0  0
    6.9774    2.6452   20.2879 C   0  0  0  0  0  0  0  0  0  0  0  0
    4.2733    2.7918   21.8282 C   0  0  0  0  0  0  0  0  0  0  0  0
    2.1741    0.8522   20.2650 C   0  0  0  0  0  0  0  0  0  0  0  0
    3.6847   -0.5495   17.9652 C   0  0  0  0  0  0  0  0  0  0  0  0
    6.7332    0.4918   17.9708 C   0  0  0  0  0  0  0  0  0  0  0  0
    4.0595    2.0723   15.2022 H   0  0  0  0  0  0  0  0  0  0  0  0
    4.8079    0.4043   13.5442 H   0  0  0  0  0  0  0  0  0  0  0  0
    7.2069    0.2132   12.9866 H   0  0  0  0  0  0  0  0  0  0  0  0
    8.8427    1.6982   14.0788 H   0  0  0  0  0  0  0  0  0  0  0  0
    8.1026    3.3653   15.7134 H   0  0  0  0  0  0  0  0  0  0  0  0
    3.5767    4.7016   15.3185 H   0  0  0  0  0  0  0  0  0  0  0  0
    4.1440    6.0277   16.3484 H   0  0  0  0  0  0  0  0  0  0  0  0
    5.1054    5.5360   14.9248 H   0  0  0  0  0  0  0  0  0  0  0  0
    6.4266    5.7755   17.9804 H   0  0  0  0  0  0  0  0  0  0  0  0
    7.5309    4.4050   17.8143 H   0  0  0  0  0  0  0  0  0  0  0  0
    7.2507    5.4936   16.4280 H   0  0  0  0  0  0  0  0  0  0  0  0
    1.9732    5.6632   20.1392 H   0  0  0  0  0  0  0  0  0  0  0  0
    1.9306    3.8839   20.2821 H   0  0  0  0  0  0  0  0  0  0  0  0
    1.4232    4.6466   18.7859 H   0  0  0  0  0  0  0  0  0  0  0  0
    7.7488    2.6106   19.5223 H   0  0  0  0  0  0  0  0  0  0  0  0
    7.3350    2.0827   21.1531 H   0  0  0  0  0  0  0  0  0  0  0  0
    6.8353    3.6799   20.5946 H   0  0  0  0  0  0  0  0  0  0  0  0
    4.6147    3.8243   21.7746 H   0  0  0  0  0  0  0  0  0  0  0  0
    4.8518    2.2868   22.6043 H   0  0  0  0  0  0  0  0  0  0  0  0
    3.2293    2.7899   22.1311 H   0  0  0  0  0  0  0  0  0  0  0  0
    1.7961    1.5042   21.0494 H   0  0  0  0  0  0  0  0  0  0  0  0
    2.1876   -0.1703   20.6473 H   0  0  0  0  0  0  0  0  0  0  0  0
    1.4815    0.8865   19.4252 H   0  0  0  0  0  0  0  0  0  0  0  0
    2.7611   -0.2082   17.4983 H   0  0  0  0  0  0  0  0  0  0  0  0
    3.4466   -1.4135   18.5886 H   0  0  0  0  0  0  0  0  0  0  0  0
    4.3691   -0.8661   17.1815 H   0  0  0  0  0  0  0  0  0  0  0  0
    6.3878    0.0194   17.0534 H   0  0  0  0  0  0  0  0  0  0  0  0
    7.2913   -0.2479   18.5489 H   0  0  0  0  0  0  0  0  0  0  0  0
    7.4189    1.2917   17.6957 H   0  0  0  0  0  0  0  0  0  0  0  0
  1 13  1  0  0  0  0
  1 15  1  0  0  0  0
  1 17  1  0  0  0  0
  3 12  1  0  0  0  0
  4 13  2  0  0  0  0
  5  3  1  0  0  0  0
  6 25  1  0  0  0  0
  6  5  2  0  0  0  0
  7  6  1  0  0  0  0
  8  7  2  0  0  0  0
  8  9  1  0  0  0  0
  9 10  2  0  0  0  0
 10  5  1  0  0  0  0
 10 29  1  0  0  0  0
 11 31  1  0  0  0  0
 11  3  1  0  0  0  0
 12 34  1  0  0  0  0
 12 33  1  0  0  0  0
 13 14  1  0  0  0  0
 14 36  1  0  0  0  0
 14 37  1  0  0  0  0
 15 20  1  1  0  0  0
 15 16  1  0  0  0  0
 16 21  1  1  0  0  0
 17 22  1  1  0  0  0
 17 16  1  0  0  0  0
 18 17  1  0  0  0  0
 19 18  2  0  0  0  0
 19 15  1  0  0  0  0
 20 41  1  0  0  0  0
 20 40  1  0  0  0  0
 21 44  1  0  0  0  0
 21 43  1  0  0  0  0
 22 46  1  0  0  0  0
 22 45  1  0  0  0  0
 23 49  1  0  0  0  0
 23 18  1  0  0  0  0
 24 52  1  0  0  0  0
 24 19  1  0  0  0  0
 26  7  1  0  0  0  0
 27  8  1  0  0  0  0
 28  9  1  0  0  0  0
 30 11  1  0  0  0  0
 32 11  1  0  0  0  0
 35 12  1  0  0  0  0
 38 14  1  0  0  0  0
 39 20  1  0  0  0  0
 42 21  1  0  0  0  0
 47 22  1  0  0  0  0
 48 23  1  0  0  0  0
 50 23  1  0  0  0  0
 51 24  1  0  0  0  0
 53 24  1  0  0  0  0
M  END
$$$$
