CSD_code = ZUGGAL | q = 1 | S = 0 | Stoichiometry = C31H27ClN5Ni(1+) | MND = 6
 OpenBabel04212202133D

 65 73  0  0  1  0  0  0  0  0999 V2000
   -2.0252    3.7036   11.1955 Ni  0  0  0  0  0  0  0  0  0  0  0  0
   -0.3379    2.4478   11.7386 Cl  0  0  0  0  0  0  0  0  0  0  0  0
   -1.1039    5.6253   11.8705 N   0  0  0  0  0  0  0  0  0  0  0  0
   -1.0899    4.0330    9.6700 N   0  0  0  0  0  0  0  0  0  0  0  0
   -3.2784    1.9448   10.3833 N   0  0  0  0  0  0  0  0  0  0  0  0
   -3.8864    4.5481   10.4348 N   0  0  0  0  0  4  0  0  0  0  0  0
   -2.9038    3.5566   12.8322 N   0  0  0  0  0  0  0  0  0  0  0  0
   -1.0272    6.3380   12.9729 C   0  0  0  0  0  0  0  0  0  0  0  0
   -1.5378    5.9426   13.8417 H   0  0  0  0  0  0  0  0  0  0  0  0
   -0.3411    7.5524   13.0583 C   0  0  0  0  0  0  0  0  0  0  0  0
   -0.3173    8.0904   13.9922 H   0  0  0  0  0  0  0  0  0  0  0  0
    0.2814    8.0440   11.9373 C   0  0  0  0  0  0  0  0  0  0  0  0
    0.8068    8.9874   11.9566 H   0  0  0  0  0  0  0  0  0  0  0  0
    0.8811    7.7109    9.5487 C   0  0  0  0  0  0  0  0  0  0  0  0
    1.3930    8.6613    9.5442 H   0  0  0  0  0  0  0  0  0  0  0  0
    0.8602    6.9284    8.4444 C   0  0  0  0  0  0  0  0  0  0  0  0
    1.3532    7.2388    7.5358 H   0  0  0  0  0  0  0  0  0  0  0  0
    0.2359    4.7979    7.3435 C   0  0  0  0  0  0  0  0  0  0  0  0
    0.7470    5.0982    6.4416 H   0  0  0  0  0  0  0  0  0  0  0  0
   -0.3721    3.5699    7.4436 C   0  0  0  0  0  0  0  0  0  0  0  0
   -0.3517    2.8657    6.6277 H   0  0  0  0  0  0  0  0  0  0  0  0
   -1.0187    3.2237    8.6299 C   0  0  0  0  0  0  0  0  0  0  0  0
   -1.4721    2.2469    8.7333 H   0  0  0  0  0  0  0  0  0  0  0  0
    0.2447    7.2929   10.7514 C   0  0  0  0  0  0  0  0  0  0  0  0
   -0.4545    6.0678   10.7774 C   0  0  0  0  0  0  0  0  0  0  0  0
   -0.4698    5.2312    9.6121 C   0  0  0  0  0  0  0  0  0  0  0  0
    0.2117    5.6600    8.4503 C   0  0  0  0  0  0  0  0  0  0  0  0
   -2.3854   10.0478    9.6752 C   0  0  0  0  0  0  0  0  0  0  0  0
   -1.3499   10.1596    9.9983 H   0  0  0  0  0  0  0  0  0  0  0  0
   -2.9960   10.7184   10.2750 H   0  0  0  0  0  0  0  0  0  0  0  0
   -2.4488   10.3494    8.6331 H   0  0  0  0  0  0  0  0  0  0  0  0
   -2.8249    8.6295    9.8494 C   0  0  0  0  0  0  0  0  0  0  0  0
   -2.7879    7.7258    8.7979 C   0  0  0  0  0  0  0  0  0  0  0  0
   -2.4600    8.0540    7.8227 H   0  0  0  0  0  0  0  0  0  0  0  0
   -3.1668    6.4061    8.9635 C   0  0  0  0  0  0  0  0  0  0  0  0
   -3.1094    5.7644    8.0982 H   0  0  0  0  0  0  0  0  0  0  0  0
   -3.5913    5.9281   10.2026 C   0  0  0  0  0  0  0  0  0  0  0  0
   -3.6406    6.8429   11.2570 C   0  0  0  0  0  0  0  0  0  0  0  0
   -3.9402    6.5329   12.2458 H   0  0  0  0  0  0  0  0  0  0  0  0
   -3.2658    8.1603   11.0796 C   0  0  0  0  0  0  0  0  0  0  0  0
   -3.3153    8.8359   11.9209 H   0  0  0  0  0  0  0  0  0  0  0  0
   -4.8290    4.3248   11.5450 C   0  0  0  0  0  0  0  0  0  0  0  0
   -5.4186    3.4284   11.3215 H   0  0  0  0  0  0  0  0  0  0  0  0
   -5.5349    5.1593   11.6353 H   0  0  0  0  0  0  0  0  0  0  0  0
   -4.1437    4.0588   12.8567 C   0  0  1  0  0  3  0  0  0  0  0  0
   -4.8269    4.2624   14.0501 C   0  0  0  0  0  0  0  0  0  0  0  0
   -5.8247    4.6728   14.0291 H   0  0  0  0  0  0  0  0  0  0  0  0
   -4.2225    3.9294   15.2493 C   0  0  0  0  0  0  0  0  0  0  0  0
   -4.7375    4.0810   16.1850 H   0  0  0  0  0  0  0  0  0  0  0  0
   -2.9459    3.3919   15.2123 C   0  0  0  0  0  0  0  0  0  0  0  0
   -2.4333    3.1040   16.1153 H   0  0  0  0  0  0  0  0  0  0  0  0
   -2.3244    3.2280   13.9872 C   0  0  0  0  0  0  0  0  0  0  0  0
   -1.3284    2.8081   13.9208 H   0  0  0  0  0  0  0  0  0  0  0  0
   -4.3478    3.7834    9.2685 C   0  0  0  0  0  0  0  0  0  0  0  0
   -3.6989    3.9760    8.4118 H   0  0  0  0  0  0  0  0  0  0  0  0
   -5.3705    4.0704    8.9898 H   0  0  0  0  0  0  0  0  0  0  0  0
   -4.2645    2.3033    9.5613 C   0  0  1  0  0  3  0  0  0  0  0  0
   -5.1297    1.3824    8.9896 C   0  0  0  0  0  0  0  0  0  0  0  0
   -5.9158    1.7089    8.3265 H   0  0  0  0  0  0  0  0  0  0  0  0
   -4.9582    0.0392    9.2890 C   0  0  0  0  0  0  0  0  0  0  0  0
   -5.6153   -0.7019    8.8609 H   0  0  0  0  0  0  0  0  0  0  0  0
   -3.9332   -0.3308   10.1455 C   0  0  0  0  0  0  0  0  0  0  0  0
   -3.7689   -1.3643   10.4023 H   0  0  0  0  0  0  0  0  0  0  0  0
   -3.1163    0.6587   10.6696 C   0  0  0  0  0  0  0  0  0  0  0  0
   -2.2940    0.4278   11.3341 H   0  0  0  0  0  0  0  0  0  0  0  0
  1  2  1  0  0  0  0
  1  3  1  0  0  0  0
  1  7  1  0  0  0  0
  3  8  1  0  0  0  0
  4  1  1  0  0  0  0
  5 64  1  0  0  0  0
  5  1  1  0  0  0  0
  6  1  1  0  0  0  0
  6 42  1  0  0  0  0
  7 45  1  0  0  0  0
  7 52  1  0  0  0  0
  8 10  2  0  0  0  0
  8  9  1  0  0  0  0
 10 11  1  0  0  0  0
 12 13  1  0  0  0  0
 12 10  1  0  0  0  0
 14 24  1  0  0  0  0
 15 14  1  0  0  0  0
 16 27  1  0  0  0  0
 16 14  2  0  0  0  0
 17 16  1  0  0  0  0
 18 20  1  0  0  0  0
 18 27  2  0  0  0  0
 19 18  1  0  0  0  0
 20 22  2  0  0  0  0
 21 20  1  0  0  0  0
 22 23  1  0  0  0  0
 22  4  1  0  0  0  0
 24 25  1  0  0  0  0
 24 12  2  0  0  0  0
 25  3  1  0  0  0  0
 26  4  1  0  0  0  0
 26 25  2  0  0  0  0
 27 26  1  0  0  0  0
 28 32  1  0  0  0  0
 28 29  1  0  0  0  0
 28 30  1  0  0  0  0
 31 28  1  0  0  0  0
 32 40  1  0  0  0  0
 33 35  1  0  0  0  0
 33 32  2  0  0  0  0
 34 33  1  0  0  0  0
 35 37  2  0  0  0  0
 36 35  1  0  0  0  0
 37  6  1  0  0  0  0
 37 38  1  0  0  0  0
 38 39  1  0  0  0  0
 40 38  2  0  0  0  0
 40 41  1  0  0  0  0
 42 44  1  0  0  0  0
 42 45  1  0  0  0  0
 43 42  1  0  0  0  0
 45 46  1  1  0  0  0
 46 48  2  0  0  0  0
 47 46  1  0  0  0  0
 48 49  1  0  0  0  0
 50 48  1  0  0  0  0
 50 51  1  0  0  0  0
 52 50  2  0  0  0  0
 53 52  1  0  0  0  0
 54 57  1  0  0  0  0
 54  6  1  0  0  0  0
 55 54  1  0  0  0  0
 56 54  1  0  0  0  0
 57 58  1  6  0  0  0
 57  5  1  0  0  0  0
 58 60  2  0  0  0  0
 59 58  1  0  0  0  0
 60 62  1  0  0  0  0
 61 60  1  0  0  0  0
 62 63  1  0  0  0  0
 62 64  2  0  0  0  0
 64 65  1  0  0  0  0
M  END
$$$$
