CSD_code = ZUGXEE | q = -1 | S = 0 | Stoichiometry = C10H20BrCdN2S4(1-) | MND = 5
 OpenBabel04212202133D

 38 39  0  0  0  0  0  0  0  0999 V2000
    2.8125    2.6236   12.8490 Cd  0  0  0  0  0  0  0  0  0  0  0  0
    0.6381    2.3490   14.1199 Br  0  0  0  0  0  0  0  0  0  0  0  0
    4.0996    0.2042   12.8188 S   0  0  0  0  0  0  0  0  0  0  0  0
    4.8976    2.4120   14.6168 S   0  0  0  0  0  0  0  0  0  0  0  0
    2.2063    3.0383   10.2040 S   0  0  0  0  0  0  0  0  0  0  0  0
    3.0429    5.2238   12.0112 S   0  0  0  0  0  0  0  0  0  0  0  0
    5.8059   -0.0493   14.8064 N   0  0  0  0  0  0  0  0  0  0  0  0
    2.0769    5.5947    9.5925 N   0  0  0  0  0  0  0  0  0  0  0  0
    4.9900    0.7885   14.1379 C   0  0  0  0  0  3  0  0  0  0  0  0
    2.4074    4.6888   10.5333 C   0  0  0  0  0  3  0  0  0  0  0  0
    5.9451   -1.4346   14.4159 C   0  0  0  0  0  0  0  0  0  0  0  0
    6.9497   -1.7664   14.6948 H   0  0  0  0  0  0  0  0  0  0  0  0
    5.8402   -1.4976   13.3299 H   0  0  0  0  0  0  0  0  0  0  0  0
    4.8869   -2.3160   15.0758 C   0  0  0  0  0  0  0  0  0  0  0  0
    5.0220   -3.3523   14.7759 H   0  0  0  0  0  0  0  0  0  0  0  0
    4.9508   -2.2494   16.1602 H   0  0  0  0  0  0  0  0  0  0  0  0
    3.8997   -1.9861   14.7638 H   0  0  0  0  0  0  0  0  0  0  0  0
    6.5465    0.3908   15.9673 C   0  0  0  0  0  0  0  0  0  0  0  0
    6.6776   -0.4671   16.6330 H   0  0  0  0  0  0  0  0  0  0  0  0
    5.9574    1.1533   16.4836 H   0  0  0  0  0  0  0  0  0  0  0  0
    7.9019    0.9790   15.5811 C   0  0  0  0  0  0  0  0  0  0  0  0
    8.4467    1.2807   16.4721 H   0  0  0  0  0  0  0  0  0  0  0  0
    8.4958    0.2505   15.0321 H   0  0  0  0  0  0  0  0  0  0  0  0
    7.7478    1.8512   14.9517 H   0  0  0  0  0  0  0  0  0  0  0  0
    1.5585    5.1869    8.3057 C   0  0  0  0  0  0  0  0  0  0  0  0
    2.0294    4.2400    8.0300 H   0  0  0  0  0  0  0  0  0  0  0  0
    1.8373    5.9484    7.5714 H   0  0  0  0  0  0  0  0  0  0  0  0
    0.0427    5.0046    8.3390 C   0  0  0  0  0  0  0  0  0  0  0  0
   -0.3206    4.7103    7.3576 H   0  0  0  0  0  0  0  0  0  0  0  0
   -0.2093    4.2266    9.0544 H   0  0  0  0  0  0  0  0  0  0  0  0
   -0.4509    5.9274    8.6380 H   0  0  0  0  0  0  0  0  0  0  0  0
    2.1758    7.0142    9.8488 C   0  0  0  0  0  0  0  0  0  0  0  0
    1.9842    7.1869   10.9111 H   0  0  0  0  0  0  0  0  0  0  0  0
    1.4043    7.5212    9.2624 H   0  0  0  0  0  0  0  0  0  0  0  0
    3.5588    7.5554    9.4930 C   0  0  0  0  0  0  0  0  0  0  0  0
    3.5991    8.6265    9.6740 H   0  0  0  0  0  0  0  0  0  0  0  0
    4.3054    7.0666   10.1128 H   0  0  0  0  0  0  0  0  0  0  0  0
    3.7909    7.3636    8.4469 H   0  0  0  0  0  0  0  0  0  0  0  0
  1  2  1  0  0  0  0
  1  4  1  0  0  0  0
  3  1  1  0  0  0  0
  3  9  1  0  0  0  0
  5 10  1  0  0  0  0
  5  1  1  0  0  0  0
  6  1  1  0  0  0  0
  7 18  1  0  0  0  0
  8 32  1  0  0  0  0
  8 10  1  0  0  0  0
  9  4  1  0  0  0  0
  9  7  1  0  0  0  0
 10  6  1  0  0  0  0
 11 12  1  0  0  0  0
 11  7  1  0  0  0  0
 11 14  1  0  0  0  0
 13 11  1  0  0  0  0
 14 16  1  0  0  0  0
 15 14  1  0  0  0  0
 17 14  1  0  0  0  0
 18 20  1  0  0  0  0
 18 19  1  0  0  0  0
 21 18  1  0  0  0  0
 21 22  1  0  0  0  0
 23 21  1  0  0  0  0
 24 21  1  0  0  0  0
 25 28  1  0  0  0  0
 25  8  1  0  0  0  0
 26 25  1  0  0  0  0
 27 25  1  0  0  0  0
 28 31  1  0  0  0  0
 28 30  1  0  0  0  0
 29 28  1  0  0  0  0
 32 33  1  0  0  0  0
 34 32  1  0  0  0  0
 35 36  1  0  0  0  0
 35 32  1  0  0  0  0
 35 37  1  0  0  0  0
 38 35  1  0  0  0  0
M  END
$$$$
