CSD_code = ZUGXAA | q = -1 | S = 0 | Stoichiometry = C10H20CdClN2S4(1-) | MND = 5
 OpenBabel04212202133D

 38 39  0  0  0  0  0  0  0  0999 V2000
    2.6496    2.5865   12.6992 Cd  0  0  0  0  0  0  0  0  0  0  0  0
    0.5951    2.3175   13.8762 Cl  0  0  0  0  0  0  0  0  0  0  0  0
    3.9558    0.1953   12.6556 S   0  0  0  0  0  0  0  0  0  0  0  0
    4.7117    2.4017   14.4723 S   0  0  0  0  0  0  0  0  0  0  0  0
    2.0600    3.0104   10.0689 S   0  0  0  0  0  0  0  0  0  0  0  0
    2.9116    5.1748   11.8937 S   0  0  0  0  0  0  0  0  0  0  0  0
    5.6975   -0.0339   14.6174 N   0  0  0  0  0  0  0  0  0  0  0  0
    1.9884    5.5720    9.4619 N   0  0  0  0  0  0  0  0  0  0  0  0
    4.8479    0.7878   13.9715 C   0  0  0  0  0  3  0  0  0  0  0  0
    2.2869    4.6571   10.4042 C   0  0  0  0  0  3  0  0  0  0  0  0
    5.8745   -1.4087   14.2056 C   0  0  0  0  0  0  0  0  0  0  0  0
    6.8934   -1.7121   14.4640 H   0  0  0  0  0  0  0  0  0  0  0  0
    5.7522   -1.4595   13.1210 H   0  0  0  0  0  0  0  0  0  0  0  0
    4.8559   -2.3318   14.8704 C   0  0  0  0  0  0  0  0  0  0  0  0
    5.0183   -3.3594   14.5548 H   0  0  0  0  0  0  0  0  0  0  0  0
    4.9353   -2.2772   15.9545 H   0  0  0  0  0  0  0  0  0  0  0  0
    3.8546   -2.0283   14.5777 H   0  0  0  0  0  0  0  0  0  0  0  0
    6.4455    0.4149   15.7704 C   0  0  0  0  0  0  0  0  0  0  0  0
    6.6215   -0.4476   16.4195 H   0  0  0  0  0  0  0  0  0  0  0  0
    5.8403    1.1485   16.3090 H   0  0  0  0  0  0  0  0  0  0  0  0
    7.7699    1.0583   15.3656 C   0  0  0  0  0  0  0  0  0  0  0  0
    8.3202    1.3714   16.2493 H   0  0  0  0  0  0  0  0  0  0  0  0
    8.3803    0.3593   14.7969 H   0  0  0  0  0  0  0  0  0  0  0  0
    7.5684    1.9302   14.7497 H   0  0  0  0  0  0  0  0  0  0  0  0
    1.4825    5.1794    8.1654 C   0  0  0  0  0  0  0  0  0  0  0  0
    1.9335    4.2208    7.8978 H   0  0  0  0  0  0  0  0  0  0  0  0
    1.7923    5.9347    7.4372 H   0  0  0  0  0  0  0  0  0  0  0  0
   -0.0377    5.0352    8.1738 C   0  0  0  0  0  0  0  0  0  0  0  0
   -0.3933    4.7497    7.1869 H   0  0  0  0  0  0  0  0  0  0  0  0
   -0.3190    4.2641    8.8855 H   0  0  0  0  0  0  0  0  0  0  0  0
   -0.5125    5.9703    8.4649 H   0  0  0  0  0  0  0  0  0  0  0  0
    2.1258    6.9879    9.7200 C   0  0  0  0  0  0  0  0  0  0  0  0
    1.9180    7.1667   10.7780 H   0  0  0  0  0  0  0  0  0  0  0  0
    1.3838    7.5181    9.1163 H   0  0  0  0  0  0  0  0  0  0  0  0
    3.5328    7.4844    9.3946 C   0  0  0  0  0  0  0  0  0  0  0  0
    3.6045    8.5537    9.5773 H   0  0  0  0  0  0  0  0  0  0  0  0
    4.2474    6.9702   10.0310 H   0  0  0  0  0  0  0  0  0  0  0  0
    3.7810    7.2849    8.3538 H   0  0  0  0  0  0  0  0  0  0  0  0
  1  2  1  0  0  0  0
  1  4  1  0  0  0  0
  3  1  1  0  0  0  0
  3  9  1  0  0  0  0
  5 10  1  0  0  0  0
  5  1  1  0  0  0  0
  6  1  1  0  0  0  0
  7 18  1  0  0  0  0
  8 32  1  0  0  0  0
  8 10  1  0  0  0  0
  9  4  1  0  0  0  0
  9  7  1  0  0  0  0
 10  6  1  0  0  0  0
 11 12  1  0  0  0  0
 11  7  1  0  0  0  0
 11 14  1  0  0  0  0
 13 11  1  0  0  0  0
 14 16  1  0  0  0  0
 15 14  1  0  0  0  0
 17 14  1  0  0  0  0
 18 20  1  0  0  0  0
 18 19  1  0  0  0  0
 21 18  1  0  0  0  0
 21 22  1  0  0  0  0
 23 21  1  0  0  0  0
 24 21  1  0  0  0  0
 25 28  1  0  0  0  0
 25  8  1  0  0  0  0
 26 25  1  0  0  0  0
 27 25  1  0  0  0  0
 28 31  1  0  0  0  0
 28 30  1  0  0  0  0
 29 28  1  0  0  0  0
 32 33  1  0  0  0  0
 34 32  1  0  0  0  0
 35 36  1  0  0  0  0
 35 32  1  0  0  0  0
 35 37  1  0  0  0  0
 38 35  1  0  0  0  0
M  END
$$$$
