CSD_code = ZUKPIG | q = -1 | S = 0 | Stoichiometry = C26H31AuClN2O2(1-) | MND = 2
 OpenBabel04212202133D

 63 65  0  0  1  0  0  0  0  0999 V2000
   10.6213    2.7145   23.3669 C   0  0  2  0  0  3  0  0  0  0  0  0
   12.8375    3.7905   23.1420 C   0  0  0  0  0  0  0  0  0  0  0  0
   12.5103    4.1514   21.8218 C   0  0  1  0  0  3  0  0  0  0  0  0
   11.2601    3.8139   21.2641 C   0  0  0  0  0  0  0  0  0  0  0  0
   13.4731    4.9266   20.9191 C   0  0  0  0  0  0  0  0  0  0  0  0
   13.7574    4.0910   19.6613 C   0  0  0  0  0  0  0  0  0  0  0  0
   12.8287    3.8800   19.1394 H   0  0  0  0  0  0  0  0  0  0  0  0
   14.2312    3.1492   19.9350 H   0  0  0  0  0  0  0  0  0  0  0  0
   14.4227    4.6321   18.9892 H   0  0  0  0  0  0  0  0  0  0  0  0
   12.8107    6.2503   20.5068 C   0  0  0  0  0  0  0  0  0  0  0  0
   12.6094    6.8599   21.3868 H   0  0  0  0  0  0  0  0  0  0  0  0
   11.8746    6.0513   19.9934 H   0  0  0  0  0  0  0  0  0  0  0  0
   13.4649    6.8099   19.8389 H   0  0  0  0  0  0  0  0  0  0  0  0
   14.8129    5.2544   21.5795 C   0  0  0  0  0  0  0  0  0  0  0  0
   15.4349    5.8060   20.8728 H   0  0  0  0  0  0  0  0  0  0  0  0
   15.3358    4.3489   21.8729 H   0  0  0  0  0  0  0  0  0  0  0  0
   14.6727    5.8602   22.4695 H   0  0  0  0  0  0  0  0  0  0  0  0
   12.1299    2.6888   25.1856 C   0  0  0  0  0  0  0  0  0  0  0  0
   11.8053    3.5517   26.2289 C   0  0  0  0  0  0  0  0  0  0  0  0
   12.1131    3.1691   27.5243 C   0  0  0  0  0  0  0  0  0  0  0  0
   11.8589    3.8280   28.3435 H   0  0  0  0  0  0  0  0  0  0  0  0
   12.7397    1.9605   27.7912 C   0  0  0  0  0  0  0  0  0  0  0  0
   13.0710    1.1307   26.7311 C   0  0  0  0  0  0  0  0  0  0  0  0
   13.5686    0.1904   26.9262 H   0  0  0  0  0  0  0  0  0  0  0  0
   12.7785    1.4803   25.4222 C   0  0  0  0  0  0  0  0  0  0  0  0
   11.1332    4.8576   25.9363 C   0  0  0  0  0  0  0  0  0  0  0  0
   10.1453    4.6824   25.5078 H   0  0  0  0  0  0  0  0  0  0  0  0
   11.7194    5.4228   25.2128 H   0  0  0  0  0  0  0  0  0  0  0  0
   11.0218    5.4482   26.8425 H   0  0  0  0  0  0  0  0  0  0  0  0
   13.0300    1.5521   29.2056 C   0  0  0  0  0  0  0  0  0  0  0  0
   12.1431    1.0959   29.6470 H   0  0  0  0  0  0  0  0  0  0  0  0
   13.3011    2.4152   29.8106 H   0  0  0  0  0  0  0  0  0  0  0  0
   13.8393    0.8262   29.2429 H   0  0  0  0  0  0  0  0  0  0  0  0
   13.1416    0.5906   24.2737 C   0  0  0  0  0  0  0  0  0  0  0  0
   12.2415    0.2640   23.7514 H   0  0  0  0  0  0  0  0  0  0  0  0
   13.6849   -0.2861   24.6183 H   0  0  0  0  0  0  0  0  0  0  0  0
   13.7624    1.1378   23.5651 H   0  0  0  0  0  0  0  0  0  0  0  0
    9.1058    2.7420   21.5463 C   0  0  0  0  0  0  0  0  0  0  0  0
    8.0475    3.6416   21.6428 C   0  0  0  0  0  0  0  0  0  0  0  0
    6.8278    3.2899   21.0879 C   0  0  0  0  0  0  0  0  0  0  0  0
    5.9964    3.9777   21.1628 H   0  0  0  0  0  0  0  0  0  0  0  0
    6.6517    2.0759   20.4401 C   0  0  0  0  0  0  0  0  0  0  0  0
    7.7284    1.2080   20.3419 C   0  0  0  0  0  0  0  0  0  0  0  0
    7.6051    0.2620   19.8322 H   0  0  0  0  0  0  0  0  0  0  0  0
    8.9637    1.5260   20.8843 C   0  0  0  0  0  0  0  0  0  0  0  0
    8.2442    4.9530   22.3384 C   0  0  0  0  0  0  0  0  0  0  0  0
    8.4963    4.7885   23.3868 H   0  0  0  0  0  0  0  0  0  0  0  0
    7.3433    5.5596   22.2851 H   0  0  0  0  0  0  0  0  0  0  0  0
    9.0669    5.4968   21.8755 H   0  0  0  0  0  0  0  0  0  0  0  0
    5.3252    1.7243   19.8324 C   0  0  0  0  0  0  0  0  0  0  0  0
    4.5092    2.1148   20.4369 H   0  0  0  0  0  0  0  0  0  0  0  0
    5.2131    0.6461   19.7451 H   0  0  0  0  0  0  0  0  0  0  0  0
    5.2441    2.1575   18.8343 H   0  0  0  0  0  0  0  0  0  0  0  0
   10.1293    0.5916   20.7782 C   0  0  0  0  0  0  0  0  0  0  0  0
    9.8841   -0.2649   20.1548 H   0  0  0  0  0  0  0  0  0  0  0  0
   10.4134    0.2345   21.7692 H   0  0  0  0  0  0  0  0  0  0  0  0
   10.9851    1.1110   20.3487 H   0  0  0  0  0  0  0  0  0  0  0  0
   13.8633    4.0021   23.7878 O   0  0  0  0  0  0  0  0  0  0  0  0
   10.8345    4.0668   20.1330 O   0  0  0  0  0  0  0  0  0  0  0  0
    7.7699    0.5403   25.7248 Cl  0  0  0  0  0  0  0  0  0  0  0  0
    9.2768    1.6903   24.4756 Au  0  0  0  0  0  0  0  0  0  0  0  0
   11.8115    3.0616   23.8443 N   0  0  0  0  0  0  0  0  0  0  0  0
   10.3693    3.0857   22.1151 N   0  0  0  0  0  0  0  0  0  0  0  0
  1 62  1  0  0  0  0
  1 61  1  1  0  0  0
  2 58  2  0  0  0  0
  2 62  1  0  0  0  0
  3  5  1  1  0  0  0
  3  2  1  0  0  0  0
  4  3  1  0  0  0  0
  4 63  1  0  0  0  0
  5 14  1  0  0  0  0
  6  8  1  0  0  0  0
  6  5  1  0  0  0  0
  7  6  1  0  0  0  0
  9  6  1  0  0  0  0
 10  5  1  0  0  0  0
 10 11  1  0  0  0  0
 12 10  1  0  0  0  0
 13 10  1  0  0  0  0
 14 16  1  0  0  0  0
 14 17  1  0  0  0  0
 15 14  1  0  0  0  0
 18 25  2  0  0  0  0
 18 19  1  0  0  0  0
 19 20  2  0  0  0  0
 20 22  1  0  0  0  0
 20 21  1  0  0  0  0
 22 30  1  0  0  0  0
 23 24  1  0  0  0  0
 23 22  2  0  0  0  0
 25 23  1  0  0  0  0
 26 19  1  0  0  0  0
 26 29  1  0  0  0  0
 27 26  1  0  0  0  0
 28 26  1  0  0  0  0
 30 33  1  0  0  0  0
 30 31  1  0  0  0  0
 30 32  1  0  0  0  0
 34 36  1  0  0  0  0
 34 25  1  0  0  0  0
 35 34  1  0  0  0  0
 37 34  1  0  0  0  0
 38 39  1  0  0  0  0
 38 63  1  0  0  0  0
 39 46  1  0  0  0  0
 40 41  1  0  0  0  0
 40 39  2  0  0  0  0
 42 40  1  0  0  0  0
 43 42  2  0  0  0  0
 43 45  1  0  0  0  0
 44 43  1  0  0  0  0
 45 38  2  0  0  0  0
 46 47  1  0  0  0  0
 48 46  1  0  0  0  0
 49 46  1  0  0  0  0
 50 51  1  0  0  0  0
 50 42  1  0  0  0  0
 52 50  1  0  0  0  0
 53 50  1  0  0  0  0
 54 45  1  0  0  0  0
 54 56  1  0  0  0  0
 55 54  1  0  0  0  0
 57 54  1  0  0  0  0
 59  4  2  0  0  0  0
 61 60  1  0  0  0  0
 62 18  1  0  0  0  0
 63  1  1  0  0  0  0
M  END
$$$$
