CSD_code = ZUKQUT | q = 0 | S = 0 | Stoichiometry = C21H16Cl2NPPd | MND = 4
 OpenBabel04212202133D

 42 46  0  0  1  0  0  0  0  0999 V2000
    3.7071    4.4649   10.7323 Pd  0  0  0  0  0  0  0  0  0  0  0  0
    5.5168    3.1458   11.0505 Cl  0  0  0  0  0  0  0  0  0  0  0  0
    3.5272    3.7771    8.6239 Cl  0  0  0  0  0  0  0  0  0  0  0  0
    2.1320    6.0087   10.3649 P   0  0  0  0  0  4  0  0  0  0  0  0
    3.6925    5.1675   12.6766 N   0  0  0  0  0  0  0  0  0  0  0  0
    4.4892    4.6720   13.6004 C   0  0  0  0  0  0  0  0  0  0  0  0
    5.1782    3.8995   13.2704 H   0  0  0  0  0  0  0  0  0  0  0  0
    4.4808    5.1072   14.9330 C   0  0  0  0  0  0  0  0  0  0  0  0
    5.1646    4.6578   15.6349 H   0  0  0  0  0  0  0  0  0  0  0  0
    3.6082    6.0897   15.3137 C   0  0  0  0  0  0  0  0  0  0  0  0
    3.5698    6.4517   16.3305 H   0  0  0  0  0  0  0  0  0  0  0  0
    1.8039    7.6517   14.6608 C   0  0  0  0  0  0  0  0  0  0  0  0
    1.7586    8.0145   15.6769 H   0  0  0  0  0  0  0  0  0  0  0  0
    0.9730    8.1587   13.6988 C   0  0  0  0  0  0  0  0  0  0  0  0
    0.2616    8.9323   13.9452 H   0  0  0  0  0  0  0  0  0  0  0  0
    1.0372    7.6767   12.3864 C   0  0  0  0  0  0  0  0  0  0  0  0
    0.3736    8.0794   11.6351 H   0  0  0  0  0  0  0  0  0  0  0  0
    1.9313    6.6890   12.0452 C   0  0  0  0  0  0  0  0  0  0  0  0
    2.8079    6.1492   13.0195 C   0  0  1  0  0  3  0  0  0  0  0  0
    2.7368    6.6414   14.3503 C   0  0  0  0  0  0  0  0  0  0  0  0
    0.4782    5.9329    9.6400 C   0  0  0  0  0  0  0  0  0  0  0  0
    0.3601    6.0174    8.2540 C   0  0  0  0  0  0  0  0  0  0  0  0
    1.2444    6.1907    7.6564 H   0  0  0  0  0  0  0  0  0  0  0  0
   -0.8780    5.8649    7.6593 C   0  0  0  0  0  0  0  0  0  0  0  0
   -0.9710    5.9346    6.5859 H   0  0  0  0  0  0  0  0  0  0  0  0
   -1.9969    5.6130    8.4376 C   0  0  0  0  0  0  0  0  0  0  0  0
   -2.9631    5.4929    7.9708 H   0  0  0  0  0  0  0  0  0  0  0  0
   -1.8759    5.4964    9.8132 C   0  0  0  0  0  0  0  0  0  0  0  0
   -2.7456    5.2808   10.4162 H   0  0  0  0  0  0  0  0  0  0  0  0
   -0.6407    5.6448   10.4166 C   0  0  0  0  0  0  0  0  0  0  0  0
   -0.5390    5.5356   11.4883 H   0  0  0  0  0  0  0  0  0  0  0  0
    2.9541    7.4096    9.5365 C   0  0  0  0  0  0  0  0  0  0  0  0
    4.3363    7.3314    9.3757 C   0  0  0  0  0  0  0  0  0  0  0  0
    4.8704    6.4237    9.6913 H   0  0  0  0  0  0  0  0  0  0  0  0
    5.0248    8.3822    8.7964 C   0  0  0  0  0  0  0  0  0  0  0  0
    6.0940    8.3173    8.6634 H   0  0  0  0  0  0  0  0  0  0  0  0
    4.3399    9.5130    8.3811 C   0  0  0  0  0  0  0  0  0  0  0  0
    4.8771   10.3316    7.9259 H   0  0  0  0  0  0  0  0  0  0  0  0
    2.9656    9.5934    8.5411 C   0  0  0  0  0  0  0  0  0  0  0  0
    2.4341   10.4742    8.2122 H   0  0  0  0  0  0  0  0  0  0  0  0
    2.2701    8.5468    9.1187 C   0  0  0  0  0  0  0  0  0  0  0  0
    1.1964    8.6041    9.2317 H   0  0  0  0  0  0  0  0  0  0  0  0
  1  2  1  0  0  0  0
  1  5  1  0  0  0  0
  3  1  1  0  0  0  0
  4  1  1  0  0  0  0
  4 18  1  0  0  0  0
  5 19  1  0  0  0  0
  5  6  1  0  0  0  0
  6  8  2  0  0  0  0
  7  6  1  0  0  0  0
  8 10  1  0  0  0  0
  8  9  1  0  0  0  0
 10 11  1  0  0  0  0
 12 13  1  0  0  0  0
 14 15  1  0  0  0  0
 14 12  2  0  0  0  0
 16 14  1  0  0  0  0
 17 16  1  0  0  0  0
 18 16  2  0  0  0  0
 19 18  1  1  0  0  0
 19 20  1  0  0  0  0
 20 12  1  0  0  0  0
 20 10  2  0  0  0  0
 21  4  1  0  0  0  0
 21 30  1  0  0  0  0
 22 21  2  0  0  0  0
 23 22  1  0  0  0  0
 24 22  1  0  0  0  0
 24 26  2  0  0  0  0
 25 24  1  0  0  0  0
 26 28  1  0  0  0  0
 27 26  1  0  0  0  0
 28 29  1  0  0  0  0
 28 30  2  0  0  0  0
 30 31  1  0  0  0  0
 32  4  1  0  0  0  0
 33 32  1  0  0  0  0
 33 34  1  0  0  0  0
 35 33  2  0  0  0  0
 36 35  1  0  0  0  0
 37 39  2  0  0  0  0
 37 35  1  0  0  0  0
 38 37  1  0  0  0  0
 39 41  1  0  0  0  0
 40 39  1  0  0  0  0
 41 42  1  0  0  0  0
 41 32  2  0  0  0  0
M  END
$$$$
