CSD_code = ZUNDIN | q = 0 | S = 0 | Stoichiometry = C30H32Cl2NiP2S | MND = 5
 OpenBabel04212202133D

 68 73  0  0  0  0  0  0  0  0999 V2000
    5.4570    3.0840   15.5246 Ni  0  0  0  0  0  0  0  0  0  0  0  0
    7.0474    1.6925   15.7466 P   0  0  0  0  0  4  0  0  0  0  0  0
    8.6679    2.1102   14.9584 C   0  0  0  0  0  0  0  0  0  0  0  0
    8.5539    2.2180   13.4369 C   0  0  0  0  0  0  0  0  0  0  0  0
    7.8726    3.5016   12.9807 C   0  0  0  0  0  0  0  0  0  0  0  0
    6.0389    3.4139   12.9189 S   0  0  0  0  0  3  0  0  0  0  0  0
    5.7776    5.2181   12.6935 C   0  0  0  0  0  0  0  0  0  0  0  0
    4.3503    5.6889   12.9405 C   0  0  0  0  0  0  0  0  0  0  0  0
    4.0667    5.9889   14.4133 C   0  0  0  0  0  0  0  0  0  0  0  0
    3.8316    4.4492   15.4094 P   0  0  0  0  0  4  0  0  0  0  0  0
    4.1013    1.5058   16.0023 Cl  0  0  0  0  0  0  0  0  0  0  0  0
    6.7712    4.7265   16.0496 Cl  0  0  0  0  0  0  0  0  0  0  0  0
    6.8617    0.0056   15.0845 C   0  0  0  0  0  0  0  0  0  0  0  0
    7.6206   -1.0452   15.5868 C   0  0  0  0  0  0  0  0  0  0  0  0
    7.5213   -2.3017   15.0185 C   0  0  0  0  0  0  0  0  0  0  0  0
    6.6747   -2.5147   13.9423 C   0  0  0  0  0  0  0  0  0  0  0  0
    5.9256   -1.4677   13.4325 C   0  0  0  0  0  0  0  0  0  0  0  0
    6.0190   -0.2106   14.0014 C   0  0  0  0  0  0  0  0  0  0  0  0
    7.4536    1.4223   17.4916 C   0  0  0  0  0  0  0  0  0  0  0  0
    6.6547    0.5415   18.2190 C   0  0  0  0  0  0  0  0  0  0  0  0
    6.8805    0.3549   19.5691 C   0  0  0  0  0  0  0  0  0  0  0  0
    7.8948    1.0519   20.2066 C   0  0  0  0  0  0  0  0  0  0  0  0
    8.6746    1.9458   19.4922 C   0  0  0  0  0  0  0  0  0  0  0  0
    8.4539    2.1386   18.1398 C   0  0  0  0  0  0  0  0  0  0  0  0
    3.3485    5.0442   17.0517 C   0  0  0  0  0  0  0  0  0  0  0  0
    2.6217    4.1696   17.8585 C   0  0  0  0  0  0  0  0  0  0  0  0
    2.2780    4.5359   19.1452 C   0  0  0  0  0  0  0  0  0  0  0  0
    2.6645    5.7712   19.6414 C   0  0  0  0  0  0  0  0  0  0  0  0
    3.4049    6.6333   18.8505 C   0  0  0  0  0  0  0  0  0  0  0  0
    3.7538    6.2728   17.5606 C   0  0  0  0  0  0  0  0  0  0  0  0
    2.2551    3.8961   14.6827 C   0  0  0  0  0  0  0  0  0  0  0  0
    2.2743    2.9125   13.7015 C   0  0  0  0  0  0  0  0  0  0  0  0
    1.1000    2.5235   13.0834 C   0  0  0  0  0  0  0  0  0  0  0  0
   -0.0989    3.1162   13.4422 C   0  0  0  0  0  0  0  0  0  0  0  0
   -0.1212    4.1023   14.4154 C   0  0  0  0  0  0  0  0  0  0  0  0
    1.0515    4.4966   15.0327 C   0  0  0  0  0  0  0  0  0  0  0  0
    9.3735    1.3173   15.2270 H   0  0  0  0  0  0  0  0  0  0  0  0
    9.0250    3.0590   15.3642 H   0  0  0  0  0  0  0  0  0  0  0  0
    8.0242    1.3499   13.0340 H   0  0  0  0  0  0  0  0  0  0  0  0
    9.5637    2.2118   13.0160 H   0  0  0  0  0  0  0  0  0  0  0  0
    8.1833    3.7585   11.9668 H   0  0  0  0  0  0  0  0  0  0  0  0
    8.1167    4.3175   13.6621 H   0  0  0  0  0  0  0  0  0  0  0  0
    6.0753    5.4276   11.6648 H   0  0  0  0  0  0  0  0  0  0  0  0
    6.4602    5.7145   13.3839 H   0  0  0  0  0  0  0  0  0  0  0  0
    3.6406    4.9483   12.5606 H   0  0  0  0  0  0  0  0  0  0  0  0
    4.2024    6.6096   12.3683 H   0  0  0  0  0  0  0  0  0  0  0  0
    3.1461    6.5743   14.5068 H   0  0  0  0  0  0  0  0  0  0  0  0
    4.8979    6.5580   14.8350 H   0  0  0  0  0  0  0  0  0  0  0  0
    8.2805   -0.8803   16.4279 H   0  0  0  0  0  0  0  0  0  0  0  0
    8.1065   -3.1183   15.4164 H   0  0  0  0  0  0  0  0  0  0  0  0
    6.5990   -3.4987   13.5031 H   0  0  0  0  0  0  0  0  0  0  0  0
    5.2659   -1.6312   12.5931 H   0  0  0  0  0  0  0  0  0  0  0  0
    5.4285    0.6108   13.6168 H   0  0  0  0  0  0  0  0  0  0  0  0
    5.8538    0.0149   17.7180 H   0  0  0  0  0  0  0  0  0  0  0  0
    6.2603   -0.3311   20.1275 H   0  0  0  0  0  0  0  0  0  0  0  0
    8.0701    0.9065   21.2626 H   0  0  0  0  0  0  0  0  0  0  0  0
    9.4551    2.5017   19.9913 H   0  0  0  0  0  0  0  0  0  0  0  0
    9.0499    2.8564   17.5962 H   0  0  0  0  0  0  0  0  0  0  0  0
    2.3384    3.2013   17.4679 H   0  0  0  0  0  0  0  0  0  0  0  0
    1.7128    3.8553   19.7651 H   0  0  0  0  0  0  0  0  0  0  0  0
    2.3971    6.0574   20.6482 H   0  0  0  0  0  0  0  0  0  0  0  0
    3.7190    7.5905   19.2412 H   0  0  0  0  0  0  0  0  0  0  0  0
    4.3508    6.9431   16.9610 H   0  0  0  0  0  0  0  0  0  0  0  0
    3.2143    2.4443   13.4387 H   0  0  0  0  0  0  0  0  0  0  0  0
    1.1193    1.7545   12.3253 H   0  0  0  0  0  0  0  0  0  0  0  0
   -1.0185    2.8088   12.9660 H   0  0  0  0  0  0  0  0  0  0  0  0
   -1.0566    4.5650   14.6954 H   0  0  0  0  0  0  0  0  0  0  0  0
    1.0330    5.2646   15.7942 H   0  0  0  0  0  0  0  0  0  0  0  0
  1  2  1  0  0  0  0
  1 11  1  0  0  0  0
  1 12  1  0  0  0  0
  2 19  1  0  0  0  0
  3 37  1  0  0  0  0
  3 38  1  0  0  0  0
  3  2  1  0  0  0  0
  4  3  1  0  0  0  0
  5  4  1  0  0  0  0
  5 42  1  0  0  0  0
  6  5  1  0  0  0  0
  6  1  1  0  0  0  0
  7  6  1  0  0  0  0
  7  8  1  0  0  0  0
  7 44  1  0  0  0  0
  8  9  1  0  0  0  0
  9 47  1  0  0  0  0
  9 48  1  0  0  0  0
  9 10  1  0  0  0  0
 10  1  1  0  0  0  0
 10 25  1  0  0  0  0
 13 14  1  0  0  0  0
 13  2  1  0  0  0  0
 14 49  1  0  0  0  0
 15 50  1  0  0  0  0
 15 14  2  0  0  0  0
 16 15  1  0  0  0  0
 17 16  2  0  0  0  0
 17 18  1  0  0  0  0
 18 13  2  0  0  0  0
 19 24  2  0  0  0  0
 19 20  1  0  0  0  0
 20 21  2  0  0  0  0
 21 55  1  0  0  0  0
 21 22  1  0  0  0  0
 22 56  1  0  0  0  0
 23 57  1  0  0  0  0
 23 22  2  0  0  0  0
 24 23  1  0  0  0  0
 25 30  2  0  0  0  0
 25 26  1  0  0  0  0
 26 27  2  0  0  0  0
 27 28  1  0  0  0  0
 27 60  1  0  0  0  0
 28 61  1  0  0  0  0
 29 62  1  0  0  0  0
 29 28  2  0  0  0  0
 30 29  1  0  0  0  0
 31 36  1  0  0  0  0
 31 10  1  0  0  0  0
 32 31  2  0  0  0  0
 33 34  2  0  0  0  0
 33 32  1  0  0  0  0
 34 35  1  0  0  0  0
 35 67  1  0  0  0  0
 35 36  2  0  0  0  0
 36 68  1  0  0  0  0
 39  4  1  0  0  0  0
 40  4  1  0  0  0  0
 41  5  1  0  0  0  0
 43  7  1  0  0  0  0
 45  8  1  0  0  0  0
 46  8  1  0  0  0  0
 51 16  1  0  0  0  0
 52 17  1  0  0  0  0
 53 18  1  0  0  0  0
 54 20  1  0  0  0  0
 58 24  1  0  0  0  0
 59 26  1  0  0  0  0
 63 30  1  0  0  0  0
 64 32  1  0  0  0  0
 65 33  1  0  0  0  0
 66 34  1  0  0  0  0
M  END
$$$$
