CSD_code = ZUNLUP | q = 1 | S = 0 | Stoichiometry = C20H30Cl2N10Y(1+) | MND = 7
 OpenBabel04212202133D

 63 66  0  0  0  0  0  0  0  0999 V2000
    6.2115    3.8676    3.2971 Y   0  0  0  0  0  0  0  0  0  0  0  0
    5.4389    4.5135    0.9558 Cl  0  0  0  0  0 15  0  0  0  0  0  0
    7.0647    3.2980    5.5872 Cl  0  0  0  0  0  0  0  0  0  0  0  0
    4.2816    5.0968    4.1023 N   0  0  0  0  0  0  0  0  0  0  0  0
    2.4036    6.2417    4.1433 N   0  0  0  0  0  0  0  0  0  0  0  0
    4.4310    2.2576    3.7694 N   0  0  0  0  0  0  0  0  0  0  0  0
    3.2811    0.7375    4.8680 N   0  0  0  0  0  0  0  0  0  0  0  0
    6.8322    1.7290    2.3216 N   0  0  0  0  0  0  0  0  0  0  0  0
    7.0557    0.0708    0.8933 N   0  0  0  0  0  0  0  0  0  0  0  0
    8.4885    4.0668    2.4845 N   0  0  0  0  0  0  0  0  0  0  0  0
   10.2099    4.4022    1.1562 N   0  0  0  0  0  0  0  0  0  0  0  0
    6.8941    6.1787    3.5934 N   0  0  0  0  0  0  0  0  0  0  0  0
    7.2880    8.3062    3.1941 N   0  0  0  0  0  0  0  0  0  0  0  0
    3.3307    5.6499    3.3751 C   0  0  0  0  0  3  0  0  0  0  0  0
    2.7845    6.0555    5.4405 C   0  0  0  0  0  0  0  0  0  0  0  0
    3.9482    5.3466    5.4035 C   0  0  0  0  0  0  0  0  0  0  0  0
    1.2261    6.9345    3.6987 C   0  0  0  0  0  0  0  0  0  0  0  0
    4.3330    1.5689    4.8904 C   0  0  0  0  0  3  0  0  0  0  0  0
    2.6680    0.9028    3.6604 C   0  0  0  0  0  0  0  0  0  0  0  0
    3.3884    1.8457    2.9889 C   0  0  0  0  0  0  0  0  0  0  0  0
    2.8694   -0.1610    5.9105 C   0  0  0  0  0  0  0  0  0  0  0  0
    6.5995    1.3170    1.0908 C   0  0  0  0  0  3  0  0  0  0  0  0
    7.6146   -0.3388    2.0692 C   0  0  0  0  0  0  0  0  0  0  0  0
    7.4717    0.6955    2.9457 C   0  0  0  0  0  0  0  0  0  0  0  0
    6.9758   -0.6986   -0.3172 C   0  0  0  0  0  0  0  0  0  0  0  0
    8.8723    4.3845    1.2636 C   0  0  0  0  0  3  0  0  0  0  0  0
   10.7112    4.0758    2.3832 C   0  0  0  0  0  0  0  0  0  0  0  0
    9.6374    3.8705    3.1972 C   0  0  0  0  0  0  0  0  0  0  0  0
   10.9810    4.7017   -0.0182 C   0  0  0  0  0  0  0  0  0  0  0  0
    6.7813    7.1584    2.7178 C   0  0  0  0  0  3  0  0  0  0  0  0
    7.7528    8.0441    4.4504 C   0  0  0  0  0  0  0  0  0  0  0  0
    7.5039    6.7249    4.6870 C   0  0  0  0  0  0  0  0  0  0  0  0
    7.3393    9.5751    2.5225 C   0  0  0  0  0  0  0  0  0  0  0  0
    3.2997    5.6344    2.3005 H   0  0  0  0  0  0  0  0  0  0  0  0
    2.2123    6.4342    6.2621 H   0  0  0  0  0  0  0  0  0  0  0  0
    4.5663    5.0017    6.2113 H   0  0  0  0  0  0  0  0  0  0  0  0
    1.1930    6.9281    2.6112 H   0  0  0  0  0  0  0  0  0  0  0  0
    0.3301    6.4462    4.0855 H   0  0  0  0  0  0  0  0  0  0  0  0
    1.2378    7.9675    4.0502 H   0  0  0  0  0  0  0  0  0  0  0  0
    5.0112    1.6608    5.7197 H   0  0  0  0  0  0  0  0  0  0  0  0
    1.7929    0.3513    3.3844 H   0  0  0  0  0  0  0  0  0  0  0  0
    3.2314    2.2539    2.0082 H   0  0  0  0  0  0  0  0  0  0  0  0
    3.5455   -0.0630    6.7572 H   0  0  0  0  0  0  0  0  0  0  0  0
    1.8543    0.0737    6.2348 H   0  0  0  0  0  0  0  0  0  0  0  0
    2.8913   -1.1922    5.5539 H   0  0  0  0  0  0  0  0  0  0  0  0
    6.1083    1.9035    0.3356 H   0  0  0  0  0  0  0  0  0  0  0  0
    8.0578   -1.3064    2.1830 H   0  0  0  0  0  0  0  0  0  0  0  0
    7.7806    0.7714    3.9715 H   0  0  0  0  0  0  0  0  0  0  0  0
    6.4853   -0.1082   -1.0884 H   0  0  0  0  0  0  0  0  0  0  0  0
    7.9752   -0.9733   -0.6587 H   0  0  0  0  0  0  0  0  0  0  0  0
    6.4030   -1.6121   -0.1494 H   0  0  0  0  0  0  0  0  0  0  0  0
    8.2018    4.6033    0.4522 H   0  0  0  0  0  0  0  0  0  0  0  0
   11.7630    4.0178    2.5721 H   0  0  0  0  0  0  0  0  0  0  0  0
    9.6080    3.5992    4.2359 H   0  0  0  0  0  0  0  0  0  0  0  0
   10.3091    4.9282   -0.8436 H   0  0  0  0  0  0  0  0  0  0  0  0
   11.6283    5.5615    0.1618 H   0  0  0  0  0  0  0  0  0  0  0  0
   11.6052    3.8488   -0.2898 H   0  0  0  0  0  0  0  0  0  0  0  0
    6.3401    7.0555    1.7428 H   0  0  0  0  0  0  0  0  0  0  0  0
    8.2104    8.7974    5.0575 H   0  0  0  0  0  0  0  0  0  0  0  0
    7.7184    6.1339    5.5576 H   0  0  0  0  0  0  0  0  0  0  0  0
    6.8937    9.4793    1.5344 H   0  0  0  0  0  0  0  0  0  0  0  0
    6.7900   10.3277    3.0906 H   0  0  0  0  0  0  0  0  0  0  0  0
    8.3735    9.9071    2.4172 H   0  0  0  0  0  0  0  0  0  0  0  0
  1 12  1  0  0  0  0
  1  6  1  0  0  0  0
  1  4  1  0  0  0  0
  1  3  1  0  0  0  0
  4 16  1  0  0  0  0
  5 15  1  0  0  0  0
  6 18  1  0  0  0  0
  7 18  1  0  0  0  0
  7 21  1  0  0  0  0
  8 24  1  0  0  0  0
  8  1  1  0  0  0  0
  9 22  1  0  0  0  0
  9 23  1  0  0  0  0
 10 28  1  0  0  0  0
 10  1  1  0  0  0  0
 11 26  1  0  0  0  0
 11 27  1  0  0  0  0
 12 32  1  0  0  0  0
 13 31  1  0  0  0  0
 14  4  1  0  0  0  0
 14  5  1  0  0  0  0
 15 35  1  0  0  0  0
 16 15  2  0  0  0  0
 16 36  1  0  0  0  0
 17 39  1  0  0  0  0
 17 38  1  0  0  0  0
 17  5  1  0  0  0  0
 18 40  1  0  0  0  0
 19  7  1  0  0  0  0
 20 19  2  0  0  0  0
 20  6  1  0  0  0  0
 21 44  1  0  0  0  0
 21 43  1  0  0  0  0
 22  8  1  0  0  0  0
 23 47  1  0  0  0  0
 23 24  2  0  0  0  0
 24 48  1  0  0  0  0
 25 51  1  0  0  0  0
 25  9  1  0  0  0  0
 26 10  1  0  0  0  0
 27 53  1  0  0  0  0
 27 28  2  0  0  0  0
 28 54  1  0  0  0  0
 29 56  1  0  0  0  0
 29 11  1  0  0  0  0
 30 13  1  0  0  0  0
 30 12  1  0  0  0  0
 31 32  2  0  0  0  0
 31 59  1  0  0  0  0
 32 60  1  0  0  0  0
 33 62  1  0  0  0  0
 33 13  1  0  0  0  0
 34 14  1  0  0  0  0
 37 17  1  0  0  0  0
 41 19  1  0  0  0  0
 42 20  1  0  0  0  0
 45 21  1  0  0  0  0
 46 22  1  0  0  0  0
 49 25  1  0  0  0  0
 50 25  1  0  0  0  0
 52 26  1  0  0  0  0
 55 29  1  0  0  0  0
 57 29  1  0  0  0  0
 58 30  1  0  0  0  0
 61 33  1  0  0  0  0
 63 33  1  0  0  0  0
M  END
$$$$
