CSD_code = ZUNTOT | q = 0 | S = 0 | Stoichiometry = C15H18Cl3N3OPt | MND = 6
 OpenBabel04212202133D

 41 43  0  0  1  0  0  0  0  0999 V2000
    7.8888    5.5655    3.1838 Pt  0  0  0  0  0  0  0  0  0  0  0  0
    5.8402    6.7123    3.2825 Cl  0  0  0  0  0  0  0  0  0  0  0  0
    7.8853    5.5550    0.8847 Cl  0  0  0  0  0  0  0  0  0  0  0  0
    9.9093    4.3773    3.2237 Cl  0  0  0  0  0  0  0  0  0  0  0  0
    6.8202    3.4929    2.8371 O   0  0  0  0  0  0  0  0  0  0  0  0
    8.0269    5.6942    5.2788 N   0  0  0  0  0  0  0  0  0  0  0  0
   10.0468    8.6375    4.9305 N   0  0  0  0  0  0  0  0  0  0  0  0
    5.9077    3.0641    0.8031 N   0  0  0  0  0  0  0  0  0  0  0  0
    6.5410    3.8280    5.6964 C   0  0  0  0  0  0  0  0  0  0  0  0
    5.7858    4.2791    5.0524 H   0  0  0  0  0  0  0  0  0  0  0  0
    6.0575    3.3258    6.5294 H   0  0  0  0  0  0  0  0  0  0  0  0
    7.0771    3.0938    5.0955 H   0  0  0  0  0  0  0  0  0  0  0  0
    7.4798    4.8747    6.1742 C   0  0  2  0  0  3  0  0  0  0  0  0
    7.7750    5.0148    7.5291 C   0  0  0  0  0  0  0  0  0  0  0  0
    7.3258    4.3353    8.2360 H   0  0  0  0  0  0  0  0  0  0  0  0
    8.6320    6.0146    7.9540 C   0  0  0  0  0  0  0  0  0  0  0  0
    8.8710    6.1232    9.0010 H   0  0  0  0  0  0  0  0  0  0  0  0
    9.1625    6.8784    7.0143 C   0  0  0  0  0  0  0  0  0  0  0  0
    9.8189    7.6934    7.2689 H   0  0  0  0  0  0  0  0  0  0  0  0
    8.8347    6.6896    5.6778 C   0  0  0  0  0  0  0  0  0  0  0  0
    9.3072    7.5758    4.6218 C   0  0  0  0  0  0  0  0  0  0  0  0
    8.9228    7.2805    3.3161 C   0  0  0  0  0  0  0  0  0  0  0  0
    9.3090    8.1311    2.2984 C   0  0  0  0  0  0  0  0  0  0  0  0
    9.0299    7.9487    1.2711 H   0  0  0  0  0  0  0  0  0  0  0  0
   10.0738    9.2384    2.6316 C   0  0  0  0  0  0  0  0  0  0  0  0
   10.3944    9.9291    1.8664 H   0  0  0  0  0  0  0  0  0  0  0  0
   10.4316    9.4523    3.9643 C   0  0  0  0  0  0  0  0  0  0  0  0
   11.2697   10.6263    4.3601 C   0  0  0  0  0  0  0  0  0  0  0  0
   11.4232   10.6214    5.4346 H   0  0  0  0  0  0  0  0  0  0  0  0
   10.7797   11.5538    4.0700 H   0  0  0  0  0  0  0  0  0  0  0  0
   12.2351   10.5831    3.8593 H   0  0  0  0  0  0  0  0  0  0  0  0
    6.8025    2.8952    1.7631 C   0  0  0  0  0  3  0  0  0  0  0  0
    7.5411    2.1057    1.5487 H   0  0  0  0  0  0  0  0  0  0  0  0
    4.9009    4.0967    0.8864 C   0  0  0  0  0  0  0  0  0  0  0  0
    4.9751    4.5951    1.8515 H   0  0  0  0  0  0  0  0  0  0  0  0
    3.9080    3.6583    0.7754 H   0  0  0  0  0  0  0  0  0  0  0  0
    5.0631    4.8362    0.1011 H   0  0  0  0  0  0  0  0  0  0  0  0
    5.9857    2.3637   -0.4509 C   0  0  0  0  0  0  0  0  0  0  0  0
    6.7373    1.5791   -0.3977 H   0  0  0  0  0  0  0  0  0  0  0  0
    6.2568    3.0579   -1.2497 H   0  0  0  0  0  0  0  0  0  0  0  0
    5.0175    1.9180   -0.6871 H   0  0  0  0  0  0  0  0  0  0  0  0
  1  4  1  0  0  0  0
  1  2  1  0  0  0  0
  1 22  1  0  0  0  0
  1  6  1  0  0  0  0
  3  1  1  0  0  0  0
  5  1  1  0  0  0  0
  6 20  1  0  0  0  0
  6 13  1  0  0  0  0
  8 34  1  0  0  0  0
  8 32  1  0  0  0  0
  9 11  1  0  0  0  0
 10  9  1  0  0  0  0
 12  9  1  0  0  0  0
 13  9  1  1  0  0  0
 13 14  1  0  0  0  0
 14 16  2  0  0  0  0
 14 15  1  0  0  0  0
 16 17  1  0  0  0  0
 18 19  1  0  0  0  0
 18 16  1  0  0  0  0
 20 18  2  0  0  0  0
 21  7  1  0  0  0  0
 21 20  1  0  0  0  0
 22 21  2  0  0  0  0
 23 25  2  0  0  0  0
 23 22  1  0  0  0  0
 24 23  1  0  0  0  0
 25 27  1  0  0  0  0
 26 25  1  0  0  0  0
 27 28  1  0  0  0  0
 27  7  2  0  0  0  0
 28 29  1  0  0  0  0
 30 28  1  0  0  0  0
 31 28  1  0  0  0  0
 32  5  1  0  0  0  0
 33 32  1  0  0  0  0
 34 35  1  0  0  0  0
 36 34  1  0  0  0  0
 37 34  1  0  0  0  0
 38 39  1  0  0  0  0
 38  8  1  0  0  0  0
 40 38  1  0  0  0  0
 41 38  1  0  0  0  0
M  END
$$$$
