CSD_code = ZUNVUZ | q = 0 | S = 0 | Stoichiometry = C15H25Cl4O2PTi | MND = 6
 OpenBabel04212202133D

 48 48  0  0  0  0  0  0  0  0999 V2000
    4.6691    1.4264    3.8894 Ti  0  0  0  0  0  0  0  0  0  0  0  0
    2.9306    2.7399    3.6794 Cl  0  0  0  0  0  0  0  0  0  0  0  0
    3.8070   -0.0509    5.3705 Cl  0  0  0  0  0  0  0  0  0  0  0  0
    5.5995    2.6334    5.4072 Cl  0  0  0  0  0  0  0  0  0  0  0  0
    5.8278    2.2075    2.1442 Cl  0  0  0  0  0  0  0  0  0  0  0  0
    6.2998   -0.5047    3.6470 P   0  0  0  0  0  4  0  0  0  0  0  0
    7.9650    0.2752    5.2934 O   0  0  0  0  0  0  0  0  0  0  0  0
    3.6670    0.1650    2.4173 O   0  0  0  0  0  0  0  0  0  0  0  0
    9.0421    2.3679    4.9596 C   0  0  0  0  0  0  0  0  0  0  0  0
    8.5700    1.3529    5.9876 C   0  0  0  0  0  0  0  0  0  0  0  0
    7.3143   -0.6884    6.0914 C   0  0  0  0  0  0  0  0  0  0  0  0
    6.7024   -1.6292    5.0617 C   0  0  0  0  0  0  0  0  0  0  0  0
    7.7773   -0.4745    2.5102 C   0  0  0  0  0  0  0  0  0  0  0  0
    8.4852   -1.7812    2.3879 C   0  0  0  0  0  0  0  0  0  0  0  0
    9.4342   -2.1556    3.3354 C   0  0  0  0  0  0  0  0  0  0  0  0
   10.0859   -3.3717    3.2414 C   0  0  0  0  0  0  0  0  0  0  0  0
    9.8010   -4.2347    2.1960 C   0  0  0  0  0  0  0  0  0  0  0  0
    8.8728   -3.8658    1.2379 C   0  0  0  0  0  0  0  0  0  0  0  0
    8.2211   -2.6481    1.3325 C   0  0  0  0  0  0  0  0  0  0  0  0
    5.2081   -1.6552    2.6668 C   0  0  0  0  0  0  0  0  0  0  0  0
    4.4329   -0.7848    1.6787 C   0  0  0  0  0  0  0  0  0  0  0  0
    2.2719   -0.1533    2.5103 C   0  0  0  0  0  0  0  0  0  0  0  0
    1.5213    0.3934    1.3034 C   0  0  0  0  0  0  0  0  0  0  0  0
    9.4448    3.2427    5.4608 H   0  0  0  0  0  0  0  0  0  0  0  0
    8.1974    2.6689    4.3409 H   0  0  0  0  0  0  0  0  0  0  0  0
    9.8122    1.9379    4.3235 H   0  0  0  0  0  0  0  0  0  0  0  0
    9.4143    0.9715    6.5821 H   0  0  0  0  0  0  0  0  0  0  0  0
    7.8401    1.8123    6.6658 H   0  0  0  0  0  0  0  0  0  0  0  0
    6.5295   -0.2114    6.6977 H   0  0  0  0  0  0  0  0  0  0  0  0
    8.0270   -1.1896    6.7617 H   0  0  0  0  0  0  0  0  0  0  0  0
    5.7877   -2.0934    5.4301 H   0  0  0  0  0  0  0  0  0  0  0  0
    7.4110   -2.3946    4.7375 H   0  0  0  0  0  0  0  0  0  0  0  0
    7.3922   -0.1368    1.5439 H   0  0  0  0  0  0  0  0  0  0  0  0
    8.4401    0.2975    2.9006 H   0  0  0  0  0  0  0  0  0  0  0  0
    9.6645   -1.4745    4.1410 H   0  0  0  0  0  0  0  0  0  0  0  0
   10.8214   -3.6473    3.9829 H   0  0  0  0  0  0  0  0  0  0  0  0
   10.3085   -5.1846    2.1223 H   0  0  0  0  0  0  0  0  0  0  0  0
    8.6588   -4.5259    0.4101 H   0  0  0  0  0  0  0  0  0  0  0  0
    7.5196   -2.3564    0.5628 H   0  0  0  0  0  0  0  0  0  0  0  0
    5.7942   -2.4256    2.1603 H   0  0  0  0  0  0  0  0  0  0  0  0
    4.5014   -2.1310    3.3538 H   0  0  0  0  0  0  0  0  0  0  0  0
    5.1204   -0.2124    1.0410 H   0  0  0  0  0  0  0  0  0  0  0  0
    3.7748   -1.3841    1.0393 H   0  0  0  0  0  0  0  0  0  0  0  0
    1.9027    0.3262    3.4231 H   0  0  0  0  0  0  0  0  0  0  0  0
    2.1469   -1.2388    2.6097 H   0  0  0  0  0  0  0  0  0  0  0  0
    0.4570    0.2085    1.4135 H   0  0  0  0  0  0  0  0  0  0  0  0
    1.8648   -0.0694    0.3805 H   0  0  0  0  0  0  0  0  0  0  0  0
    1.6882    1.4670    1.2411 H   0  0  0  0  0  0  0  0  0  0  0  0
  1  3  1  0  0  0  0
  1  4  1  0  0  0  0
  2  1  1  0  0  0  0
  5  1  1  0  0  0  0
  6  1  1  0  0  0  0
  6 12  1  0  0  0  0
  7 10  1  0  0  0  0
  7 11  1  0  0  0  0
  8 22  1  0  0  0  0
  9 24  1  0  0  0  0
  9 10  1  0  0  0  0
 10 27  1  0  0  0  0
 10 28  1  0  0  0  0
 11 29  1  0  0  0  0
 11 30  1  0  0  0  0
 12 31  1  0  0  0  0
 12 11  1  0  0  0  0
 13 34  1  0  0  0  0
 13  6  1  0  0  0  0
 14 13  1  0  0  0  0
 14 15  1  0  0  0  0
 15 35  1  0  0  0  0
 16 15  2  0  0  0  0
 16 36  1  0  0  0  0
 17 16  1  0  0  0  0
 18 19  1  0  0  0  0
 18 17  2  0  0  0  0
 19 14  2  0  0  0  0
 20 41  1  0  0  0  0
 20  6  1  0  0  0  0
 21  8  1  0  0  0  0
 21 20  1  0  0  0  0
 22 45  1  0  0  0  0
 22 44  1  0  0  0  0
 23 46  1  0  0  0  0
 23 22  1  0  0  0  0
 25  9  1  0  0  0  0
 26  9  1  0  0  0  0
 32 12  1  0  0  0  0
 33 13  1  0  0  0  0
 37 17  1  0  0  0  0
 38 18  1  0  0  0  0
 39 19  1  0  0  0  0
 40 20  1  0  0  0  0
 42 21  1  0  0  0  0
 43 21  1  0  0  0  0
 47 23  1  0  0  0  0
 48 23  1  0  0  0  0
M  END
$$$$
