CSD_code = ZUQFUM | q = 0 | S = 0 | Stoichiometry = C23H24Cl2NO2PPd | MND = 4
 OpenBabel04212202133D

 54 58  0  0  1  0  0  0  0  0999 V2000
    0.2070   11.0476    5.9631 Pd  0  0  0  0  0  0  0  0  0  0  0  0
    2.3967   11.4416    5.8275 Cl  0  0  0  0  0  0  0  0  0  0  0  0
   -0.0836   12.8992    7.2278 Cl  0  0  0  0  0  0  0  0  0  0  0  0
    0.4902    9.1781    4.7324 P   0  0  0  0  0  4  0  0  0  0  0  0
   -2.3876    9.6313    1.8980 O   0  0  0  0  0  0  0  0  0  0  0  0
   -2.8158   11.6779    2.7411 O   0  0  0  0  0  0  0  0  0  0  0  0
   -1.8367   10.8517    6.1023 N   0  0  0  0  0  0  0  0  0  0  0  0
   -2.6873   10.9685    1.5238 C   0  0  0  0  0  0  0  0  0  0  0  0
   -1.9814   11.0789    3.6968 C   0  0  2  0  0  0  0  0  0  0  0  0
   -1.7690    9.6279    3.1644 C   0  0  2  0  0  0  0  0  0  0  0  0
   -2.6343   11.0695    5.0564 C   0  0  1  0  0  3  0  0  0  0  0  0
   -4.0023   11.2473    5.2006 C   0  0  0  0  0  0  0  0  0  0  0  0
   -4.5557   11.2033    6.4688 C   0  0  0  0  0  0  0  0  0  0  0  0
   -3.7207   10.9701    7.5506 C   0  0  0  0  0  0  0  0  0  0  0  0
   -2.3664   10.8052    7.3232 C   0  0  0  0  0  0  0  0  0  0  0  0
   -0.3069    9.1942    3.0706 C   0  0  0  0  0  0  0  0  0  0  0  0
   -1.5732   11.5646    0.6545 C   0  0  0  0  0  0  0  0  0  0  0  0
   -4.0264   10.9913    0.7936 C   0  0  0  0  0  0  0  0  0  0  0  0
    2.1320    8.4637    4.4279 C   0  0  0  0  0  0  0  0  0  0  0  0
    2.9051    8.2334    5.5647 C   0  0  0  0  0  0  0  0  0  0  0  0
    4.1774    7.7117    5.4464 C   0  0  0  0  0  0  0  0  0  0  0  0
    4.6915    7.4217    4.1919 C   0  0  0  0  0  0  0  0  0  0  0  0
    3.9305    7.6584    3.0607 C   0  0  0  0  0  0  0  0  0  0  0  0
    2.6527    8.1808    3.1718 C   0  0  0  0  0  0  0  0  0  0  0  0
   -0.3150    7.8200    5.6475 C   0  0  0  0  0  0  0  0  0  0  0  0
   -0.8228    6.6624    5.0707 C   0  0  0  0  0  0  0  0  0  0  0  0
   -1.3967    5.6888    5.8699 C   0  0  0  0  0  0  0  0  0  0  0  0
   -1.4563    5.8565    7.2437 C   0  0  0  0  0  0  0  0  0  0  0  0
   -0.9361    7.0012    7.8272 C   0  0  0  0  0  0  0  0  0  0  0  0
   -0.3696    7.9794    7.0316 C   0  0  0  0  0  0  0  0  0  0  0  0
   -1.0066   11.6206    3.7693 H   0  0  0  0  0  0  0  0  0  0  0  0
   -2.3161    8.9111    3.7972 H   0  0  0  0  0  0  0  0  0  0  0  0
   -4.1064   10.9338    8.5565 H   0  0  0  0  0  0  0  0  0  0  0  0
   -0.2619    8.2094    2.5973 H   0  0  0  0  0  0  0  0  0  0  0  0
    0.2528    9.9026    2.4501 H   0  0  0  0  0  0  0  0  0  0  0  0
   -4.5982   11.4381    4.3231 H   0  0  0  0  0  0  0  0  0  0  0  0
   -5.6151   11.3530    6.6092 H   0  0  0  0  0  0  0  0  0  0  0  0
   -1.6747   10.6522    8.1450 H   0  0  0  0  0  0  0  0  0  0  0  0
   -0.6556   11.6749    1.2267 H   0  0  0  0  0  0  0  0  0  0  0  0
   -1.3894   10.9113   -0.1935 H   0  0  0  0  0  0  0  0  0  0  0  0
   -1.8785   12.5447    0.3007 H   0  0  0  0  0  0  0  0  0  0  0  0
   -4.7766   10.4889    1.3976 H   0  0  0  0  0  0  0  0  0  0  0  0
   -4.3266   12.0210    0.6291 H   0  0  0  0  0  0  0  0  0  0  0  0
   -3.9307   10.4766   -0.1567 H   0  0  0  0  0  0  0  0  0  0  0  0
    2.5047    8.4924    6.5371 H   0  0  0  0  0  0  0  0  0  0  0  0
    4.7749    7.5416    6.3292 H   0  0  0  0  0  0  0  0  0  0  0  0
    5.6896    7.0210    4.0960 H   0  0  0  0  0  0  0  0  0  0  0  0
    4.3349    7.4427    2.0824 H   0  0  0  0  0  0  0  0  0  0  0  0
    2.0793    8.3714    2.2771 H   0  0  0  0  0  0  0  0  0  0  0  0
   -0.7719    6.5166    4.0018 H   0  0  0  0  0  0  0  0  0  0  0  0
   -1.7964    4.7928    5.4184 H   0  0  0  0  0  0  0  0  0  0  0  0
   -1.9052    5.0925    7.8606 H   0  0  0  0  0  0  0  0  0  0  0  0
   -0.9743    7.1278    8.8989 H   0  0  0  0  0  0  0  0  0  0  0  0
    0.0507    8.8891    7.4767 H   0  0  0  0  0  0  0  0  0  0  0  0
  1  7  1  0  0  0  0
  1  3  1  0  0  0  0
  2  1  1  0  0  0  0
  4 25  1  0  0  0  0
  4  1  1  0  0  0  0
  5 10  1  0  0  0  0
  6  9  1  0  0  0  0
  7 15  1  0  0  0  0
  8  5  1  0  0  0  0
  8  6  1  0  0  0  0
  9 31  1  1  0  0  0
  9 11  1  0  0  0  0
 10  9  1  0  0  0  0
 10 32  1  1  0  0  0
 11 12  1  6  0  0  0
 11  7  1  0  0  0  0
 12 13  2  0  0  0  0
 13 37  1  0  0  0  0
 13 14  1  0  0  0  0
 14 33  1  0  0  0  0
 15 14  2  0  0  0  0
 15 38  1  0  0  0  0
 16 10  1  0  0  0  0
 16  4  1  0  0  0  0
 17 39  1  0  0  0  0
 17  8  1  0  0  0  0
 18 42  1  0  0  0  0
 18  8  1  0  0  0  0
 19  4  1  0  0  0  0
 19 20  1  0  0  0  0
 20 45  1  0  0  0  0
 21 20  2  0  0  0  0
 21 46  1  0  0  0  0
 22 21  1  0  0  0  0
 23 24  1  0  0  0  0
 23 22  2  0  0  0  0
 24 19  2  0  0  0  0
 25 30  1  0  0  0  0
 26 25  2  0  0  0  0
 26 27  1  0  0  0  0
 27 28  2  0  0  0  0
 28 29  1  0  0  0  0
 28 52  1  0  0  0  0
 29 53  1  0  0  0  0
 30 54  1  0  0  0  0
 30 29  2  0  0  0  0
 34 16  1  0  0  0  0
 35 16  1  0  0  0  0
 36 12  1  0  0  0  0
 40 17  1  0  0  0  0
 41 17  1  0  0  0  0
 43 18  1  0  0  0  0
 44 18  1  0  0  0  0
 47 22  1  0  0  0  0
 48 23  1  0  0  0  0
 49 24  1  0  0  0  0
 50 26  1  0  0  0  0
 51 27  1  0  0  0  0
M  END
$$$$
