CSD_code = ZUQFAS | q = 1 | S = 0 | Stoichiometry = C30H32Cl2P2RhS2(1+) | MND = 6
 OpenBabel04212202133D

 69 75  0  0  0  0  0  0  0  0999 V2000
    3.1406   -4.2534   -4.6722 Rh  0  0  0  0  0  0  0  0  0  0  0  0
    3.2588   -5.8700   -6.2978 Cl  0  0  0  0  0  0  0  0  0  0  0  0
    3.1230   -2.5510   -6.3334 S   0  0  1  0  0  3  0  0  0  0  0  0
    0.8688   -4.4003   -5.0377 P   0  0  0  0  0  4  0  0  0  0  0  0
   -0.1865   -3.4094   -3.9360 C   0  0  0  0  0  0  0  0  0  0  0  0
   -1.2669   -2.6523   -4.3770 C   0  0  0  0  0  0  0  0  0  0  0  0
   -2.0277   -1.9413   -3.4650 C   0  0  0  0  0  0  0  0  0  0  0  0
   -1.7241   -1.9847   -2.1140 C   0  0  0  0  0  0  0  0  0  0  0  0
   -0.6551   -2.7459   -1.6684 C   0  0  0  0  0  0  0  0  0  0  0  0
    0.1135   -3.4530   -2.5744 C   0  0  0  0  0  0  0  0  0  0  0  0
    0.0673   -6.0185   -5.0829 C   0  0  0  0  0  0  0  0  0  0  0  0
   -0.4600   -6.5334   -3.8999 C   0  0  0  0  0  0  0  0  0  0  0  0
   -1.0219   -7.7960   -3.8874 C   0  0  0  0  0  0  0  0  0  0  0  0
   -1.0566   -8.5532   -5.0473 C   0  0  0  0  0  0  0  0  0  0  0  0
   -0.5253   -8.0459   -6.2219 C   0  0  0  0  0  0  0  0  0  0  0  0
    0.0425   -6.7853   -6.2455 C   0  0  0  0  0  0  0  0  0  0  0  0
    0.6508   -3.6771   -6.7243 C   0  0  0  0  0  0  0  0  0  0  0  0
    1.3494   -2.3313   -6.7678 C   0  0  0  0  0  0  0  0  0  0  0  0
    3.4569   -1.0388   -5.3594 C   0  0  0  0  0  0  0  0  0  0  0  0
   -1.5303   -2.6191   -5.4238 H   0  0  0  0  0  0  0  0  0  0  0  0
   -2.8658   -1.3561   -3.8121 H   0  0  0  0  0  0  0  0  0  0  0  0
   -2.3244   -1.4301   -1.4097 H   0  0  0  0  0  0  0  0  0  0  0  0
   -0.4222   -2.7905   -0.6156 H   0  0  0  0  0  0  0  0  0  0  0  0
    0.9483   -4.0530   -2.2339 H   0  0  0  0  0  0  0  0  0  0  0  0
   -0.4267   -5.9482   -2.9923 H   0  0  0  0  0  0  0  0  0  0  0  0
   -1.4278   -8.1917   -2.9689 H   0  0  0  0  0  0  0  0  0  0  0  0
   -1.4912   -9.5409   -5.0344 H   0  0  0  0  0  0  0  0  0  0  0  0
   -0.5439   -8.6378   -7.1243 H   0  0  0  0  0  0  0  0  0  0  0  0
    0.4759   -6.4155   -7.1617 H   0  0  0  0  0  0  0  0  0  0  0  0
    1.1326   -4.3587   -7.4311 H   0  0  0  0  0  0  0  0  0  0  0  0
   -0.4060   -3.5915   -6.9867 H   0  0  0  0  0  0  0  0  0  0  0  0
    0.9079   -1.6276   -6.0621 H   0  0  0  0  0  0  0  0  0  0  0  0
    1.3381   -1.9031   -7.7707 H   0  0  0  0  0  0  0  0  0  0  0  0
    4.5463   -0.9951   -5.3023 H   0  0  0  0  0  0  0  0  0  0  0  0
    3.1062   -0.1908   -5.9483 H   0  0  0  0  0  0  0  0  0  0  0  0
    3.0222   -5.8703   -3.0468 Cl  0  0  0  0  0  0  0  0  0  0  0  0
    3.1588   -2.5517   -3.0108 S   0  0  1  0  0  3  0  0  0  0  0  0
    4.9325   -2.3319   -2.5766 C   0  0  0  0  0  0  0  0  0  0  0  0
    5.6316   -3.6774   -2.6211 C   0  0  0  0  0  0  0  0  0  0  0  0
    5.4121   -4.4007   -4.3074 P   0  0  0  0  0  4  0  0  0  0  0  0
    6.4663   -3.4100   -5.4104 C   0  0  0  0  0  0  0  0  0  0  0  0
    7.5466   -2.6521   -4.9706 C   0  0  0  0  0  0  0  0  0  0  0  0
    8.3061   -1.9408   -5.8835 C   0  0  0  0  0  0  0  0  0  0  0  0
    8.0012   -1.9848   -7.2342 C   0  0  0  0  0  0  0  0  0  0  0  0
    6.9324   -2.7469   -7.6787 C   0  0  0  0  0  0  0  0  0  0  0  0
    6.1652   -3.4543   -6.7717 C   0  0  0  0  0  0  0  0  0  0  0  0
    5.3305   -4.0549   -7.1113 H   0  0  0  0  0  0  0  0  0  0  0  0
    6.6984   -2.7919   -8.7312 H   0  0  0  0  0  0  0  0  0  0  0  0
    8.6005   -1.4300   -7.9393 H   0  0  0  0  0  0  0  0  0  0  0  0
    9.1443   -1.3551   -5.5374 H   0  0  0  0  0  0  0  0  0  0  0  0
    7.8108   -2.6183   -3.9241 H   0  0  0  0  0  0  0  0  0  0  0  0
    6.2135   -6.0189   -4.2628 C   0  0  0  0  0  0  0  0  0  0  0  0
    6.7396   -6.5342   -5.4462 C   0  0  0  0  0  0  0  0  0  0  0  0
    7.3012   -7.7969   -5.4591 C   0  0  0  0  0  0  0  0  0  0  0  0
    7.3369   -8.5539   -4.2991 C   0  0  0  0  0  0  0  0  0  0  0  0
    6.8070   -8.0463   -3.1240 C   0  0  0  0  0  0  0  0  0  0  0  0
    6.2393   -6.7856   -3.1001 C   0  0  0  0  0  0  0  0  0  0  0  0
    5.8069   -6.4156   -2.1836 H   0  0  0  0  0  0  0  0  0  0  0  0
    6.8263   -8.6380   -2.2215 H   0  0  0  0  0  0  0  0  0  0  0  0
    7.7714   -9.5416   -4.3122 H   0  0  0  0  0  0  0  0  0  0  0  0
    7.7060   -8.1928   -6.3779 H   0  0  0  0  0  0  0  0  0  0  0  0
    6.7054   -5.9492   -6.3539 H   0  0  0  0  0  0  0  0  0  0  0  0
    5.1508   -4.3593   -1.9138 H   0  0  0  0  0  0  0  0  0  0  0  0
    6.6886   -3.5913   -2.3598 H   0  0  0  0  0  0  0  0  0  0  0  0
    5.3734   -1.6276   -3.2822 H   0  0  0  0  0  0  0  0  0  0  0  0
    4.9440   -1.9042   -1.5735 H   0  0  0  0  0  0  0  0  0  0  0  0
    2.8240   -1.0391   -3.9839 C   0  0  0  0  0  0  0  0  0  0  0  0
    1.7346   -0.9959   -4.0410 H   0  0  0  0  0  0  0  0  0  0  0  0
    3.1743   -0.1912   -3.3947 H   0  0  0  0  0  0  0  0  0  0  0  0
  1 40  1  0  0  0  0
  1 36  1  0  0  0  0
  1 37  1  0  0  0  0
  2  1  1  0  0  0  0
  3 18  1  1  0  0  0
  3 19  1  0  0  0  0
  3  1  1  0  0  0  0
  4  1  1  0  0  0  0
  4  5  1  0  0  0  0
  5 10  1  0  0  0  0
  6  5  2  0  0  0  0
  6  7  1  0  0  0  0
  7  8  2  0  0  0  0
  8  9  1  0  0  0  0
  8 22  1  0  0  0  0
  9 23  1  0  0  0  0
 10 24  1  0  0  0  0
 10  9  2  0  0  0  0
 11  4  1  0  0  0  0
 11 12  1  0  0  0  0
 12 13  2  0  0  0  0
 12 25  1  0  0  0  0
 13 26  1  0  0  0  0
 14 27  1  0  0  0  0
 14 13  1  0  0  0  0
 15 14  2  0  0  0  0
 16 15  1  0  0  0  0
 16 11  2  0  0  0  0
 17  4  1  0  0  0  0
 18 17  1  0  0  0  0
 18 32  1  0  0  0  0
 19 34  1  0  0  0  0
 19 67  1  0  0  0  0
 20  6  1  0  0  0  0
 21  7  1  0  0  0  0
 28 15  1  0  0  0  0
 29 16  1  0  0  0  0
 30 17  1  0  0  0  0
 31 17  1  0  0  0  0
 33 18  1  0  0  0  0
 35 19  1  0  0  0  0
 37 67  1  6  0  0  0
 37 38  1  0  0  0  0
 38 66  1  0  0  0  0
 39 38  1  0  0  0  0
 39 64  1  0  0  0  0
 39 63  1  0  0  0  0
 40 52  1  0  0  0  0
 40 39  1  0  0  0  0
 41 42  1  0  0  0  0
 41 40  1  0  0  0  0
 42 51  1  0  0  0  0
 43 50  1  0  0  0  0
 43 42  2  0  0  0  0
 44 43  1  0  0  0  0
 45 44  2  0  0  0  0
 45 46  1  0  0  0  0
 46 41  2  0  0  0  0
 47 46  1  0  0  0  0
 48 45  1  0  0  0  0
 49 44  1  0  0  0  0
 52 57  1  0  0  0  0
 53 52  2  0  0  0  0
 54 53  1  0  0  0  0
 54 55  2  0  0  0  0
 55 56  1  0  0  0  0
 56 57  2  0  0  0  0
 56 59  1  0  0  0  0
 57 58  1  0  0  0  0
 60 55  1  0  0  0  0
 61 54  1  0  0  0  0
 62 53  1  0  0  0  0
 65 38  1  0  0  0  0
 67 69  1  0  0  0  0
 68 67  1  0  0  0  0
M  END
$$$$
