CSD_code = ZUQXIS | q = 0 | S = 0 | Stoichiometry = C24H26Br2P2Pd | MND = 4
 OpenBabel04212202133D

 55 58  0  0  0  0  0  0  0  0999 V2000
    0.2918    3.7874    8.1627 Pd  0  0  0  0  0  0  0  0  0  0  0  0
   -0.8552    2.1002    9.4578 Br  0  0  0  0  0  0  0  0  0  0  0  0
    1.4489    5.4579    6.8612 Br  0  0  0  0  0  0  0  0  0  0  0  0
    1.5752    4.2572    9.9598 P   0  0  1  0  0  4  0  0  0  0  0  0
   -1.0449    3.2764    6.4149 P   0  0  1  0  0  4  0  0  0  0  0  0
    2.3822    5.8284   10.2689 C   0  0  0  0  0  0  0  0  0  0  0  0
    2.1291    6.2476   11.5236 C   0  0  0  0  0  0  0  0  0  0  0  0
    1.3282    5.3070   12.3151 C   0  0  0  0  0  0  0  0  0  0  0  0
    0.9870    4.1856   11.6510 C   0  0  0  0  0  0  0  0  0  0  0  0
    2.6016    7.5378   12.1002 C   0  0  0  0  0  0  0  0  0  0  0  0
    0.9528    5.6061   13.7258 C   0  0  0  0  0  0  0  0  0  0  0  0
    2.9286    3.0407    9.8488 C   0  0  0  0  0  0  0  0  0  0  0  0
    2.9939    2.2039    8.7384 C   0  0  0  0  0  0  0  0  0  0  0  0
    4.0145    1.2749    8.6363 C   0  0  0  0  0  0  0  0  0  0  0  0
    4.9662    1.1807    9.6375 C   0  0  0  0  0  0  0  0  0  0  0  0
    4.9025    2.0160   10.7425 C   0  0  0  0  0  0  0  0  0  0  0  0
    3.8873    2.9467   10.8515 C   0  0  0  0  0  0  0  0  0  0  0  0
   -0.6720    3.5953    4.6898 C   0  0  0  0  0  0  0  0  0  0  0  0
   -0.8969    2.4933    3.9491 C   0  0  0  0  0  0  0  0  0  0  0  0
   -1.4305    1.3609    4.7145 C   0  0  0  0  0  0  0  0  0  0  0  0
   -1.6039    1.6195    6.0253 C   0  0  0  0  0  0  0  0  0  0  0  0
   -0.6476    2.3893    2.4837 C   0  0  0  0  0  0  0  0  0  0  0  0
   -1.7432    0.0608    4.0570 C   0  0  0  0  0  0  0  0  0  0  0  0
   -2.5520    4.2476    6.7506 C   0  0  0  0  0  0  0  0  0  0  0  0
   -2.5411    5.1693    7.7938 C   0  0  0  0  0  0  0  0  0  0  0  0
   -3.6736    5.9175    8.0630 C   0  0  0  0  0  0  0  0  0  0  0  0
   -4.8131    5.7475    7.2951 C   0  0  0  0  0  0  0  0  0  0  0  0
   -4.8231    4.8318    6.2540 C   0  0  0  0  0  0  0  0  0  0  0  0
   -3.6960    4.0819    5.9779 C   0  0  0  0  0  0  0  0  0  0  0  0
    2.9335    6.3708    9.5191 H   0  0  0  0  0  0  0  0  0  0  0  0
    0.3917    3.3755   12.0383 H   0  0  0  0  0  0  0  0  0  0  0  0
    3.2138    7.3585   12.9836 H   0  0  0  0  0  0  0  0  0  0  0  0
    3.1889    8.0893   11.3708 H   0  0  0  0  0  0  0  0  0  0  0  0
    1.7527    8.1506   12.4022 H   0  0  0  0  0  0  0  0  0  0  0  0
    1.8450    5.7414   14.3367 H   0  0  0  0  0  0  0  0  0  0  0  0
    0.3729    6.5273   13.7758 H   0  0  0  0  0  0  0  0  0  0  0  0
    0.3605    4.7960   14.1431 H   0  0  0  0  0  0  0  0  0  0  0  0
    2.2413    2.2725    7.9371 H   0  0  0  0  0  0  0  0  0  0  0  0
    4.0658    0.6240    7.7761 H   0  0  0  0  0  0  0  0  0  0  0  0
    5.7607    0.4538    9.5578 H   0  0  0  0  0  0  0  0  0  0  0  0
    5.6471    1.9394   11.5213 H   0  0  0  0  0  0  0  0  0  0  0  0
    3.8268    3.6026   11.7088 H   0  0  0  0  0  0  0  0  0  0  0  0
   -0.2667    4.5268    4.3315 H   0  0  0  0  0  0  0  0  0  0  0  0
   -1.9698    0.9273    6.7655 H   0  0  0  0  0  0  0  0  0  0  0  0
   -1.5695    2.1428    1.9575 H   0  0  0  0  0  0  0  0  0  0  0  0
   -0.2609    3.3277    2.0954 H   0  0  0  0  0  0  0  0  0  0  0  0
    0.0748    1.6001    2.2775 H   0  0  0  0  0  0  0  0  0  0  0  0
   -0.8461   -0.3593    3.6030 H   0  0  0  0  0  0  0  0  0  0  0  0
   -2.1347   -0.6489    4.7811 H   0  0  0  0  0  0  0  0  0  0  0  0
   -2.4805    0.2016    3.2670 H   0  0  0  0  0  0  0  0  0  0  0  0
   -1.6390    5.3117    8.4096 H   0  0  0  0  0  0  0  0  0  0  0  0
   -3.6669    6.6314    8.8733 H   0  0  0  0  0  0  0  0  0  0  0  0
   -5.6974    6.3294    7.5083 H   0  0  0  0  0  0  0  0  0  0  0  0
   -5.7141    4.7019    5.6574 H   0  0  0  0  0  0  0  0  0  0  0  0
   -3.6932    3.3638    5.1698 H   0  0  0  0  0  0  0  0  0  0  0  0
  1  2  1  0  0  0  0
  3  1  1  0  0  0  0
  4  1  1  6  0  0  0
  4  6  1  0  0  0  0
  4  9  1  0  0  0  0
  5 24  1  0  0  0  0
  5  1  1  1  0  0  0
  6  7  2  0  0  0  0
  7 10  1  0  0  0  0
  7  8  1  0  0  0  0
  8 11  1  0  0  0  0
  9 31  1  0  0  0  0
  9  8  2  0  0  0  0
 10 34  1  0  0  0  0
 10 32  1  0  0  0  0
 11 36  1  0  0  0  0
 11 37  1  0  0  0  0
 11 35  1  0  0  0  0
 12  4  1  0  0  0  0
 12 17  1  0  0  0  0
 13 12  2  0  0  0  0
 14 13  1  0  0  0  0
 14 15  2  0  0  0  0
 15 16  1  0  0  0  0
 16 17  2  0  0  0  0
 16 41  1  0  0  0  0
 17 42  1  0  0  0  0
 18  5  1  0  0  0  0
 19 18  2  0  0  0  0
 19 20  1  0  0  0  0
 20 21  2  0  0  0  0
 21  5  1  0  0  0  0
 21 44  1  0  0  0  0
 22 19  1  0  0  0  0
 23 20  1  0  0  0  0
 23 49  1  0  0  0  0
 24 25  1  0  0  0  0
 25 26  2  0  0  0  0
 25 51  1  0  0  0  0
 26 52  1  0  0  0  0
 27 53  1  0  0  0  0
 27 26  1  0  0  0  0
 28 27  2  0  0  0  0
 29 28  1  0  0  0  0
 29 24  2  0  0  0  0
 30  6  1  0  0  0  0
 33 10  1  0  0  0  0
 38 13  1  0  0  0  0
 39 14  1  0  0  0  0
 40 15  1  0  0  0  0
 43 18  1  0  0  0  0
 45 22  1  0  0  0  0
 46 22  1  0  0  0  0
 47 22  1  0  0  0  0
 48 23  1  0  0  0  0
 50 23  1  0  0  0  0
 54 28  1  0  0  0  0
 55 29  1  0  0  0  0
M  END
$$$$
