CSD_code = ZUQXAM | q = 0 | S = 0 | Stoichiometry = C23H20ClN3O4PdS2 | MND = 4
 OpenBabel04212202133D

 54 59  0  0  1  0  0  0  0  0999 V2000
    3.7992    2.7853    1.7688 Pd  0  0  2  0  0  0  0  0  0  0  0  0
    2.9011    0.8799   -2.3088 S   0  0  0  0  0  0  0  0  0  0  0  0
    5.0568    4.2757    2.9198 S   0  0  0  0  0  0  0  0  0  0  0  0
    2.3651    2.7031    3.4411 Cl  0  0  0  0  0  0  0  0  0  0  0  0
    2.2015    0.0081    2.4105 O   0  0  0  0  0  0  0  0  0  0  0  0
    0.8408   -1.4043   -2.7763 O   0  0  0  0  0  0  0  0  0  0  0  0
    3.1169    1.3478    0.2245 N   0  0  0  0  0  0  0  0  0  0  0  0
    5.2839    7.0349    3.1019 O   0  0  0  0  0  0  0  0  0  0  0  0
    4.9340    3.2397    0.2135 N   0  0  0  0  0  0  0  0  0  0  0  0
    7.1537    5.5320    1.7451 N   0  0  0  0  0  2  0  0  0  0  0  0
   10.5811    7.1728    4.6815 O   0  0  0  0  0  0  0  0  0  0  0  0
    6.5669    7.0568    3.5611 C   0  0  0  0  0  0  0  0  0  0  0  0
    4.5972    2.7480   -0.9978 C   0  0  0  0  0  0  0  0  0  0  0  0
    3.5774    1.7333   -0.9382 C   0  0  1  0  0  3  0  0  0  0  0  0
    1.0694   -1.1148   -1.4668 C   0  0  0  0  0  0  0  0  0  0  0  0
    1.9688   -0.0802   -1.1980 C   0  0  0  0  0  0  0  0  0  0  0  0
    0.5050   -1.7493   -0.3703 C   0  0  0  0  0  0  0  0  0  0  0  0
   -0.1979   -2.5526   -0.5204 H   0  0  0  0  0  0  0  0  0  0  0  0
    8.8504    6.3237    3.1855 C   0  0  0  0  0  0  0  0  0  0  0  0
    9.5243    5.7173    2.6027 H   0  0  0  0  0  0  0  0  0  0  0  0
    5.8791    4.1875    0.3066 C   0  0  0  0  0  0  0  0  0  0  0  0
    2.2527    0.3102    0.1179 C   0  0  0  0  0  0  0  0  0  0  0  0
    7.0196    7.8281    4.6226 C   0  0  0  0  0  0  0  0  0  0  0  0
    6.3283    8.4255    5.1955 H   0  0  0  0  0  0  0  0  0  0  0  0
    9.2843    7.0866    4.2561 C   0  0  0  0  0  0  0  0  0  0  0  0
    7.4970    6.2721    2.8458 C   0  0  0  0  0  0  0  0  0  0  0  0
    5.2181    3.1802   -2.1672 C   0  0  0  0  0  0  0  0  0  0  0  0
    4.9121    2.7665   -3.1151 H   0  0  0  0  0  0  0  0  0  0  0  0
    1.6384   -0.5291    3.5861 C   0  0  0  0  0  0  0  0  0  0  0  0
    0.5536   -0.3958    3.6008 H   0  0  0  0  0  0  0  0  0  0  0  0
    2.0800    0.0431    4.3993 H   0  0  0  0  0  0  0  0  0  0  0  0
    1.8840   -1.5911    3.6909 H   0  0  0  0  0  0  0  0  0  0  0  0
    6.2198    4.1325   -2.0722 C   0  0  0  0  0  0  0  0  0  0  0  0
    6.7271    4.4789   -2.9592 H   0  0  0  0  0  0  0  0  0  0  0  0
    0.8335   -1.4100    0.9447 C   0  0  0  0  0  0  0  0  0  0  0  0
    0.3826   -1.9750    1.7442 H   0  0  0  0  0  0  0  0  0  0  0  0
    6.5527    4.6415   -0.8277 C   0  0  0  0  0  0  0  0  0  0  0  0
    7.3157    5.3903   -0.6944 H   0  0  0  0  0  0  0  0  0  0  0  0
    8.3547    7.8353    4.9759 C   0  0  0  0  0  0  0  0  0  0  0  0
    8.6996    8.4259    5.8091 H   0  0  0  0  0  0  0  0  0  0  0  0
    6.1438    4.7562    1.6292 C   0  0  0  0  0  0  0  0  0  0  0  0
   -0.0679   -2.4348   -3.0829 C   0  0  0  0  0  0  0  0  0  0  0  0
    0.2701   -3.3979   -2.6879 H   0  0  0  0  0  0  0  0  0  0  0  0
   -0.0996   -2.4813   -4.1699 H   0  0  0  0  0  0  0  0  0  0  0  0
   -1.0688   -2.2128   -2.6999 H   0  0  0  0  0  0  0  0  0  0  0  0
   11.5539    6.4213    4.0009 C   0  0  0  0  0  0  0  0  0  0  0  0
   11.3428    5.3480    4.0535 H   0  0  0  0  0  0  0  0  0  0  0  0
   12.4952    6.6282    4.5083 H   0  0  0  0  0  0  0  0  0  0  0  0
   11.6345    6.7231    2.9512 H   0  0  0  0  0  0  0  0  0  0  0  0
    1.7245   -0.3886    1.2222 C   0  0  0  0  0  0  0  0  0  0  0  0
    4.2992    7.7391    3.8146 C   0  0  0  0  0  0  0  0  0  0  0  0
    4.2342    7.3961    4.8514 H   0  0  0  0  0  0  0  0  0  0  0  0
    3.3606    7.5207    3.3076 H   0  0  0  0  0  0  0  0  0  0  0  0
    4.4832    8.8189    3.7944 H   0  0  0  0  0  0  0  0  0  0  0  0
  1  3  1  0  0  0  0
  1  4  1  6  0  0  0
  2 16  1  0  0  0  0
  5 29  1  0  0  0  0
  6 15  1  0  0  0  0
  7  1  1  0  0  0  0
  8 12  1  0  0  0  0
  8 51  1  0  0  0  0
  9 21  1  0  0  0  0
  9  1  1  0  0  0  0
 10 26  1  0  0  0  0
 12 23  1  0  0  0  0
 13 14  1  0  0  0  0
 13  9  1  0  0  0  0
 14  2  1  1  0  0  0
 14  7  1  0  0  0  0
 15 16  2  0  0  0  0
 15 17  1  0  0  0  0
 16 22  1  0  0  0  0
 17 35  2  0  0  0  0
 18 17  1  0  0  0  0
 19 25  2  0  0  0  0
 20 19  1  0  0  0  0
 21 41  2  0  0  0  0
 22  7  1  0  0  0  0
 22 50  2  0  0  0  0
 23 39  2  0  0  0  0
 23 24  1  0  0  0  0
 25 11  1  0  0  0  0
 25 39  1  0  0  0  0
 26 19  1  0  0  0  0
 26 12  2  0  0  0  0
 27 33  1  0  0  0  0
 27 13  2  0  0  0  0
 28 27  1  0  0  0  0
 29 30  1  0  0  0  0
 29 32  1  0  0  0  0
 29 31  1  0  0  0  0
 33 37  2  0  0  0  0
 34 33  1  0  0  0  0
 35 50  1  0  0  0  0
 35 36  1  0  0  0  0
 37 38  1  0  0  0  0
 37 21  1  0  0  0  0
 39 40  1  0  0  0  0
 41 10  1  0  0  0  0
 41  3  1  0  0  0  0
 42  6  1  0  0  0  0
 42 45  1  0  0  0  0
 42 43  1  0  0  0  0
 44 42  1  0  0  0  0
 46 47  1  0  0  0  0
 46 48  1  0  0  0  0
 46 11  1  0  0  0  0
 49 46  1  0  0  0  0
 50  5  1  0  0  0  0
 51 52  1  0  0  0  0
 53 51  1  0  0  0  0
 54 51  1  0  0  0  0
M  END
$$$$
