CSD_code = ZURZAN | q = 0 | S = 0 | Stoichiometry = C19H20ClN2O3Re | MND = 6
 OpenBabel04212202133D

 46 50  0  0  1  0  0  0  0  0999 V2000
    3.6708    6.1880    1.2474 Re  0  0  0  0  0  0  0  0  0  0  0  0
    2.0847    5.8561    2.8912 Cl  0  0  0  0  0  0  0  0  0  0  0  0
    4.6046    7.2295    2.1394 O   0  0  0  0  0  1  0  0  0  0  0  0
    2.4457    7.5683    0.2327 O   0  0  0  0  0  0  0  0  0  0  0  0
    2.6850    4.9486    0.2094 O   0  0  0  0  0  0  0  0  0  0  0  0
    5.0815    6.3428   -0.3462 N   0  0  1  0  0  0  0  0  0  0  0  0
    4.6323    4.4380    1.8639 N   0  0  2  0  0  0  0  0  0  0  0  0
    4.7903    6.8342   -1.4981 C   0  0  0  0  0  3  0  0  0  0  0  0
    3.5597    7.4095   -1.9177 C   0  0  0  0  0  0  0  0  0  0  0  0
    3.4419    7.7197   -3.2909 C   0  0  0  0  0  0  0  0  0  0  0  0
    2.3424    8.3475   -3.8068 C   0  0  0  0  0  0  0  0  0  0  0  0
    1.3034    8.7204   -2.9452 C   0  0  0  0  0  0  0  0  0  0  0  0
    1.3802    8.4479   -1.6089 C   0  0  0  0  0  0  0  0  0  0  0  0
    2.4916    7.7730   -1.0319 C   0  0  0  0  0  0  0  0  0  0  0  0
    6.4588    6.0521   -0.0264 C   0  0  0  0  0  0  0  0  0  0  0  0
    6.7336    4.6729    0.6086 C   0  0  0  0  0  0  0  0  0  0  0  0
    6.2568    3.5684   -0.3375 C   0  0  0  0  0  0  0  0  0  0  0  0
    8.2464    4.5555    0.8208 C   0  0  0  0  0  0  0  0  0  0  0  0
    6.0618    4.5300    2.0006 C   0  0  0  0  0  0  0  0  0  0  0  0
    4.0654    3.2835    1.9642 C   0  0  0  0  0  3  0  0  0  0  0  0
    2.7597    2.9610    1.4817 C   0  0  0  0  0  0  0  0  0  0  0  0
    2.1496    1.7441    1.8123 C   0  0  0  0  0  0  0  0  0  0  0  0
    0.9650    1.3658    1.2276 C   0  0  0  0  0  0  0  0  0  0  0  0
    0.3768    2.1832    0.2628 C   0  0  0  0  0  0  0  0  0  0  0  0
    0.9614    3.3720   -0.1052 C   0  0  0  0  0  0  0  0  0  0  0  0
    2.1427    3.8110    0.5157 C   0  0  0  0  0  0  0  0  0  0  0  0
    5.5808    6.8551   -2.2562 H   0  0  0  0  0  0  0  0  0  0  0  0
    4.2553    7.4389   -3.9467 H   0  0  0  0  0  0  0  0  0  0  0  0
    2.2767    8.5628   -4.8621 H   0  0  0  0  0  0  0  0  0  0  0  0
    0.4346    9.2245   -3.3429 H   0  0  0  0  0  0  0  0  0  0  0  0
    0.5887    8.7291   -0.9315 H   0  0  0  0  0  0  0  0  0  0  0  0
    7.0773    6.1437   -0.9292 H   0  0  0  0  0  0  0  0  0  0  0  0
    6.7716    6.8244    0.6872 H   0  0  0  0  0  0  0  0  0  0  0  0
    5.2020    3.6883   -0.5778 H   0  0  0  0  0  0  0  0  0  0  0  0
    6.8215    3.6046   -1.2667 H   0  0  0  0  0  0  0  0  0  0  0  0
    6.4006    2.5871    0.1095 H   0  0  0  0  0  0  0  0  0  0  0  0
    8.7762    4.6778   -0.1205 H   0  0  0  0  0  0  0  0  0  0  0  0
    8.4988    3.5786    1.2255 H   0  0  0  0  0  0  0  0  0  0  0  0
    8.5964    5.3167    1.5133 H   0  0  0  0  0  0  0  0  0  0  0  0
    6.2941    5.4103    2.6066 H   0  0  0  0  0  0  0  0  0  0  0  0
    6.4584    3.6327    2.4902 H   0  0  0  0  0  0  0  0  0  0  0  0
    4.6498    2.4507    2.3601 H   0  0  0  0  0  0  0  0  0  0  0  0
    2.6209    1.1148    2.5537 H   0  0  0  0  0  0  0  0  0  0  0  0
    0.4919    0.4376    1.5081 H   0  0  0  0  0  0  0  0  0  0  0  0
   -0.5509    1.8802   -0.1999 H   0  0  0  0  0  0  0  0  0  0  0  0
    0.5078    4.0161   -0.8437 H   0  0  0  0  0  0  0  0  0  0  0  0
  1  7  1  0  0  0  0
  1  3  1  0  0  0  0
  1  2  1  0  0  0  0
  4  1  1  0  0  0  0
  5 26  1  0  0  0  0
  5  1  1  0  0  0  0
  6  8  1  1  0  0  0
  6 15  1  0  0  0  0
  6  1  1  0  0  0  0
  7 20  1  6  0  0  0
  7 19  1  0  0  0  0
  9  8  1  0  0  0  0
  9 14  1  0  0  0  0
 10  9  2  0  0  0  0
 11 10  1  0  0  0  0
 11 12  2  0  0  0  0
 12 13  1  0  0  0  0
 13 14  2  0  0  0  0
 13 31  1  0  0  0  0
 14  4  1  0  0  0  0
 15 16  1  0  0  0  0
 15 33  1  0  0  0  0
 16 18  1  0  0  0  0
 16 19  1  0  0  0  0
 17 36  1  0  0  0  0
 17 16  1  0  0  0  0
 18 38  1  0  0  0  0
 18 39  1  0  0  0  0
 19 41  1  0  0  0  0
 19 40  1  0  0  0  0
 20 42  1  0  0  0  0
 21 22  1  0  0  0  0
 21 20  1  0  0  0  0
 22 43  1  0  0  0  0
 23 44  1  0  0  0  0
 23 22  2  0  0  0  0
 24 23  1  0  0  0  0
 25 24  2  0  0  0  0
 25 26  1  0  0  0  0
 26 21  2  0  0  0  0
 27  8  1  0  0  0  0
 28 10  1  0  0  0  0
 29 11  1  0  0  0  0
 30 12  1  0  0  0  0
 32 15  1  0  0  0  0
 34 17  1  0  0  0  0
 35 17  1  0  0  0  0
 37 18  1  0  0  0  0
 45 24  1  0  0  0  0
 46 25  1  0  0  0  0
M  END
$$$$
