CSD_code = ZUTREN | q = 0 | S = 0 | Stoichiometry = C10H14Cl4N2Pt | MND = 4
 OpenBabel04212202133D

 31 32  0  0  1  0  0  0  0  0999 V2000
    6.7914    2.5050    3.5720 Pt  0  0  0  0  0  0  0  0  0  0  0  0
   10.4358    1.6075    6.2161 Cl  0  0  0  0  0  0  0  0  0  0  0  0
    6.1758    1.7192    1.5577 Cl  0  0  0  0  0  0  0  0  0  0  0  0
    4.8134    6.3316    5.6970 Cl  0  0  0  0  0  0  0  0  0  0  0  0
    8.0268    4.0973    2.5558 Cl  0  0  0  0  0  0  0  0  0  0  0  0
    5.6898    1.1942    4.5954 N   0  0  0  0  0  0  0  0  0  0  0  0
    7.3181    3.1556    5.5879 N   0  0  0  0  0  4  0  0  0  0  0  0
    9.7320    2.7767    5.0563 C   0  0  0  0  0  0  0  0  0  0  0  0
   10.5623    3.3706    4.6794 H   0  0  0  0  0  0  0  0  0  0  0  0
    9.2952    2.2079    4.2261 H   0  0  0  0  0  0  0  0  0  0  0  0
    5.9534    1.1451    5.9122 C   0  0  1  0  0  3  0  0  0  0  0  0
    6.3441    4.1569    6.0544 C   0  0  0  0  0  0  0  0  0  0  0  0
    6.7225    4.6581    6.9554 H   0  0  0  0  0  0  0  0  0  0  0  0
    5.4181    3.6388    6.3210 H   0  0  0  0  0  0  0  0  0  0  0  0
    8.6858    3.6815    5.6968 C   0  0  0  0  0  0  0  0  0  0  0  0
    8.9399    3.8619    6.7495 H   0  0  0  0  0  0  0  0  0  0  0  0
    8.7084    4.6281    5.1542 H   0  0  0  0  0  0  0  0  0  0  0  0
    6.0025    5.2025    4.9982 C   0  0  0  0  0  0  0  0  0  0  0  0
    5.5451    4.7387    4.1160 H   0  0  0  0  0  0  0  0  0  0  0  0
    6.8665    5.7883    4.6890 H   0  0  0  0  0  0  0  0  0  0  0  0
    5.1842    0.3856    6.7782 C   0  0  0  0  0  0  0  0  0  0  0  0
    5.4213    0.3699    7.8306 H   0  0  0  0  0  0  0  0  0  0  0  0
    4.6676    0.4880    4.1096 C   0  0  0  0  0  0  0  0  0  0  0  0
    4.5149    0.5587    3.0402 H   0  0  0  0  0  0  0  0  0  0  0  0
    3.8651   -0.2984    4.9149 C   0  0  0  0  0  0  0  0  0  0  0  0
    3.0534   -0.8572    4.4789 H   0  0  0  0  0  0  0  0  0  0  0  0
    7.1537    1.9225    6.3759 C   0  0  0  0  0  0  0  0  0  0  0  0
    8.0383    1.2949    6.2269 H   0  0  0  0  0  0  0  0  0  0  0  0
    7.0840    2.1503    7.4479 H   0  0  0  0  0  0  0  0  0  0  0  0
    4.1222   -0.3517    6.2765 C   0  0  0  0  0  0  0  0  0  0  0  0
    3.5132   -0.9513    6.9345 H   0  0  0  0  0  0  0  0  0  0  0  0
  1  6  1  0  0  0  0
  1  7  1  0  0  0  0
  3  1  1  0  0  0  0
  5  1  1  0  0  0  0
  6 11  1  0  0  0  0
  7 15  1  0  0  0  0
  7 12  1  0  0  0  0
  7 27  1  0  0  0  0
  8 15  1  0  0  0  0
  8  2  1  0  0  0  0
  9  8  1  0  0  0  0
 10  8  1  0  0  0  0
 11 27  1  0  0  0  0
 11 21  1  6  0  0  0
 12 14  1  0  0  0  0
 12 13  1  0  0  0  0
 15 16  1  0  0  0  0
 17 15  1  0  0  0  0
 18  4  1  0  0  0  0
 18 12  1  0  0  0  0
 19 18  1  0  0  0  0
 20 18  1  0  0  0  0
 21 22  1  0  0  0  0
 23  6  1  0  0  0  0
 23 25  2  0  0  0  0
 24 23  1  0  0  0  0
 25 30  1  0  0  0  0
 26 25  1  0  0  0  0
 27 29  1  0  0  0  0
 28 27  1  0  0  0  0
 30 21  2  0  0  0  0
 30 31  1  0  0  0  0
M  END
$$$$
