CSD_code = ZUVWUI | q = 0 | S = 0 | Stoichiometry = C25H33Cl2NP3ReS | MND = 6
 OpenBabel04212202133D

 66 68  0  0  0  0  0  0  0  0999 V2000
    4.4372    2.1203    0.8567 Re  0  0  0  0  0  0  0  0  0  0  0  0
    2.5791    3.3873    0.1726 Cl  0  0  0  0  0  0  0  0  0  0  0  0
    6.2648    0.7270    1.3726 Cl  0  0  0  0  0  0  0  0  0  0  0  0
    6.4414    5.3396    3.7143 S   0  0  0  0  0  0  0  0  0  0  0  0
    5.7444    3.2522   -0.8232 P   0  0  0  0  0  4  0  0  0  0  0  0
    3.7341    0.2700   -0.5106 P   0  0  0  0  0  4  0  0  0  0  0  0
    3.0473    1.4892    2.7212 P   0  0  0  0  0  4  0  0  0  0  0  0
    5.1875    3.5407    2.0402 N   0  0  0  0  0  0  0  0  0  0  0  0
    5.7286    4.3007    2.7565 C   0  0  0  0  0  0  0  0  0  0  0  0
    7.5425    3.0150   -0.6691 C   0  0  0  0  0  0  0  0  0  0  0  0
    5.5994    5.0704   -0.7022 C   0  0  0  0  0  0  0  0  0  0  0  0
    5.3784    3.0072   -2.5872 C   0  0  0  0  0  0  0  0  0  0  0  0
    4.1341    3.4293   -3.0506 C   0  0  0  0  0  0  0  0  0  0  0  0
    3.7926    3.2659   -4.3804 C   0  0  0  0  0  0  0  0  0  0  0  0
    4.6858    2.6722   -5.2583 C   0  0  0  0  0  0  0  0  0  0  0  0
    5.9182    2.2384   -4.7998 C   0  0  0  0  0  0  0  0  0  0  0  0
    6.2654    2.4008   -3.4693 C   0  0  0  0  0  0  0  0  0  0  0  0
    2.4162    0.6028   -1.7279 C   0  0  0  0  0  0  0  0  0  0  0  0
    5.0359   -0.4381   -1.5843 C   0  0  0  0  0  0  0  0  0  0  0  0
    3.1805   -1.2418    0.3475 C   0  0  0  0  0  0  0  0  0  0  0  0
    1.8888   -1.7469    0.2380 C   0  0  0  0  0  0  0  0  0  0  0  0
    1.5360   -2.9050    0.9097 C   0  0  0  0  0  0  0  0  0  0  0  0
    2.4647   -3.5688    1.6931 C   0  0  0  0  0  0  0  0  0  0  0  0
    3.7492   -3.0648    1.8139 C   0  0  0  0  0  0  0  0  0  0  0  0
    4.1046   -1.9053    1.1509 C   0  0  0  0  0  0  0  0  0  0  0  0
    1.3140    1.0669    2.3380 C   0  0  0  0  0  0  0  0  0  0  0  0
    2.7966    2.8673    3.8960 C   0  0  0  0  0  0  0  0  0  0  0  0
    3.6462    0.1750    3.8150 C   0  0  0  0  0  0  0  0  0  0  0  0
    2.9296   -0.9767    4.1088 C   0  0  0  0  0  0  0  0  0  0  0  0
    3.4796   -1.9346    4.9428 C   0  0  0  0  0  0  0  0  0  0  0  0
    4.7447   -1.7549    5.4751 C   0  0  0  0  0  0  0  0  0  0  0  0
    5.4669   -0.6100    5.1766 C   0  0  0  0  0  0  0  0  0  0  0  0
    4.9201    0.3508    4.3494 C   0  0  0  0  0  0  0  0  0  0  0  0
    3.4340    3.8756   -2.3575 H   0  0  0  0  0  0  0  0  0  0  0  0
    2.8278    3.6002   -4.7329 H   0  0  0  0  0  0  0  0  0  0  0  0
    4.4207    2.5455   -6.2975 H   0  0  0  0  0  0  0  0  0  0  0  0
    6.6143    1.7710   -5.4812 H   0  0  0  0  0  0  0  0  0  0  0  0
    7.2279    2.0554   -3.1224 H   0  0  0  0  0  0  0  0  0  0  0  0
    1.1523   -1.2432   -0.3712 H   0  0  0  0  0  0  0  0  0  0  0  0
    0.5303   -3.2902    0.8181 H   0  0  0  0  0  0  0  0  0  0  0  0
    2.1850   -4.4743    2.2110 H   0  0  0  0  0  0  0  0  0  0  0  0
    4.4758   -3.5722    2.4306 H   0  0  0  0  0  0  0  0  0  0  0  0
    5.0990   -1.4982    1.2644 H   0  0  0  0  0  0  0  0  0  0  0  0
    1.9480   -1.1349    3.6879 H   0  0  0  0  0  0  0  0  0  0  0  0
    2.9174   -2.8283    5.1725 H   0  0  0  0  0  0  0  0  0  0  0  0
    5.1710   -2.5091    6.1203 H   0  0  0  0  0  0  0  0  0  0  0  0
    6.4570   -0.4710    5.5845 H   0  0  0  0  0  0  0  0  0  0  0  0
    5.4814    1.2419    4.0990 H   0  0  0  0  0  0  0  0  0  0  0  0
    7.7921    1.9616   -0.7850 H   0  0  0  0  0  0  0  0  0  0  0  0
    8.0738    3.6265   -1.3981 H   0  0  0  0  0  0  0  0  0  0  0  0
    7.8177    3.3175    0.3421 H   0  0  0  0  0  0  0  0  0  0  0  0
    4.5484    5.3553   -0.7193 H   0  0  0  0  0  0  0  0  0  0  0  0
    6.0350    5.3947    0.2420 H   0  0  0  0  0  0  0  0  0  0  0  0
    6.1252    5.5348   -1.5366 H   0  0  0  0  0  0  0  0  0  0  0  0
    1.5345    0.9948   -1.2236 H   0  0  0  0  0  0  0  0  0  0  0  0
    2.7863    1.3695   -2.4086 H   0  0  0  0  0  0  0  0  0  0  0  0
    2.1765   -0.3012   -2.2866 H   0  0  0  0  0  0  0  0  0  0  0  0
    5.9052   -0.6775   -0.9742 H   0  0  0  0  0  0  0  0  0  0  0  0
    4.6605   -1.3390   -2.0692 H   0  0  0  0  0  0  0  0  0  0  0  0
    5.3150    0.3005   -2.3352 H   0  0  0  0  0  0  0  0  0  0  0  0
    1.2667    0.1594    1.7393 H   0  0  0  0  0  0  0  0  0  0  0  0
    0.7523    0.9399    3.2630 H   0  0  0  0  0  0  0  0  0  0  0  0
    0.8962    1.8953    1.7655 H   0  0  0  0  0  0  0  0  0  0  0  0
    3.7438    3.1486    4.3523 H   0  0  0  0  0  0  0  0  0  0  0  0
    2.4022    3.7211    3.3438 H   0  0  0  0  0  0  0  0  0  0  0  0
    2.0915    2.5615    4.6693 H   0  0  0  0  0  0  0  0  0  0  0  0
  1  3  1  0  0  0  0
  1  8  1  0  0  0  0
  1  7  1  0  0  0  0
  2  1  1  0  0  0  0
  5 11  1  0  0  0  0
  5 10  1  0  0  0  0
  5  1  1  0  0  0  0
  6 20  1  0  0  0  0
  6  1  1  0  0  0  0
  7 28  1  0  0  0  0
  7 27  1  0  0  0  0
  8  9  2  0  0  0  0
  9  4  2  0  0  0  0
 10 51  1  0  0  0  0
 11 53  1  0  0  0  0
 12  5  1  0  0  0  0
 13 12  1  0  0  0  0
 13 34  1  0  0  0  0
 14 13  2  0  0  0  0
 15 16  2  0  0  0  0
 15 14  1  0  0  0  0
 16 17  1  0  0  0  0
 17 38  1  0  0  0  0
 17 12  2  0  0  0  0
 18 55  1  0  0  0  0
 18  6  1  0  0  0  0
 19 58  1  0  0  0  0
 19  6  1  0  0  0  0
 20 25  1  0  0  0  0
 21 20  2  0  0  0  0
 21 22  1  0  0  0  0
 22 23  2  0  0  0  0
 23 24  1  0  0  0  0
 23 41  1  0  0  0  0
 24 42  1  0  0  0  0
 25 43  1  0  0  0  0
 25 24  2  0  0  0  0
 26  7  1  0  0  0  0
 26 62  1  0  0  0  0
 27 64  1  0  0  0  0
 27 66  1  0  0  0  0
 28 29  2  0  0  0  0
 28 33  1  0  0  0  0
 29 30  1  0  0  0  0
 30 45  1  0  0  0  0
 30 31  2  0  0  0  0
 31 46  1  0  0  0  0
 32 31  1  0  0  0  0
 32 47  1  0  0  0  0
 33 32  2  0  0  0  0
 35 14  1  0  0  0  0
 36 15  1  0  0  0  0
 37 16  1  0  0  0  0
 39 21  1  0  0  0  0
 40 22  1  0  0  0  0
 44 29  1  0  0  0  0
 48 33  1  0  0  0  0
 49 10  1  0  0  0  0
 50 10  1  0  0  0  0
 52 11  1  0  0  0  0
 54 11  1  0  0  0  0
 56 18  1  0  0  0  0
 57 18  1  0  0  0  0
 59 19  1  0  0  0  0
 60 19  1  0  0  0  0
 61 26  1  0  0  0  0
 63 26  1  0  0  0  0
 65 27  1  0  0  0  0
M  END
$$$$
