CSD_code = ZUVWOC | q = 0 | S = 0 | Stoichiometry = C25H33Cl2NP3ReS | MND = 6
 OpenBabel04212202133D

 66 68  0  0  0  0  0  0  0  0999 V2000
    3.1306    2.4303    1.5448 Re  0  0  0  0  0  0  0  0  0  0  0  0
    4.0878    1.2669    3.3647 Cl  0  0  0  0  0  0  0  0  0  0  0  0
    1.9083    0.6508    0.7637 Cl  0  0  0  0  0  0  0  0  0  0  0  0
    5.5389    6.2614    2.9152 S   0  0  0  0  0  0  0  0  0  0  0  0
    1.4417    2.7682    3.2305 P   0  0  0  0  0  4  0  0  0  0  0  0
    2.2384    3.8653   -0.1967 P   0  0  0  0  0  4  0  0  0  0  0  0
    4.9157    1.5459    0.1949 P   0  0  0  0  0  4  0  0  0  0  0  0
    4.1024    4.0439    2.1147 N   0  0  0  0  0  0  0  0  0  0  0  0
    4.7279    4.9773    2.4719 C   0  0  0  0  0  0  0  0  0  0  0  0
    0.9299    1.2388    4.0887 C   0  0  0  0  0  0  0  0  0  0  0  0
    1.9840    3.8150    4.6181 C   0  0  0  0  0  0  0  0  0  0  0  0
   -0.1852    3.4225    2.7467 C   0  0  0  0  0  0  0  0  0  0  0  0
   -0.9697    2.6266    1.9145 C   0  0  0  0  0  0  0  0  0  0  0  0
   -2.2114    3.0652    1.4940 C   0  0  0  0  0  0  0  0  0  0  0  0
   -2.6794    4.3070    1.8940 C   0  0  0  0  0  0  0  0  0  0  0  0
   -1.8985    5.1083    2.7096 C   0  0  0  0  0  0  0  0  0  0  0  0
   -0.6542    4.6724    3.1329 C   0  0  0  0  0  0  0  0  0  0  0  0
    0.8096    3.2192   -1.1249 C   0  0  0  0  0  0  0  0  0  0  0  0
    1.5953    5.4721    0.4005 C   0  0  0  0  0  0  0  0  0  0  0  0
    3.4013    4.4410   -1.4767 C   0  0  0  0  0  0  0  0  0  0  0  0
    3.2660    4.1308   -2.8261 C   0  0  0  0  0  0  0  0  0  0  0  0
    4.1901    4.6019   -3.7433 C   0  0  0  0  0  0  0  0  0  0  0  0
    5.2534    5.3840   -3.3255 C   0  0  0  0  0  0  0  0  0  0  0  0
    5.3993    5.6877   -1.9816 C   0  0  0  0  0  0  0  0  0  0  0  0
    4.4839    5.2127   -1.0622 C   0  0  0  0  0  0  0  0  0  0  0  0
    4.4901    1.0398   -1.5069 C   0  0  0  0  0  0  0  0  0  0  0  0
    5.6015   -0.0175    0.8413 C   0  0  0  0  0  0  0  0  0  0  0  0
    6.3960    2.5806    0.0555 C   0  0  0  0  0  0  0  0  0  0  0  0
    6.9433    3.0029   -1.1476 C   0  0  0  0  0  0  0  0  0  0  0  0
    8.0584    3.8232   -1.1447 C   0  0  0  0  0  0  0  0  0  0  0  0
    8.6220    4.2336    0.0512 C   0  0  0  0  0  0  0  0  0  0  0  0
    8.0750    3.8179    1.2551 C   0  0  0  0  0  0  0  0  0  0  0  0
    6.9667    2.9946    1.2569 C   0  0  0  0  0  0  0  0  0  0  0  0
   -0.5929    1.6638    1.5956 H   0  0  0  0  0  0  0  0  0  0  0  0
   -2.8160    2.4395    0.8534 H   0  0  0  0  0  0  0  0  0  0  0  0
   -3.6501    4.6504    1.5685 H   0  0  0  0  0  0  0  0  0  0  0  0
   -2.2595    6.0785    3.0190 H   0  0  0  0  0  0  0  0  0  0  0  0
   -0.0517    5.3077    3.7648 H   0  0  0  0  0  0  0  0  0  0  0  0
    2.4418    3.5218   -3.1679 H   0  0  0  0  0  0  0  0  0  0  0  0
    4.0768    4.3567   -4.7897 H   0  0  0  0  0  0  0  0  0  0  0  0
    5.9687    5.7520   -4.0459 H   0  0  0  0  0  0  0  0  0  0  0  0
    6.2301    6.2900   -1.6465 H   0  0  0  0  0  0  0  0  0  0  0  0
    4.6096    5.4311   -0.0123 H   0  0  0  0  0  0  0  0  0  0  0  0
    6.5031    2.7010   -2.0863 H   0  0  0  0  0  0  0  0  0  0  0  0
    8.4849    4.1476   -2.0832 H   0  0  0  0  0  0  0  0  0  0  0  0
    9.4863    4.8815    0.0462 H   0  0  0  0  0  0  0  0  0  0  0  0
    8.5080    4.1438    2.1891 H   0  0  0  0  0  0  0  0  0  0  0  0
    6.5222    2.6729    2.1903 H   0  0  0  0  0  0  0  0  0  0  0  0
    0.6319    0.4889    3.3571 H   0  0  0  0  0  0  0  0  0  0  0  0
    1.7785    0.8585    4.6556 H   0  0  0  0  0  0  0  0  0  0  0  0
    0.0956    1.4630    4.7541 H   0  0  0  0  0  0  0  0  0  0  0  0
    2.2411    4.8105    4.2593 H   0  0  0  0  0  0  0  0  0  0  0  0
    1.2083    3.8675    5.3817 H   0  0  0  0  0  0  0  0  0  0  0  0
    2.8829    3.3557    5.0305 H   0  0  0  0  0  0  0  0  0  0  0  0
    1.0655    2.2602   -1.5724 H   0  0  0  0  0  0  0  0  0  0  0  0
    0.0029    3.0590   -0.4100 H   0  0  0  0  0  0  0  0  0  0  0  0
    0.4945    3.9342   -1.8842 H   0  0  0  0  0  0  0  0  0  0  0  0
    2.3705    5.9801    0.9713 H   0  0  0  0  0  0  0  0  0  0  0  0
    1.3003    6.0877   -0.4489 H   0  0  0  0  0  0  0  0  0  0  0  0
    0.7376    5.2912    1.0470 H   0  0  0  0  0  0  0  0  0  0  0  0
    4.1844    1.9021   -2.0959 H   0  0  0  0  0  0  0  0  0  0  0  0
    5.3438    0.5476   -1.9719 H   0  0  0  0  0  0  0  0  0  0  0  0
    3.6566    0.3400   -1.4395 H   0  0  0  0  0  0  0  0  0  0  0  0
    6.0408    0.1507    1.8228 H   0  0  0  0  0  0  0  0  0  0  0  0
    4.7860   -0.7353    0.9401 H   0  0  0  0  0  0  0  0  0  0  0  0
    6.3566   -0.3948    0.1508 H   0  0  0  0  0  0  0  0  0  0  0  0
  1  8  1  0  0  0  0
  1  5  1  0  0  0  0
  1  2  1  0  0  0  0
  3  1  1  0  0  0  0
  5 10  1  0  0  0  0
  5 11  1  0  0  0  0
  6 19  1  0  0  0  0
  6  1  1  0  0  0  0
  7 27  1  0  0  0  0
  7  1  1  0  0  0  0
  8  9  2  0  0  0  0
  9  4  2  0  0  0  0
 10 50  1  0  0  0  0
 10 51  1  0  0  0  0
 11 54  1  0  0  0  0
 11 53  1  0  0  0  0
 12 17  1  0  0  0  0
 12  5  1  0  0  0  0
 13 12  2  0  0  0  0
 14 15  2  0  0  0  0
 14 13  1  0  0  0  0
 15 16  1  0  0  0  0
 16 37  1  0  0  0  0
 16 17  2  0  0  0  0
 17 38  1  0  0  0  0
 18 56  1  0  0  0  0
 18  6  1  0  0  0  0
 19 58  1  0  0  0  0
 19 60  1  0  0  0  0
 20 25  1  0  0  0  0
 20  6  1  0  0  0  0
 21 20  2  0  0  0  0
 22 23  2  0  0  0  0
 22 21  1  0  0  0  0
 23 24  1  0  0  0  0
 24 42  1  0  0  0  0
 24 25  2  0  0  0  0
 25 43  1  0  0  0  0
 26 63  1  0  0  0  0
 26  7  1  0  0  0  0
 27 65  1  0  0  0  0
 27 64  1  0  0  0  0
 28  7  1  0  0  0  0
 28 33  1  0  0  0  0
 29 30  1  0  0  0  0
 29 28  2  0  0  0  0
 30 31  2  0  0  0  0
 31 32  1  0  0  0  0
 32 33  2  0  0  0  0
 32 47  1  0  0  0  0
 33 48  1  0  0  0  0
 34 13  1  0  0  0  0
 35 14  1  0  0  0  0
 36 15  1  0  0  0  0
 39 21  1  0  0  0  0
 40 22  1  0  0  0  0
 41 23  1  0  0  0  0
 44 29  1  0  0  0  0
 45 30  1  0  0  0  0
 46 31  1  0  0  0  0
 49 10  1  0  0  0  0
 52 11  1  0  0  0  0
 55 18  1  0  0  0  0
 57 18  1  0  0  0  0
 59 19  1  0  0  0  0
 61 26  1  0  0  0  0
 62 26  1  0  0  0  0
 66 27  1  0  0  0  0
M  END
$$$$
