CSD_code = ZUYNEM | q = 0 | S = 0 | Stoichiometry = C21H34ClFeN3Si | MND = 5
 OpenBabel04212202133D

 61 64  0  0  1  0  0  0  0  0999 V2000
    2.5090    3.2063    1.9686 Fe  0  0  0  0  0  0  0  0  0  0  0  0
    2.6478    5.5000    0.1974 Si  0  0  0  0  0  0  0  0  0  0  0  0
    2.2441    3.4177    4.1154 Cl  0  0  0  0  0  0  0  0  0  0  0  0
    0.7025    3.5328    1.5118 N   0  0  0  0  0  0  0  0  0  0  0  0
    4.5662    2.3440    2.3881 N   0  0  0  0  0  4  0  0  0  0  0  0
    1.9691    0.8932    1.8828 N   0  0  0  0  0  4  0  0  0  0  0  0
   -0.4749    3.4953    2.1178 C   0  0  0  0  0  3  0  0  0  0  0  0
   -1.6577    3.4200    1.4024 C   0  0  0  0  0  0  0  0  0  0  0  0
   -1.5957    3.3931    0.0138 C   0  0  0  0  0  0  0  0  0  0  0  0
   -0.3637    3.4477   -0.6171 C   0  0  0  0  0  0  0  0  0  0  0  0
    0.7866    3.5253    0.1640 C   0  0  0  0  0  0  0  0  0  0  0  0
    2.1919    3.6925   -0.1914 C   0  0  2  0  0  0  0  0  0  0  0  0
    2.7731    3.0353   -1.3384 C   0  0  0  0  0  0  0  0  0  0  0  0
    2.1166    2.0481   -2.0919 C   0  0  0  0  0  0  0  0  0  0  0  0
    2.7474    1.3946   -3.1320 C   0  0  0  0  0  0  0  0  0  0  0  0
    4.0587    1.6908   -3.4653 C   0  0  0  0  0  0  0  0  0  0  0  0
    4.7313    2.6592   -2.7346 C   0  0  0  0  0  0  0  0  0  0  0  0
    4.1034    3.3115   -1.6964 C   0  0  0  0  0  0  0  0  0  0  0  0
    1.2054    6.4210    1.0558 C   0  0  0  0  0  0  0  0  0  0  0  0
    3.0184    6.4871   -1.3992 C   0  0  0  0  0  0  0  0  0  0  0  0
    4.0898    5.6755    1.4463 C   0  0  0  0  0  0  0  0  0  0  0  0
    3.2721    0.2391    2.0350 C   0  0  0  0  0  0  0  0  0  0  0  0
    4.2149    1.0281    2.9340 C   0  0  0  0  0  0  0  0  0  0  0  0
    5.3292    2.2056    1.1521 C   0  0  0  0  0  0  0  0  0  0  0  0
    5.3894    3.0228    3.3896 C   0  0  0  0  0  0  0  0  0  0  0  0
    1.1195    0.6013    3.0371 C   0  0  0  0  0  0  0  0  0  0  0  0
    1.3161    0.3629    0.6920 C   0  0  0  0  0  0  0  0  0  0  0  0
   -0.4578    3.5279    3.1981 H   0  0  0  0  0  0  0  0  0  0  0  0
   -2.6045    3.3943    1.9178 H   0  0  0  0  0  0  0  0  0  0  0  0
   -2.5034    3.3510   -0.5705 H   0  0  0  0  0  0  0  0  0  0  0  0
   -0.2957    3.4783   -1.6930 H   0  0  0  0  0  0  0  0  0  0  0  0
    1.0928    1.7931   -1.8677 H   0  0  0  0  0  0  0  0  0  0  0  0
    2.2070    0.6438   -3.6925 H   0  0  0  0  0  0  0  0  0  0  0  0
    4.5474    1.1788   -4.2806 H   0  0  0  0  0  0  0  0  0  0  0  0
    5.7557    2.9033   -2.9801 H   0  0  0  0  0  0  0  0  0  0  0  0
    4.6440    4.0545   -1.1310 H   0  0  0  0  0  0  0  0  0  0  0  0
    1.0663    6.0560    2.0691 H   0  0  0  0  0  0  0  0  0  0  0  0
    1.4088    7.4858    1.1159 H   0  0  0  0  0  0  0  0  0  0  0  0
    0.2655    6.2966    0.5275 H   0  0  0  0  0  0  0  0  0  0  0  0
    3.7315    5.9874   -2.0433 H   0  0  0  0  0  0  0  0  0  0  0  0
    2.1094    6.6309   -1.9740 H   0  0  0  0  0  0  0  0  0  0  0  0
    3.4162    7.4679   -1.1611 H   0  0  0  0  0  0  0  0  0  0  0  0
    3.8571    5.1349    2.3670 H   0  0  0  0  0  0  0  0  0  0  0  0
    5.0382    5.3180    1.0623 H   0  0  0  0  0  0  0  0  0  0  0  0
    4.2206    6.7180    1.7165 H   0  0  0  0  0  0  0  0  0  0  0  0
    3.7181    0.1325    1.0448 H   0  0  0  0  0  0  0  0  0  0  0  0
    3.1485   -0.7714    2.4564 H   0  0  0  0  0  0  0  0  0  0  0  0
    3.7374    1.1999    3.9000 H   0  0  0  0  0  0  0  0  0  0  0  0
    5.1272    0.4306    3.0954 H   0  0  0  0  0  0  0  0  0  0  0  0
    6.1611    1.4992    1.2713 H   0  0  0  0  0  0  0  0  0  0  0  0
    4.6856    1.8746    0.3422 H   0  0  0  0  0  0  0  0  0  0  0  0
    5.7376    3.1718    0.8711 H   0  0  0  0  0  0  0  0  0  0  0  0
    6.2560    2.4103    3.6699 H   0  0  0  0  0  0  0  0  0  0  0  0
    5.7486    3.9716    2.9998 H   0  0  0  0  0  0  0  0  0  0  0  0
    4.7844    3.2142    4.2742 H   0  0  0  0  0  0  0  0  0  0  0  0
    0.9902   -0.4815    3.1693 H   0  0  0  0  0  0  0  0  0  0  0  0
    1.5477    1.0315    3.9374 H   0  0  0  0  0  0  0  0  0  0  0  0
    0.1438    1.0561    2.8839 H   0  0  0  0  0  0  0  0  0  0  0  0
    1.1683   -0.7236    0.7682 H   0  0  0  0  0  0  0  0  0  0  0  0
    0.3434    0.8341    0.5679 H   0  0  0  0  0  0  0  0  0  0  0  0
    1.9221    0.5762   -0.1858 H   0  0  0  0  0  0  0  0  0  0  0  0
  1  5  1  0  0  0  0
  1  3  1  0  0  0  0
  2 19  1  0  0  0  0
  2 21  1  0  0  0  0
  4  1  1  0  0  0  0
  4  7  1  0  0  0  0
  5 23  1  0  0  0  0
  5 25  1  0  0  0  0
  6  1  1  0  0  0  0
  6 22  1  0  0  0  0
  6 26  1  0  0  0  0
  7 28  1  0  0  0  0
  8 29  1  0  0  0  0
  8  7  1  0  0  0  0
  9  8  2  0  0  0  0
 10  9  1  0  0  0  0
 10 11  2  0  0  0  0
 11  4  1  0  0  0  0
 12 11  1  0  0  0  0
 12  2  1  6  0  0  0
 12  1  1  0  0  0  0
 13 12  1  0  0  0  0
 14 32  1  0  0  0  0
 14 13  2  0  0  0  0
 15 14  1  0  0  0  0
 16 15  2  0  0  0  0
 16 17  1  0  0  0  0
 17 18  2  0  0  0  0
 18 13  1  0  0  0  0
 18 36  1  0  0  0  0
 19 38  1  0  0  0  0
 19 37  1  0  0  0  0
 20 42  1  0  0  0  0
 20  2  1  0  0  0  0
 21 45  1  0  0  0  0
 21 43  1  0  0  0  0
 22 47  1  0  0  0  0
 22 23  1  0  0  0  0
 23 49  1  0  0  0  0
 23 48  1  0  0  0  0
 24 50  1  0  0  0  0
 24  5  1  0  0  0  0
 25 53  1  0  0  0  0
 25 55  1  0  0  0  0
 26 56  1  0  0  0  0
 26 57  1  0  0  0  0
 27 59  1  0  0  0  0
 27  6  1  0  0  0  0
 30  9  1  0  0  0  0
 31 10  1  0  0  0  0
 33 15  1  0  0  0  0
 34 16  1  0  0  0  0
 35 17  1  0  0  0  0
 39 19  1  0  0  0  0
 40 20  1  0  0  0  0
 41 20  1  0  0  0  0
 44 21  1  0  0  0  0
 46 22  1  0  0  0  0
 51 24  1  0  0  0  0
 52 24  1  0  0  0  0
 54 25  1  0  0  0  0
 58 26  1  0  0  0  0
 60 27  1  0  0  0  0
 61 27  1  0  0  0  0
M  END
$$$$
