41
CSD_code = AAZDCO | q = 1 | S = 0 | Stoichiometry = C8H22CoN6O4(1+) | MND = 6
Co       -0.87158512856538    3.70108912047449    1.35402533684118
C        -2.24642265922175    6.40588996892297    0.86661045927075
C        -2.95287571366662    5.79687893123645   -0.33833588233381
C        -3.48312483633857    4.39808620617381   -0.04328892782698
C        -2.91533138363518    2.05179293311973    0.24903212598233
C        -1.71423657717709    1.13917153341905    0.43283016772326
C         0.32206958747391    0.93049895880896    1.74496694696835
C         1.09924362036215    1.43342714531617    2.95652562815285
C         1.73586053660679    2.79443238128946    2.70304810368637
H        -0.27404905487058    6.04073613897499    0.47124705682252
H        -3.51380913335302    1.74193179320839   -0.61283976890572
H        -3.54655095381072    2.03196240789833    1.14149384232379
H        -1.10290595802001    1.13015339242107   -0.47354990013306
H        -2.03096060341612    0.11567998333320    0.65450892058296
H        -1.49008474565860    1.56174585247377    2.38072753431352
H         0.93778093237818    1.00687890942323    0.84481985761889
H         0.07292308455484   -0.12656882142624    1.89208563915607
H         1.89162457888250    0.72029451494032    3.18039637270624
H         0.44205631316843    1.48394836351405    3.82782994412504
H         2.29843194565057    2.76756893365264    1.76706524018136
H        -0.66083436220498    6.10636598499210    2.06324574902123
H         2.43923471081348    3.01845264686916    3.51137202010849
H         1.24234514200859    4.69713395897851    2.28823178006489
H         0.40066925965061    4.08674055670255    3.55566185424874
H        -2.06660240137716    7.46919824561790    0.67866792209528
H        -2.88771335175012    6.32486516573761    1.74720514946487
H        -2.27457338090933    5.76698418742834   -1.19428353986627
H        -3.79297492802628    6.43731495847687   -0.60393841918136
H        -4.16287778852812    4.09481602865736   -0.84770132798536
H        -4.05045534655369    4.40030792521213    0.89123933490613
H        -1.91595653441125    3.40408878023140   -0.84409775388152
N        -0.96725287867511    5.73512707881590    1.16065655383188
N        -2.39733287480131    3.41859496723798    0.06390989743133
N        -0.91396999361882    1.69200318921078    1.53957186107697
N         0.73304009103034    3.87092767712962    2.61116690702148
N        -1.97863054145407    3.84005035922400    2.83817342463819
N         0.31282060733467    3.67571124236386   -0.07499042023697
O        -1.74919011767145    4.79036897166895    3.57795952864134
O        -2.81884107822630    2.98468313002354    3.08145539939033
O         1.26012890494453    4.44897339638623    0.01335760472578
O         0.09861301108201    2.98219290186031   -1.05986222277145

