33
CSD_code = ABAJOF | q = 0 | S = 0 | Stoichiometry = C11H15I2N3OPt | MND = 4
C         0.03936115544064   10.34889569127316   12.09162033877470
C         1.56211213866257   11.96458331730365   11.97840007891026
H         1.97465425282168   12.94100809134976   12.12524922793757
C         2.08515515020816   10.86218213101279   11.39337149728793
H         3.04051152886081   10.70164079497056   10.93876369530576
C        -0.61131785300852   12.50571562147483   13.07778899081770
H        -1.05843265499538   13.20896485147569   12.37169013258812
H        -0.09623735793963   13.05751251509717   13.86371880407602
H        -1.40640112849935   11.89893861335778   13.52563463367659
C         1.31544159363750    8.52556486110170   11.00164521342994
H         1.37252620658266    7.83717130747416   11.85192206130086
H         2.25154007753167    8.46398149532227   10.44385716094532
C         0.16915620550393    8.08871638334610   10.08421635169251
H        -0.76055166987684    7.99353024267319   10.68529153303507
H         0.00623489970044    8.85300952887685    9.31087550506595
C        -3.60902065714064    7.23033346153232   12.58164751398450
H        -2.78612353440803    6.71122324271392   12.10063841116649
C        -4.79005056673756    6.57203522173955   12.86733637080788
H        -4.90399257198979    5.53367151131316   12.60012843218299
C        -5.80773718361808    7.26726164262971   13.50202253927379
H        -6.74081681438898    6.78196725385852   13.74303357399091
C        -5.59789747557564    8.59979012966899   13.82191108373461
H        -6.35754135026417    9.18253664504862   14.31774500765707
C        -4.38954038901714    9.18287912184203   13.49155404926125
H        -4.19484453303022   10.22667361417203   13.71775412975225
N         0.30648960354189   11.62778233699622   12.40391564565633
N         1.13879702003015    9.87569217469151   11.47267863926591
N        -3.41403783770306    8.51154545175348   12.88401042131298
O         0.52940670807473    6.85622363701138    9.51495268821976
H        -0.15656816112912    6.58021763141371    8.89854748791104
I        -0.56704777831013    8.23808886746038   14.53545145795409
I        -2.81549207132478   10.69283143317032   10.46255713572271
Pt       -1.68423495162921    9.42283117688341   12.47547018730169

