62
CSD_code = ABAJET | q = 1 | S = 0 | Stoichiometry = C25H31N4SZn(1+) | MND = 5
Zn        2.87121158880182    8.62241423586272   15.60062223814993
S         1.68196462189222    6.77929434731600   15.02536848176594
N         1.66275344606131    9.65467904461788   17.14384438187386
C         0.25930683054243    9.83398290685187   16.74698329721541
H        -0.33881692097938   10.13033255928164   17.62085788854489
H        -0.10332202286848    8.86589562605825   16.39184698337103
N         2.24004849926195   10.42464389895487   14.45343041584579
C         0.05305179168142   10.86286202095402   15.64528857092174
H        -1.01498819701980   10.88929019985917   15.42190849540017
H         0.32550309800473   11.86010393359668   15.98895623304606
N         3.95845888222007    8.21676525171430   17.47578551020040
C         0.77236057146775   10.52144102121723   14.34852829158939
H         0.50933631383617   11.28087772285549   13.59820592754454
H         0.40983856497236    9.54988034096109   14.00281832684282
N         4.43848081122804    8.74888732252231   14.09601030945693
C         2.84062827648355   11.62215315611124   15.06544780247623
H         2.13350129464803   12.45649325867610   15.03958475942175
H         3.71056042576708   11.91941289488454   14.47322953134293
C         3.34161234331208   11.38852148157243   16.49140467994233
H         4.14691608492866   10.65106292908475   16.45277262962075
H         3.77172221470595   12.32605196059026   16.85028462105213
C         2.30942504411470   10.92216927797736   17.51986379552820
H         2.84084149697349   10.78390403264629   18.46558683908736
H         1.55847813965920   11.69929354294139   17.68655280772944
C         1.70752627593276    8.68357138844949   18.23481222777555
H         1.09935313885051    7.82008044698148   17.93949249487000
H         1.28009220512622    9.09515873717167   19.15978294557403
C         3.09714496976796    8.18076475299053   18.49163120142299
C         3.44573192652818    7.66376458438313   19.73475122228402
H         2.71817490223165    7.64505876435131   20.53090973342367
C         4.72393667006661    7.17201202570408   19.92818004291644
H         5.01489887431161    6.75625588745306   20.88011798700501
C         5.62456928466804    7.23719225371580   18.87436772765905
H         6.63650840064981    6.88275578213836   18.98127867352194
C         5.19636697319456    7.76979915416475   17.67380855461616
H         5.87285774919825    7.85509697202796   16.83708233310717
C         2.76352834137069   10.20239961747064   13.10632919681713
H         2.78939321585203   11.13504171440186   12.52666025260657
H         2.08232156439819    9.51540896936179   12.59017454164709
C         4.10897329003575    9.53456486679766   13.07344756816622
C         4.91900969618054    9.65574177921536   11.94953559111997
H         4.62588063876622   10.31028784845426   11.14369326698156
C         6.08577215226323    8.91628999000720   11.87379829768434
H         6.72805798712961    8.99123144121813   11.01027869314398
C         6.39897163565586    8.06540475386980   12.92347348133519
H         7.28138923010640    7.44779218915204   12.90042164826531
C         5.54842296722041    8.01930005390721   14.01121790940443
H         5.74919221991081    7.35473249127977   14.83746683783170
C         3.12774762565007    5.79815820490444   14.70328504569974
C         3.54332515383115    5.58510105641359   13.39715235220062
H         2.97299512237719    6.00556421625872   12.58171202123697
C         4.67822659955697    4.83644507437882   13.14885998314633
H         4.99403254843662    4.67372683830471   12.12846476455154
C         5.41499831363345    4.28459517094403   14.19070911484873
C         4.97381514393024    4.48877514811876   15.49338923016208
H         5.52083582955203    4.05174866510762   16.31686706945716
C         3.83728956712177    5.23175672701444   15.75248963931723
H         3.49119061056272    5.36659012879683   16.76823365668809
C         6.63418306449681    3.46117514001954   13.91316122837411
H         7.31922064842681    3.47763526012969   14.75758488287711
H         7.15256470060736    3.81748547707272   13.02580384449237
H         6.34662756269988    2.42482346075811   13.73579191979493

