46
CSD_code = ABAKOG | q = 0 | S = 0 | Stoichiometry = C15H23I2N3O2Pt | MND = 4
C         3.42092933227798    1.16778967927230    2.22789510819925
C         3.26329746350216   -0.78593388203037    3.27664958035665
H         3.53406310514171   -1.55582881782609    3.96904730795141
C         2.24598445408084   -0.71336894178059    2.38699027610677
H         1.46723600699964   -1.40723438597915    2.14943343958560
C         5.13774291316050    0.72571086724410    3.93401170631833
H         5.30014566440199    1.80624377763492    3.85458939429206
H         6.01788402206992    0.20613045714208    3.54833787521388
H         4.99089479960330    0.46299820799676    4.98121186812575
C         1.48571242232280    0.97311380022188    0.71808748786985
H         1.38019264244961    2.05879531758061    0.80764462655709
H         0.50276704494209    0.51053647764438    0.81466691596132
C         2.02928665806476    0.63524511871915   -0.69137331340299
H         3.12859642312370    0.47726767435802   -0.64075983696699
C         1.14337526064911   -2.34654903925913   -2.62133529746211
H         1.33073609591678   -3.06476021971881   -1.82791285647401
H         1.48437249733568   -2.76050731143048   -3.56582689826257
H         0.07467531561702   -2.16048567444051   -2.67636933768102
C         1.87714594347074   -1.04893706053986   -2.33502430785731
H         2.96134791870032   -1.22239550157045   -2.25700711287746
H         1.69757837637198   -0.31786172907403   -3.13191668334120
C         2.75900634131719    2.68249896903990   -1.62153055536207
H         3.67701895541981    2.27820812138109   -2.07291919309913
H         3.00326115559705    3.00224409716567   -0.58545017451755
C         2.23899463161326    3.85979542832006   -2.42664201644912
H         1.96077579858430    3.52519501712466   -3.42205877574142
H         3.01013517994638    4.62129966878639   -2.51060465208189
H         1.35881582834273    4.28228177543169   -1.94857115021411
C         4.25611821757428    5.64919319375983    0.49200787252451
H         3.30258625663306    5.34247922912234    0.07796792403954
C         4.76381011450290    6.90788319536790    0.23023356221150
H         4.21407283112454    7.58533448837642   -0.40341549478745
C         5.97254391367411    7.27650336607527    0.79972979264230
H         6.39394172887847    8.25330566936177    0.61911966827603
C         6.62483388516918    6.36077270645504    1.61060208070899
H         7.56492420064758    6.59971688388081    2.08164540283985
C         6.05275510042901    5.11876192934925    1.80947532130671
H         6.54626337845802    4.37682922282004    2.42913215173316
N         3.97078636529293    0.38089586960964    3.16790280354174
N         2.35128782603665    0.49816571092967    1.75897317559378
N         4.89141100322769    4.76684589436362    1.26029759815837
O         1.39939208563640   -0.52806727588270   -1.09996197919818
O         1.76111939410659    1.67963010687365   -1.59055639156398
I         6.05377500926698    1.78143768327655    0.33513656069693
I         2.30161608760241    4.10811424967186    3.20172724522116
Pt        4.13309035073258    2.95950598520966    1.70581928130890

