86
CSD_code = ABAKEU | q = 0 | S = 0 | Stoichiometry = C33H48N4W | MND = 4
W        -0.00003828015450    8.64466083406939    7.15844166161015
N         0.09320663733846    6.64388928339883    7.44405823880493
N        -0.00014641148084    8.64465922499873    5.41122225096079
C         0.35128835588303    6.20961500424099    8.73204393392775
C         1.32436219443809    6.89460440676377    9.47622511356016
H         1.90006487428434    7.67737945623397    8.98622374645181
C         1.61931972234569    6.55109346687632   10.78534789043039
C         0.95380001017728    5.48185028667096   11.36843868369092
H         1.18373559717340    5.19551823104198   12.38470631982629
C         0.00169684333006    4.76416344555425   10.65403126653932
C        -0.30107412925496    5.13239061378789    9.35575329238546
H        -1.07079849697533    4.58345921204561    8.83261195961292
C        -0.45859191987658    5.66354061743536    6.50383416504826
H        -0.34284576335118    4.65269356667030    6.92026740019232
C         0.31302525807061    5.71352495790469    5.18471879922070
H         1.34875914774312    5.41917226217713    5.34250752663262
H         0.28045935368870    6.73882015334039    4.80614289755795
H        -0.13718516833394    5.04391505017144    4.45748665219041
C        -1.94671529971130    5.96403894409594    6.27181139869360
H        -2.52312035026619    5.80890879134460    7.18485326783655
H        -2.35386121155900    5.32172181816022    5.49436772268361
H        -2.03553262505384    7.01251451033873    5.96205732139984
C         2.64808005897595    7.32400973443832   11.55357256841350
H         2.92799433956128    6.79882422517901   12.46365780631767
H         2.25427753440445    8.30363175206828   11.82591001188244
H         3.54016543250013    7.48494636889788   10.95141545531587
C        -0.69112661458723    3.59895610475624   11.29620038187693
H        -1.03702585326182    3.86013568921927   12.29493177236085
H         0.00009098747558    2.76135738927798   11.39143627557517
H        -1.54286072709299    3.27243174039060   10.70415898239302
N         1.68616470345568    9.72557032296594    7.44395533479604
C         1.93318039944304   10.16654126307011    8.73184451373376
C         0.85351879513726   10.66745798465788    9.47567832486668
H        -0.11210996336943   10.77486438381773    8.98547386965143
C         1.00351597921797   11.09504955846152   10.78467652214476
C         2.26215395072549   11.05294928983203   11.36797694860281
H         2.39513891798612   11.39548073593740   12.38417024348710
C         3.35964004766162   10.58648494560094   10.65392127394963
C         3.19215755709706   10.13982545509547    9.35575831508605
H         4.05230875764873    9.74716551031431    8.83283444931476
C         4.71496891594236   10.56859421466245   11.29636823140603
H         4.66141415505987   10.13869898358181   12.29514483302773
H         5.09524836028933   11.58577651240653   11.39150940345124
H         5.42350350749292    9.99382552943429   10.70467423272851
C        -0.18012082916794   11.60033289842619   11.55253599908317
H         0.13481031265698   12.10529286086488   12.46262266569345
H        -0.83215669052860   10.76990784160341   11.82483081364535
H        -0.76496262313195   12.29269631440550   10.95012183597012
C         2.81105862888966    9.73771952443902    6.50371860195062
H         3.62876351450782   10.34312270277560    6.92021530131686
C         2.38205468721896   10.38122208788166    5.18469252352214
H         2.11958134125311   11.42547986705934    5.34254875982370
H         1.51011851922139    9.84075037252190    4.80623801447057
H         3.18691228215501   10.32579476917397    4.45732590722185
C         3.29450901785229    8.29863429417276    6.27150680851109
H         3.71623635670219    7.87652999105732    7.18470908450265
H         4.05489741043693    8.26720843914715    5.49459896207093
H         2.43091624427187    7.69792598434853    5.96093050480593
N        -1.77911741611767    9.56460836468567    7.44411117903578
C        -2.28441205235473    9.55792793022317    8.73202985850946
C        -2.17837213896044    8.37235773009901    9.47569937203007
H        -1.78881725116655    7.48239383133422    8.98529963449457
C        -2.62341943194882    8.28838656034370   10.78478488038117
C        -3.21592060815222    9.39950080701557   11.36834316047488
H        -3.57899399898951    9.34330524852323   12.38454302766553
C        -3.36082816850426   10.58326420696262   10.65440240557312
C        -2.89061326070079   10.66156938415784    9.35611699799447
H        -2.98055079562896   11.60288808776785    8.83332752692952
C        -4.02290873909078   11.76602111445513   11.29716077471934
H        -3.62216463458851   11.93508251740002   12.29536657164123
H        -5.09381960850057   11.58582520617430   11.39391407297929
H        -3.88063353404775   12.66677628828753   10.70449444014372
C        -2.46939696048101    7.01050726958973   11.55238900359233
H        -3.06378395794901    7.03089318881855   12.46272972408410
H        -1.42415540880329    6.86055992256049   11.82420357317423
H        -2.77721343192199    6.15804599809869   10.94998356376468
C        -2.35217812563386   10.53273979793800    6.50395446388688
H        -3.28517625956728   10.93832325827923    6.92064942802078
C        -2.69534258392270    9.83934069099015    5.18508841683400
H        -3.46845458584708    9.08995289724622    5.34323101391531
H        -1.79142554419980    9.35437175361598    4.80647478052373
H        -3.04991571648948   10.56401932079916    4.45773266497511
C        -1.34757047904073   11.67085241416853    6.27138011109563
H        -1.19276223153319   12.24736107049580    7.18441641742485
H        -1.70058124529163   12.34490497248075    5.49433256891275
H        -0.39559758295940   11.22319038823842    5.96082332501378

