24
CSD_code = ABANUN | q = 0 | S = 0 | Stoichiometry = C8H11AuI3P | MND = 4
Au       11.89522683250565    6.88392775786245    2.95612529386302
I        12.58188073413660    4.92801123473824    4.55557383893209
I        12.83632700151723    5.63433213188483    0.84978085215487
I        10.84317428830707    8.23442318334284    4.93067633044578
P        11.39767987186276    8.58719620090322    1.45546463360581
C        10.19030259699176    8.08617971984530    0.19915632052780
H        10.02078466211470    8.92720680468810   -0.47744168923626
H         9.25583809095926    7.84258749366014    0.71235803661052
H        10.53318616165383    7.21386150234908   -0.35706060024087
C        10.67511455954975   10.14169604867215    2.06202725864367
H        10.58128370868961   10.81548658589397    1.20656357611066
H        11.31823760178475   10.59516080775552    2.81668252880055
H         9.69421527098404    9.94999822956325    2.49998878503395
C        12.90795581762340    9.14121999599883    0.64456892732837
C        13.13360502819341    9.00820163947185   -0.71998064992715
H        12.38293495505277    8.57144072256905   -1.36180723796095
C        14.34279351620017    9.42430066135873   -1.24713407598423
H        14.52441299475940    9.32097175522306   -2.30593700246189
C        15.32127900912863    9.95526241613204   -0.42228878754117
H        16.26599161140122   10.26680674154026   -0.84075349895431
C        15.09934771800274   10.07559512035748    0.94088743300398
H        15.86629789678980   10.47794532949527    1.58516790077253
C        13.89477120110324    9.66534515548683    1.47769467460505
H        13.71735887068795    9.73984276120922    2.54518715186912

