36
CSD_code = ABAPEZ | q = 0 | S = 0 | Stoichiometry = C18H15AuIP | MND = 2
Au       11.12200981190441    4.45880499735045   11.49275670223605
I        13.38279993155265    5.18132022762402   10.54789069052261
P         9.13132905105363    3.79532126897093   12.32455756835664
C         8.16131670625074    2.74041659170426   11.21119826732686
C         6.79053814002193    2.87356623523529   11.01911018117625
H         6.24126379703819    3.64373225688557   11.54362237131296
C         6.13658776046726    2.01790100286039   10.15050645746893
H         5.07198578943768    2.12122357597004    9.99993969495485
C         6.84053829973812    1.03355159856258    9.47600285828697
H         6.32360231770638    0.37116051100844    8.79809985810831
C         8.20741756162710    0.90081140877871    9.66457324758788
H         8.75735723661769    0.13721227612890    9.13523475767837
C         8.86788837445817    1.75479448285429   10.52655934772074
H         9.93776435336308    1.66898525884757   10.67493502009208
C         9.21469180870483    2.81080407866630   13.84616044370623
C        10.33268259169982    2.96534531296973   14.65954098114161
H        11.11756041954412    3.64986733539421   14.36151484455084
C        10.43679621998563    2.24591905500011   15.83598710472936
H        11.30489604705932    2.36740799186622   16.46635322113677
C         9.42953198837387    1.36630180805697   16.19787685951673
H         9.51221123454662    0.80033087361888   17.11359515192835
C         8.31745710477728    1.20597826896394   15.38541425694874
H         7.53545264333426    0.51704112544884   15.66893445687632
C         8.20497635791510    1.92434467548080   14.20977634855578
H         7.34033466488904    1.80058504774323   13.57183221450918
C         8.00129383979366    5.15215424900291   12.73220681234217
C         7.71634119992581    6.04626993014577   11.70077221938961
H         8.13585574747874    5.87187895045111   10.71691752333360
C         6.90457651680843    7.13789357211675   11.93625208775634
H         6.67992171943424    7.82616159172235   11.13516463045580
C         6.38709102102373    7.35162186604578   13.20530719027107
H         5.75640759588763    8.20778384497192   13.39169773875273
C         6.68412150820138    6.47496385984912   14.23535651219847
H         6.28621462204654    6.64778812999000   15.22442336240752
C         7.49344795513343    5.37549747770634   14.00625208814929
H         7.72933806229772    4.69385926204644   14.81187692850429

