59
CSD_code = ABAQUQ | q = 1 | S = 0 | Stoichiometry = C30H24AuI2P2(1+) | MND = 4
Au       -0.37921468062622    2.73563398731021    3.87651493728436
I        -1.12254893087195    0.48546118322278    2.76421968521127
I        -1.51693344356221    2.48557323004591    6.21604905020089
P         0.59986433647897    4.67200038953522    4.62794913256686
P         0.58804763151089    3.14929259995744    1.84344683757466
C         2.06002542226550    2.18215102208743    1.51998248439026
C         1.02945658761662    5.57905178646278    3.12611953317844
C        -0.53744294596076    3.12112488432418    0.44366732840315
C         2.15722309263714    4.35069754270584    5.47519970636747
C        -0.40871874785218    5.78804178616915    5.60312936449128
C         1.11249108536893    4.88530522901068    1.92008342042077
C        -2.76219425520892    3.49688590402894   -0.37042162664597
H        -3.79469077616646    3.75390324229471   -0.19078091440925
C         1.98192676472797    0.95745048939934    0.85438839906220
H         1.03681485053334    0.59920717978085    0.47094111568485
C         3.27080366005336    2.62544200632369    2.05708929248174
H         3.31730797888535    3.56690869533174    2.59077162333730
C        -0.09756813073131    2.81810224625576   -0.84280246630686
H         0.93575384208116    2.55463374147069   -1.02335142843483
C         3.12879067317492    0.20121485881888    0.70188708240860
H         3.07564052449024   -0.74444290560939    0.18515249001386
C        -2.33182118236587    3.17972102156796   -1.65080549180049
H        -3.03516768889699    3.18745444548596   -2.46867361045713
C        -1.00652862850751    2.84772402068932   -1.88516882303299
H        -0.67742171060679    2.60257948725443   -2.88354978870626
C         4.40648364888212    1.85606459163805    1.89712840485981
H         5.34563912313381    2.19725357175927    2.30536845960403
C         4.33621825981698    0.64763513031596    1.21898641490950
H         5.22556419245319    0.04857585742444    1.09950591650899
C        -1.86645348922923    3.47059654692665    0.67971485386032
H        -2.19479622042948    3.70200543654817    1.68835121992382
C         1.85046794396674    6.88652109287827    0.82565201204031
H         2.17031816911269    7.39847372767566   -0.06862452633506
C         1.34359656703801    6.93509668536638    3.17725606582358
H         1.26490507739421    7.46714482620139    4.11638358325883
C         1.74880839698644    7.58251523762053    2.02351626300656
H         1.98712542507332    8.63426789487591    2.05762314469645
C         4.53465148364669    3.79578015751070    6.78201561100155
H         5.46215723796374    3.57939409834191    7.28874863947081
C         1.52850986282545    5.54217592845087    0.76587281139635
H         1.58819013926824    4.99946883720222   -0.16786993459524
C        -0.11563084185067    6.08371153498505    6.93123694076056
H         0.76856029661552    5.67656037155758    7.40128274395220
C        -1.55872159659063    6.28883818253140    4.98923532841278
H        -1.77541457641950    6.03313673116990    3.95727410134180
C        -0.97596544215713    6.90541838136708    7.63680586157072
H        -0.75963765180904    7.14247138117918    8.66686012664688
C         3.34940509699699    4.91235209401886    5.01607403631195
H         3.35371034869046    5.57426948195146    4.16030800443035
C         2.15998723017834    3.50706676114663    6.58775632636990
H         1.24005224843205    3.06902913893060    6.94916237332536
C        -2.40739827360507    7.10528007024578    5.70826586809607
H        -3.29966654844251    7.49652333328758    5.24437669007697
C        -2.11584644217540    7.41034270265396    7.03094308075213
H        -2.78712367103173    8.04038081121931    7.59329398200703
C         3.34997962153343    3.23811774277373    7.23780264154459
H         3.34892518958352    2.58901773271907    8.09959912325256
C         4.53114479368767    4.63253234340829    5.67664281259707
H         5.45225907196227    5.07206351019956    5.32511368582544

