46
CSD_code = ABASEE | q = 0 | S = 0 | Stoichiometry = C13H19CoN12O | MND = 6
Co        2.03272157396727   10.31055623023631    3.04336028488602
O        -2.30235305897438   10.06973803376766    5.34040645357660
N         3.64031328396559   10.59777988554288    2.12613507552208
N         2.21747994046031    8.59019377526673    2.46853617987414
N         0.26277692167121    9.60708861632538    4.03007228689474
N         1.77477993246782   12.00347418660314    3.71593163879710
N         2.43828731950979   12.81850670290120    4.23391597113016
N         2.96839501731961   13.69161812862676    4.72686008557740
N         2.99925434063820    9.84259110765272    4.61615645267510
N         4.02464694260348    9.28189235679371    4.67828147625818
N         5.00052447871700    8.71815258110434    4.82538900970628
N         1.04104287085154   10.77490118774549    1.51078499817569
N         1.32443308055617   11.47178643868129    0.61300861035599
N         1.49468370382832   12.09117730598067   -0.32254820501250
C         4.30092144738137   11.73395438103154    1.91593426303950
H         3.84967488302376   12.64615832617545    2.27765534275186
C         5.52116588737043   11.77967727601100    1.26857388584803
H         6.01425116540280   12.72781858116788    1.13348876082612
C         6.09115127086301   10.59707761966637    0.81318169333352
H         7.04966347471946   10.60115009958311    0.31843279463685
C         5.40215047692792    9.41716800540390    1.00041023970531
H         5.80625766532557    8.48036581476117    0.65413498481463
C         4.16836963020392    9.43965723860488    1.65124702556881
C         3.32552837864151    8.28415682249646    1.87461298644035
C         3.76760993686533    6.92746073419578    1.43158943787506
H         3.00016753284268    6.17588511159735    1.58625031083818
H         4.65968281688288    6.63917790731418    1.98764466600196
H         4.01606033380014    6.94844149724639    0.37176031220604
C         1.16655435428409    7.66742663422519    2.79725348619869
H         1.52708520654281    6.64282495375885    2.93947085431024
H         0.44198414340445    7.67476015011803    1.97397152231423
C         0.50899534030589    8.15611782152720    4.09029866874352
H        -0.40755663082416    7.58531614481940    4.26974300275740
H         1.20054670009952    7.97303054860838    4.91646322863141
C        -0.97334561540597    9.93329962218638    3.29702089765991
H        -0.95524210251632    9.46541894545900    2.31374617173058
H        -0.98216797796349   11.01524675878093    3.15621078305070
C        -2.24670294236665    9.52030939167274    4.04670180327516
H        -3.11870015457814    9.90622886012147    3.51569785860543
H        -2.33633797681551    8.42302398706780    4.10312696243827
C        -1.15740847718610    9.72140528918977    6.08411518037182
H        -1.13985173632154    8.63529924254103    6.26611304347762
H        -1.25297936334817   10.23320768515729    7.04297371887846
C         0.12081311485407   10.18170275043309    5.38017566251599
H         0.08303572158710   11.26684987969829    5.26526477572421
H         0.99923714841568    9.93062538215164    5.97454535701326

