97
CSD_code = ABASUR | q = 0 | S = 0 | Stoichiometry = C28H49BF12N4P2Ru | MND = 7
Ru       -2.21044871779901    0.38808974550449   12.55047926238614
P        -0.62677543121020    0.77690715229292   10.78701261140567
P        -3.69108728077609   -0.36959269364630   14.29229170921754
B        -2.93362698458296    3.00318111631343   13.05848734124944
N        -3.79998795173940    1.31077182284605   11.52793698202064
N        -3.93042089323054    2.54315990233348   11.98774072650388
N        -2.19624834752986    4.22786470408418   12.51806104451575
N        -2.09313670280283    4.42766572645354   11.21997761553424
C        -4.78947220813593    1.11332380399507   10.64476008966137
C        -5.57110660033268    2.27003023507557   10.53821919464113
C        -4.98638502480671    3.15866591573043   11.41761669475165
C        -1.61713501483927    5.24543276082215   13.19438416546646
C        -1.12020833832999    6.15209575295226   12.27541887341956
C        -1.45881884291528    5.58082238418302   11.04467521057795
C        -1.44783242884201    0.82059421066938    9.09392138208153
C         0.60613216397627   -0.61161897615955   10.57226506508876
C         0.41489648835145    2.33553104235414   10.83124878133651
C        -5.09566767963812   -0.11992819852164    9.86216041364703
C        -3.72955704653819    0.58661771512493   15.91087419561534
C        -5.51030813238567   -0.44209865915829   13.78012834423335
C        -3.38204864184758   -2.14377760024424   14.79264376809189
C        -5.47996672125665    4.50559401937750   11.81711466730768
C        -1.53235755537914    5.28633335113862   14.67715173328356
C        -1.16230645495967    6.08471051270776    9.67791991722936
C        -2.02663013140680    2.20484335165779    8.79923810075404
C        -0.65601127291639    0.33423798971035    7.88051136057011
C         1.58486261692723   -0.70502410271979   11.73969111221178
C        -0.11342205606592   -1.94997211015495   10.40860575326559
C         0.94430186864959    2.64805765436440   12.23134202434569
C         1.55055700228488    2.41270375349871    9.81555087653824
C        -2.33374215843840    1.01202780699292   16.36353034151351
C        -4.46863669961682   -0.09121816533962   17.06186453328650
C        -6.19861567195202    0.91046127729771   13.97442905528634
C        -6.39152650871529   -1.54143939772224   14.37387305379375
C        -3.42291359037136   -3.05311630555619   13.56447493595792
C        -2.04566339829357   -2.32550417553397   15.50755758377687
F        -4.60392939236329    5.50128830740100   11.63112268121648
F        -5.81048306887031    4.53988013891826   13.12290226272167
F        -6.58414237983128    4.83127104813601   11.13651035136617
F        -0.74382461181025    6.28300399714905   15.09690456127650
F        -1.01887711813123    4.15150721252646   15.19111082676866
F        -2.72039809663031    5.45997862993504   15.27822768214388
F        -2.19590016911883    5.96322346919593    8.83623040977915
F        -0.80560379121971    7.37525287959440    9.68214161837999
F        -0.13744176981749    5.41564629079660    9.10286200711992
F        -4.62480795093559   -0.05971444816217    8.60168016862289
F        -4.63867868126119   -1.26290248378145   10.38022884347122
F        -6.42841351260107   -0.27258277923951    9.74596255719987
H        -1.47871341970633   -0.90774590264945   12.76357318467648
H        -1.05618751467476    0.42472273168231   13.56571760866125
H        -2.70351947009420   -0.76484746336940   11.70553232608776
H        -2.13899257624633    2.03942796853013   13.13754095711444
H        -3.47687181484870    3.25683270583414   14.07934526470375
H        -6.43101801016524    2.42252567200451    9.92028219664594
H        -0.60663742563790    7.07110157009984   12.46202332452753
H        -2.28173622377366    0.11978641159361    9.23102719520567
H         1.16143000180812   -0.38509133714222    9.65549557543623
H        -0.31688921537696    3.10997152296600   10.57509596642213
H        -4.27193611513832    1.50391794000731   15.64930076610230
H        -5.44256606835848   -0.63976617206934   12.70238742021222
H        -4.19326181390192   -2.41939925235416   15.47481801886172
H        -2.45113264327229    2.67499516911299    9.68447697360217
H        -2.80965342266040    2.12480023162234    8.04669094861423
H        -1.25789667298246    2.86904591256337    8.41076253965038
H        -0.34036850034171   -0.69961906358675    7.97929830584074
H         0.21705938269140    0.94976563392814    7.68563692574973
H        -1.30626460745030    0.39869661864522    7.00883421620688
H         2.30460113731656    0.10803805322595   11.73020999824960
H         2.13852585626557   -1.64056491088472   11.67686206938848
H         1.04686975136111   -0.68741428169339   12.68679613428004
H        -0.97571427953980   -1.87597179163463    9.75095908319594
H        -0.46430586890211   -2.30188765457469   11.37662019440283
H         0.57128917862513   -2.69276863909560   10.00220341626297
H         0.19533421428159    2.45905224166724   12.99806368476194
H         1.23048893901188    3.69793892230341   12.28809516139456
H         1.82091289010888    2.05176330229532   12.46748347421959
H         1.18460461600855    2.33186412610017    8.79736242592863
H         2.29902967994831    1.64321936668484    9.98599269806918
H         2.03673584695516    3.38272267442659    9.90932451006932
H        -1.77506757594647    1.46752977458739   15.54951209834591
H        -1.76055196933409    0.17175671579240   16.74294872916529
H        -2.42019816902597    1.74976617462470   17.15930783545051
H        -5.50601789822429   -0.29507029782712   16.81478890981644
H        -4.45950279131157    0.57368702361981   17.92467544637785
H        -3.98880649595298   -1.02107006889522   17.35455525520304
H        -5.54736496382280    1.74473760339094   13.72339942479167
H        -6.51876022573765    1.03557435503983   15.00636452231222
H        -7.08390907658746    0.97163937024833   13.34230101012068
H        -6.03580106427910   -2.53463847917716   14.12008842318098
H        -7.39323376635188   -1.43408714125600   13.95852740646299
H        -6.47369058120959   -1.46475582835424   15.45400683391940
H        -4.23724082862612   -2.80122436568847   12.89013768975308
H        -3.53477217801185   -4.09101615365299   13.87395029022904
H        -2.49534291559058   -2.96035578279700   13.00436317231687
H        -2.06886519357205   -1.93044577881965   16.51898111898140
H        -1.24960258756821   -1.82913108319496   14.95356644228127
H        -1.80957266027367   -3.38659392892991   15.57057033638164

