57
CSD_code = ABATUS | q = 0 | S = 0 | Stoichiometry = C21H15BF12N4O3Ru | MND = 6
Ru       11.23300009821204    5.97699541942370    3.24924496069414
B        14.06015197254370    6.03113766038329    3.35316793951632
O        10.28597638425734    3.56199965095849    1.75838255199915
O        10.11692039707433    4.86545015550157    5.79264437756658
O        10.25944805301833    8.25695931520393    2.43449205119493
N        12.43771026914623    6.61557168968766    1.59836212373970
N        13.71471399078779    6.58197288081892    1.93780150496620
N        12.31576346440910    7.44321663606357    4.36981054692493
N        13.60437405861447    7.15743364966054    4.32220620656433
C        10.57833345107439    4.51771238021890    2.30922325045010
C        10.48857815717684    5.30533987725911    4.80672178404184
C         9.72868554743066    7.27418917847241    2.85739820784730
C         8.27249073061888    7.08020332102175    3.16284321678843
C         7.51655124149287    8.42397212357148    2.99965571354203
C         6.39797997570248    8.59631891326773    4.05175290273416
C         5.77781090830826    7.29359722294117    4.15781553566628
C         5.63101781836860    6.10570236739250    4.07102563444591
C         5.82885625064389    4.72928363640727    3.67612197174766
C         7.27803039500136    4.65871974707336    3.13474034748531
C         7.69149020683329    5.90223200611142    2.32550729894554
C        12.35196412488944    7.09413174273361    0.35648989051941
C        13.62624584945423    7.38487219084499   -0.12716075085608
C        14.46633374223598    7.03997976299636    0.92087952379605
C        11.05976215464360    7.22129434433283   -0.37781144792574
C        15.95292795667493    7.19642998465901    0.93702288104769
C        13.38267406501603    8.81550010074910    5.77467289567668
C        14.28375105050832    7.96173346905995    5.15606293745889
C        12.15083945740052    8.44460523922097    5.23787739323947
C        10.80833479242551    8.98967061265026    5.58925900276922
C        15.74744537231487    7.84073505093302    5.43187908402416
F        10.11455320449409    6.42198588775421    0.14979411884825
F        11.19394208068365    6.85919615996669   -1.66170125352799
F        10.56518350291585    8.46148388344874   -0.38526459754175
F        16.33086439052471    8.25368010558836    1.67092695282577
F        16.41096019227756    7.41155440564332   -0.30333323449079
F        16.60386208393810    6.13028524081045    1.40785110038051
F        10.81171790579415    9.55969809767967    6.79847783118589
F         9.87840277660482    8.01400710871093    5.62097917176058
F        10.35865823447485    9.91379755997223    4.73301275105561
F        16.14723265820539    8.79144522530043    6.28371782427111
F        16.04646288497936    6.66122397259816    5.99993964870398
F        16.50969663937119    7.94746664904752    4.34164434720215
H        13.32077646161871    5.07533722288801    3.54691644772487
H        15.20609476390137    5.80717136557273    3.46694984290676
H         8.22078915814311    6.79385803636880    4.21834056174927
H         7.08857555818413    8.47126074767912    1.99790425477163
H         8.22457229725737    9.24885767608171    3.09440040103803
H         6.82297074073496    8.88608571505068    5.01584101071941
H         5.69593301591211    9.36896041081259    3.73585448814858
H         5.11785538741733    4.46465435806794    2.88939560829593
H         5.69690818781519    4.03560772682701    4.50745686028987
H         7.97423339378908    4.52806362438209    3.96565169341841
H         7.36287187869475    3.77885151477929    2.49497709589977
H         6.82413061083176    6.26410292925222    1.77497303708882
H         8.43611857549775    5.59848050361007    1.59011567215972
H        13.89593009106268    7.77157229940151   -1.08766822797509
H        13.58444138859426    9.57455124309298    6.50125705647346

