64
CSD_code = ABATED | q = 0 | S = 0 | Stoichiometry = C28H33CoN2 | MND = 8
Co       22.99669708440858   51.13955493289392    8.98692778864531
C        25.59569946067339   52.02681695824281    7.22091418033756
H        26.44672231319940   52.31783826051901    6.62686408393277
C        25.02384335677426   54.44325090787996    7.21043958592337
H        24.21973783513463   54.84999593446123    6.59993611104123
H        25.94887898508566   54.48563785823981    6.64299261639345
H        25.12014977575329   55.08025211009972    8.08816614635413
C        22.83385156411072   53.87438703692346    8.72756958675418
C        21.78400686041332   54.30917336087084    7.90689980411844
C        25.69735641927852   49.39441664382946   10.69319910922658
H        25.76610226190830   49.00067272776547   11.70471609557657
H        25.12415654731340   50.32281004402078   10.69919229854943
H        26.70368133134074   49.63719031547127   10.35100954924468
C        26.54212842267137   49.73570917964268    7.07800379731055
H        26.99994706303342   49.22361792321040    7.92267983205382
H        27.31327587608337   50.27208547534834    6.53293502464886
H        26.11863930850118   48.97381357210629    6.42614904462643
C        24.71331153364790   53.02484585905690    7.61925085565903
C        21.00143511003785   55.37738433543485    8.31886497624813
H        20.18981684634814   55.71213061461256    7.68746927543333
C        24.42125527040922   46.13837912037733    9.24307088552710
H        24.40720549736793   45.08915297983555    9.49935351269210
C        22.28407177370717   55.58425971397640   10.32874817118168
H        22.47639079757976   56.08059762427175   11.26997182058476
C        20.67675167539154   51.64916390572341    9.38353630445133
H        20.07771830734946   52.46200010155650    8.99587146837336
C        20.65176216963042   50.40669859734355    8.74270476137106
C        19.76804132716493   50.16574615560665    7.55600843589180
H        20.20431834809261   49.42820409393296    6.88657434065447
H        19.59479119241133   51.08642811435676    7.00430780059644
H        18.80180085816685   49.78542559123355    7.89260674191360
C        23.84233035113182   47.91719168097356    7.72407776405519
C        21.51229919182980   53.62013240623094    6.60249433236617
H        20.45758120119803   53.68805358125019    6.34243753240237
H        21.81094341843274   52.57343756858724    6.66122679773623
H        22.08493451479731   54.08213631315270    5.79745504595755
C        25.02430535466687   47.05167259417501   10.08959723392888
H        25.48192761520964   46.71351403737677   11.00907075680240
N        23.63622466243217   52.78415370655966    8.33952923633359
C        21.24839382387787   56.01723220003101    9.51995221254581
H        20.63285341450049   56.84997886890886    9.82723961166248
C        24.45445121567430   48.83985294047090    8.58346821650531
C        21.40601461726218   49.36871113075415    9.29992921743634
H        21.37938605258567   48.38708166106588    8.84657344566659
C        25.05148381025229   48.40126937150204    9.77506505755434
N        24.46459190120653   50.21166327368262    8.26561502293116
C        23.20316582713615   48.38289921773656    6.44943506600797
H        23.92485033737840   48.37228854413068    5.63175300251448
H        22.84555359435576   49.40656950594644    6.56086410336602
H        22.37623197614233   47.73176137059892    6.17206825611751
C        22.11403533742961   49.54776787149115   10.48925880303561
H        22.62146219225311   48.70323752053953   10.93427074136854
C        22.09472777273721   50.78010013777795   11.14336393892888
H        22.57628546363388   50.89873072689554   12.10414787460626
C        25.46832259338396   50.68263211392535    7.55317557681214
C        21.38364100044782   51.83560238948665   10.57267557519854
H        21.31905001195684   52.78711132164400   11.08177871091987
C        23.08487709429793   54.51882964738641    9.94827681408739
C        23.83218889569828   46.57425646004438    8.07008990933210
H        23.35756890931820   45.86202409428996    7.40914543824654
C        24.20338097781567   54.04306533699447   10.82529958404113
H        24.28343997344233   52.95633412411950   10.76944177902645
H        24.04270885354404   54.34527246703443   11.85784180346026
H        25.15594287096859   54.45609576634071   10.49214753377319

