54
CSD_code = ABAVAA | q = 0 | S = 0 | Stoichiometry = C20H30Cl2HgSi | MND = 2
Hg        4.07890912412878    5.19950190709169    1.99343051854367
Si        3.15416773316418    2.95433781800239    3.05391267768701
Cl        4.67030041681487    1.84541600108319    3.88638002922997
Cl        3.94536680342338    7.60169385020612    1.25589362307014
C         2.37569538475997    1.75715718932909    1.72171078475760
C         1.30719870759580    2.43965343663467    0.90660690446984
C         0.12678998996934    1.82115028211388    1.11004990759554
C         0.31552018415642    0.71805564953325    2.04274154305084
C         1.61446132473941    0.64469815781838    2.39823989363516
C         3.49944260977122    1.22679572599401    0.82942907045771
C         1.58224426480910    3.60379581734507    0.01841691095789
C        -1.20353024579221    2.13708981702726    0.51538433393139
C        -0.81138039612021   -0.15491350882833    2.48111729793617
C         2.25437113311663   -0.37955746932284    3.27275150033283
C         2.11770389158898    3.70198312495049    4.53447657255648
C         3.09964120672920    4.61030315237324    5.22111380475216
C         2.83412532741507    5.89268478712714    4.87089653864268
C         1.61955754177378    5.93174629562861    4.06921279464695
C         1.15217730437197    4.67104151341546    3.91050987719267
C         1.47993248304201    2.63906824660863    5.41672356069641
C         4.17540137421800    4.14897069411975    6.14906434656398
C         3.55670599999975    7.12530782880466    5.30518491197966
C         0.98781588400938    7.20529112676695    3.61753375843837
C        -0.15557811684311    4.26353759450510    3.32134242487787
H         3.07258689140224    0.59020686627170    0.05671987524060
H         4.21507325776908    0.64405939648536    1.40186327179326
H         4.04004621866473    2.04251914544505    0.35064924032129
H         0.83069977103516    3.67461785881753   -0.76405587083705
H         2.55601674100955    3.51295197916525   -0.46299832472828
H         1.56245939432742    4.54707098108431    0.57935169927758
H        -1.14590640386855    2.99019565128181   -0.15395217647360
H        -1.92607020194264    2.36401549873483    1.29879638315011
H        -1.57831241085270    1.27980465598384   -0.04335276954043
H        -0.47803829275090   -0.90095370736180    3.19665057774885
H        -1.25159849480493   -0.66402721324720    1.62419079029875
H        -1.59393214799448    0.44408286354846    2.94707498751243
H         1.71134837991538   -1.32019491748021    3.21136702451170
H         2.26399567822743   -0.06512554213711    4.31653670279197
H         3.28250186563998   -0.56126562015403    2.97267608791275
H         0.94597287693757    3.12250002551334    6.23300657608713
H         2.23281273843450    1.98005730326999    5.84222362197120
H         0.77570511398206    2.03475569614374    4.85095465113703
H         5.16629851279352    4.31541933049403    5.72469072916558
H         4.07756648675574    3.09206631098751    6.37464363770879
H         4.11867435014211    4.70378293758421    7.08515448248654
H         4.48226010746846    6.87538955196374    5.81668386967838
H         2.93092800863929    7.70916390875869    5.98044359663999
H         3.78603112866184    7.75073271595769    4.44327672305380
H         0.06954534087388    7.01125067327634    3.07114257250347
H         1.67026154119974    7.75635235118925    2.97235070118342
H         0.75833312903041    7.83555137009635    4.47571999057486
H        -0.96833826585227    4.56253568559097    3.98545499801333
H        -0.20100375163064    3.18883308369206    3.18544199280220
H        -0.32305749438873    4.73964212132028    2.35747077240196

