84
CSD_code = ABAXUY | q = 1 | S = 0 | Stoichiometry = C26H52N3OsP2(1+) | MND = 6
Os        7.27058522712425    2.70847244926584   14.88255729234280
H         5.99368530562074    3.60560627477647   15.09947428394673
P         7.26452504224244    2.78595367628928   17.31403606849188
P         6.62176044849264    3.00027400015268   12.57377723408979
N         8.61019954500434    4.21282448483869   14.69485335756031
H         8.48557990290758    5.21988000291649   14.59340134672457
N         8.96861908742519    1.71013484022780   14.76367214291972
H         9.14082734980886    0.70395143922863   14.78969011751732
N         6.31546996869787    1.04823860037399   14.93811624963585
C         9.88370462210569    3.84399252091837   14.69219923570871
C        11.00774029654906    4.69750670404832   14.61912093411120
H        10.85175545108944    5.76513941716948   14.55804085706493
C        12.26617178018041    4.16474307690957   14.63997902378898
H        13.12609947449933    4.81462728873855   14.59295795420414
C        12.46918512425717    2.77222095936176   14.72333571976927
H        13.47755621819024    2.38946964404313   14.73849750534595
C        11.40999750734150    1.91050978773503   14.78003432281484
H        11.55912601203317    0.84079751905820   14.83605194760770
C        10.09233664801514    2.41834919323343   14.75847755250294
C         5.94861018239077   -0.04931340594494   14.92205341583511
C         5.43442358514625   -1.38747503547207   14.91141290327696
H         4.39414104818354   -1.38144920135844   14.58475425111833
H         5.48543663430309   -1.81611192890840   15.91258560835101
H         6.01606553217811   -2.00959834504744   14.23051989530230
C         7.10538698658485    4.44961846261267   18.14421279241105
H         7.28232683636790    4.26439301659692   19.20935011249628
C         8.16667402575870    5.41400080367000   17.61709597163189
H         7.86133878203194    5.79048207936446   16.64471793108682
H         9.14263511892792    4.94298116342902   17.51541923847237
H         8.26509324506764    6.26219021692268   18.29240290404047
C         5.72371351338176    5.07092774424174   17.96504850330878
H         5.75931082831045    6.12062076801543   18.25017124373325
H         4.97819825724376    4.58587174943488   18.58713808653344
H         5.41002165958149    5.00772590099066   16.92510066943422
C         8.89931771173675    2.14823008975046   17.99587195494483
H         9.63667505585052    2.54252899510870   17.28161678831146
C         9.32805410259469    2.61922333115087   19.38394022837656
H         8.61461425391114    2.34219328738456   20.15367855592300
H         9.48074725373054    3.69369164300337   19.42078063835801
H        10.27791058160957    2.14500723012760   19.62796736002326
C         8.93882560384368    0.62242591595575   17.91366404591352
H         9.96876557322479    0.27293911219641   17.96358688300999
H         8.50204905553004    0.26817935527114   16.97982315575398
H         8.39397675524214    0.17311511168834   18.74061870915139
C         5.94988887000465    1.69901474006066   18.09714076710279
H         6.26328597716315    0.68861732654256   17.80335434670091
C         4.56338868698587    1.93885321153027   17.49524515056127
H         3.93987482912933    1.06098742247704   17.65438393142641
H         4.62451035110347    2.13255316320035   16.42538223328978
H         4.07065462336443    2.78261483063670   17.96669089184136
C         5.87453852516886    1.75621740428325   19.62085907773823
H         5.67057525389791    2.76269098054614   19.97516966796443
H         6.78630980751093    1.39713223952675   20.08850933051632
H         5.05981080790876    1.11623167287705   19.95642406746224
C         7.64303310430544    2.02683059967123   11.34492598019878
H         7.16461863998939    2.13680148384957   10.36679068440600
C         7.64098108618394    0.55069733766511   11.73289016589535
H         8.17325911891560   -0.03372365614309   10.98416566873864
H         6.62957355868998    0.15832165485866   11.81697860580366
H         8.14231368693194    0.41389447993148   12.68864652887007
C         9.07569524642067    2.54570091613109   11.25370878426320
H         9.53382586467129    2.60625238928193   12.23887076928900
H         9.12279826391731    3.52683975969704   10.78835249133961
H         9.67299655342932    1.86528121891203   10.64866824717677
C         6.82710408127620    4.75528218120717   11.94890895648913
H         7.91275844737075    4.89776376105873   12.04214309589969
C         6.15051692248646    5.79399850850079   12.84264702866386
H         6.60372313295675    6.76970394225623   12.67681341934110
H         6.25302693502289    5.53216186096516   13.89285848048222
H         5.09242078993696    5.87909926538585   12.61618588332804
C         6.43369055674880    4.98504134111670   10.49188678626320
H         5.35471926183504    4.94926938290159   10.36911406227563
H         6.89178299259636    4.26579527099860    9.81825505378272
H         6.76327792993346    5.97830472376525   10.19051129168839
C         4.88152967107906    2.38279159228064   12.22310594527665
H         4.83061705537265    1.45904091633995   12.81637472117365
C         3.83696297110181    3.34358630848895   12.78671938841571
H         3.70776032503905    4.20193391472845   12.13402061990573
H         4.12607167711472    3.68676657068657   13.77784757781638
H         2.87620784136536    2.83882617960966   12.86585378856969
C         4.55102496657755    2.03639662836050   10.77204478346480
H         3.50708504222284    1.73029708385809   10.72178822042403
H         5.15034568230046    1.21245677898981   10.39530636497816
H         4.67530366765823    2.88878467350589   10.11225214824454

