39
CSD_code = ABAXIK | q = 1 | S = 0 | Stoichiometry = C11H21FeIN3O2(1+) | MND = 6
I         7.04665421630722    0.61952712398064    1.32755551635329
Fe        7.80640253024761   -1.70916397999868    2.11390104272758
O        10.36214619653175   -0.73368672857794    1.15084879585292
O         7.56704149418512   -2.27487896918056   -0.72053610832695
N         8.50991026539543   -3.57045212334561    2.66287896069982
N         5.92174423966312   -2.44575055218452    2.70439812838314
N         8.02962088907739   -1.23356615991202    4.15389675067446
C         9.37861733860495   -1.10238742914042    1.58246474892310
C         7.61065111261324   -2.07997116028226    0.39723204992588
C         7.37025118326909   -4.43931450448251    3.03406026490379
C         6.06666615550573   -3.89200525059783    2.45802490703907
C         5.72022496777542   -2.15314943739603    4.14295701155853
C         6.64335237840265   -1.02783694078281    4.61137358281035
C         8.65907466150308   -2.38921450019814    4.83133682101320
C         9.37379209716778   -3.28438126549186    3.82235021662147
C         9.30751064206677   -4.23080772765450    1.62273890889633
C         4.75872006208913   -1.97044240555832    1.94350284283011
C         8.81324020525666   -0.02599765370663    4.44611447313652
H         7.30434784701153   -4.51689079180374    4.11944178703076
H         7.52292489644434   -5.45307343958392    2.65416183350360
H         6.06426012816058   -4.03730521193602    1.37608917116033
H         5.21579480489078   -4.44688080616708    2.87363263340981
H         4.68724702628931   -1.84654232177895    4.32645397547995
H         5.88734013182369   -3.05695301233923    4.73044149428712
H         6.29783081096293   -0.08228746792011    4.19034685942087
H         6.59908309968771   -0.94442040284673    5.70425073972842
H         9.38799994714642   -2.04738468665913    5.57116515555934
H         7.90303761648796   -2.95480944393469    5.37680791053019
H         9.70179843034725   -4.21269600187360    4.30626318614090
H        10.25949468835566   -2.76760718300887    3.44870316799145
H         9.75762790478734   -5.15293881474515    2.00168688291133
H        10.10381880950604   -3.57342854215310    1.28295478606740
H         8.67752085039422   -4.47361836588506    0.77107144348880
H         3.86175399203794   -2.53592790653813    2.21037744817038
H         4.93731053194405   -2.08415102548913    0.87676145492849
H         4.58182066814361   -0.91783319124636    2.14553658729090
H         8.81477232024909    0.18866299647500    5.51813289893962
H         8.39934097624888    0.83412569249056    3.92707683514958
H         9.83875388341856   -0.16556040854659    4.11284483478816

