72
CSD_code = ABAZEL | q = 0 | S = 0 | Stoichiometry = C37H26F4IrN3O | MND = 6
Ir        0.34636539713179    6.95044597621493   16.66600473733801
O         1.33157749668416    5.09978119281415   17.11781622129405
F         0.28496914926590    5.74853038517835   11.37575608669534
F         0.77858922474468   11.65192084963179   14.31671462956984
F        -2.91876366850292    3.71783349037071   14.09933197157111
N        -1.29545549414344    6.00524025685570   17.34228293376968
C        -0.49313411509528    8.67809935871507   16.06158252399234
C         1.65801727237360    6.91033971423339   19.46980550051373
H         1.95736081732031    7.35661869559120   20.42004881674426
N         1.95204670313557    7.84060329014171   15.88219686756393
C         2.06322903852462    5.55075204610295   19.36218627227656
C         3.15797269713221    7.28127545621701   15.86978038580928
H         3.23364741700576    6.29972647732535   16.31629496820849
C         0.41103326738973    9.55443105166425   15.40882960211053
C        -1.90490875544613    5.17381170343464   16.46295567039810
C         2.32808855053510    3.37665856362310   18.29859511855507
H         2.17063402305184    2.75629694223123   17.42829461102098
F        -3.51244786994305   10.69150978607976   15.89376566888727
C        -2.93772589786923    4.33391792475284   16.88291934037728
H        -3.41047126566723    3.66338931381187   16.18748815490388
C         1.77944987984277    9.06077569087666   15.31897027443455
C        -1.38600491798110    5.26166229612608   15.10353704195464
N         0.98598913095355    7.63553809395861   18.64001863486572
C         0.70611790983270    9.02169439315880   18.99147486220284
H        -0.26447287971177    9.25480223423852   18.53855846737670
C         4.26379310199728    7.89080023294628   15.30975106808124
H         5.22100775241333    7.39518712926742   15.32588095885595
C         1.73850419636416    9.94812278948227   18.37884834475375
C         0.25250763699011    6.29527970719933   13.66681977280822
H         1.08267715158512    6.96067155332479   13.48622530014883
C         3.60826220316480   11.70687769527730   17.30472237410960
H         4.33353363355724   12.38658733144868   16.88329227328756
C         0.60073524413925    9.33709882854788   20.49292458830376
H        -0.02594230009212    8.60577794400684   21.00092232121859
H         0.14620695042497   10.31842801250779   20.60440085300970
H         1.57661556433475    9.37103337478032   20.97250909956028
C        -0.26259493229719    5.58796918572604   12.59790214180746
C         3.08483604620233    9.61323593225319   18.35164736500932
H         3.41340772903258    8.66031430673552   18.74256409907797
C         4.10547605027015    9.13880670927942   14.72619684244274
H         4.94239925791843    9.64621717334645   14.27174173964142
C        -3.35349493795726    4.35413945532076   18.19981259397882
H        -4.14742658442264    3.70313819710136   18.53199340659491
C         2.85419362751711    9.72523631327116   14.73026579839125
H         2.71600167102557   10.69083166845342   14.27762463517167
C         4.01425783929900   10.48641832903048   17.81468212404576
H         5.05866623892554   10.21092142521942   17.79588467563838
C        -0.29488508264766    6.14629324423516   14.93470737935912
C         1.34036625593103   11.17954499026657   17.87476655139079
H         0.29449765709590   11.45049526618431   17.89893894552372
C         2.94035939450989    2.88659670484721   19.41489773104099
H         3.27584337120525    1.85926557687749   19.43989618446779
C         2.26840366811967   12.05393918351108   17.34032110575508
H         1.94507588214000   13.00531559986921   16.94561447241697
C         1.86436786096410    4.72160631758457   18.21078807509228
C        -2.22682542714911   10.31560734113687   15.72922217224144
C         3.14121041235849    3.70679081452517   20.53225670226522
H         3.62976300875048    3.31640339804707   21.41190150718125
C        -0.05044146933063   10.78310426455154   14.93860409432568
C         2.70984895453111    5.00314125921966   20.49079465010626
H         2.85993572109619    5.64210124194268   21.35235116523654
C        -1.81595209437514    9.08698548975646   16.20797589422136
H        -2.54386594664665    8.45502132659167   16.69459436586764
C        -1.71412711539309    6.02665344706249   18.60522646418226
H        -1.21005622692874    6.71567939820851   19.26795366126715
C        -1.36199380659295   11.18468185518004   15.08826740502480
H        -1.69529023244747   12.13923724635413   14.71667639101104
C        -1.87347177197261    4.57056120631716   13.99341091725548
C        -2.73419141629228    5.22717005734111   19.08194871679406
H        -3.02998749560910    5.28489345692580   20.11706023917140
C        -1.32850663248451    4.71762010621976   12.73473440784924
H        -1.72330371977654    4.17194272936949   11.89396906257586

