76
CSD_code = ABAZIO | q = 0 | S = 0 | Stoichiometry = C27H40F3N2O2PPd | MND = 4
Pd        3.76495854234481    0.78170231027859    3.13015683372372
P         5.70615087074899    1.98562123674787    3.16604937407408
C         5.98257522818237    2.75633148012748    4.78285572943887
C         4.80474116746561    3.11319548855108    5.44891895329592
H         3.84684164499485    2.82447625036214    5.00990658763727
C         4.83400241592173    3.78320300762109    6.64907667313951
H         3.90049231164211    4.02364509629108    7.12938272252900
C         6.05648975539592    4.12281239343436    7.25676027801837
C         7.23339084964873    3.74370639362270    6.59167316428246
H         8.19649966441605    3.98157957609312    7.01294297847274
C         7.19416122867899    3.08261663703094    5.38099544913435
H         8.12865177627946    2.82120385022180    4.90689435488008
N         6.09752472787992    4.79125591193136    8.44725992117010
C         4.88980671060509    5.30067083141735    9.04840483401639
H         4.29898789796620    5.85110538589517    8.31345352060645
H         5.14846035501723    5.98774852542078    9.85102687347484
H         4.27088930718672    4.49806098891779    9.46588599620171
C         7.33804395532267    4.93769774191842    9.16738054031818
H         7.86328502681554    3.98155911894931    9.23598693669483
H         7.13148035559692    5.27940164615743   10.17891880365744
H         8.00005013192644    5.66704443806874    8.68710143887266
C         5.80605001736345    3.54939839946137    2.07877086938244
C         4.61707956331782    4.41009213000577    2.52511338965427
H         4.40020290230157    5.16642839173337    1.77242211073210
H         4.83754960470927    4.91565672150859    3.46374919265434
H         3.71990267905026    3.81259196356981    2.67000088847916
C         7.07335170163468    4.38024570219534    2.28938084755799
H         6.92756838563904    5.35110670490237    1.81661142784863
H         7.94977264305937    3.92602167960967    1.84083154237432
H         7.26391653662909    4.55014875131520    3.34652231220397
C         5.66325284745014    3.18567676999241    0.60220046095854
H         5.52440110920113    4.09099964128283    0.01230666119431
H         4.79792906089838    2.54644247035353    0.44480085079538
H         6.55046896646390    2.67947816678991    0.22815976877032
C         7.09713381707742    0.76959235582174    2.71861799249373
C         8.41802541022007    1.36888094044242    2.24246452467475
H         9.13961699659254    0.56375737162917    2.10159947951778
H         8.83153284327052    2.06095121807936    2.97032765157318
H         8.30761787770332    1.87829222085311    1.28973986320546
C         6.50696051132267   -0.11251992369107    1.61056344123341
H         7.17123914484961   -0.95044616645864    1.40201776647947
H         6.36405666585055    0.45110861304453    0.69099523618831
H         5.52926425954635   -0.50979978730560    1.92753673120182
C         7.36044110810229   -0.10125717293303    3.94791980097278
H         8.08349288942909   -0.87822152382077    3.70273638805607
H         6.44080557854128   -0.58068637271345    4.27770805159382
H         7.75550737309854    0.48481323095239    4.77363690457388
C         4.10995853734895   -0.33638123093115    4.76875481693482
C         3.56054024346692   -1.61705271526820    4.60759721125561
C         3.60446930894560   -2.55947530686268    5.62355651880079
H         3.17125859218191   -3.53782985268592    5.46464839761638
C         4.19281280765295   -2.24813648172062    6.83631694713608
H         4.23170951261308   -2.98289245442278    7.62681876072898
C         4.71071560087553   -0.98132232064992    7.02595249890633
H         5.15675737747307   -0.71486484550592    7.97362149043538
C         4.66901749046761   -0.04094011509282    6.00548745096881
H         5.09854830161534    0.92977045353200    6.19725633842455
C         2.85910180610903   -1.90554265393018    3.30860251599037
H         3.59227728302363   -2.16062107652323    2.52857812429111
H         2.15952061985697   -2.75245899154757    3.41051191842859
N         2.14145458905143   -0.69135488186789    2.88898416687065
C         1.02975110479558   -0.42560634252489    3.80228899226801
H         0.27326960291691   -1.22093292488961    3.73824253711174
H         0.56827061781114    0.52935580498498    3.54945028793413
H         1.39799323331549   -0.36748520152527    4.82816454202819
C         1.62386859561825   -0.88547275268546    1.53770236326764
H         1.03528377656829   -1.81240536245732    1.47861657730899
H         2.44915537906915   -0.93913101755556    0.82335969665477
H         0.97674833963391   -0.05732048287529    1.25264096826382
C         2.08228514783015    2.32656201230541    1.66108039778899
O         3.03138927503503    1.67510359622228    1.19441817487906
O         1.76535611642166    2.48227307615998    2.83735621722124
C         1.19038978760574    3.02726120845194    0.57344560136661
F         1.92655402648114    3.71655753209594   -0.31530987135526
F         0.48446544813905    2.11929156015327   -0.13573220481675
F         0.29955306022838    3.88396096184890    1.08842244548261

