72
CSD_code = ABAZAH | q = 0 | S = 0 | Stoichiometry = C37H26F4IrN3O | MND = 6
C         3.00874857411821    4.77134828877489    4.84784282892814
C         2.51888081101675    3.43431321855180    4.91155930526911
H         2.69314881569446    2.81682584245076    4.04238322258398
C         1.86174207113081    2.94820511578520    6.00376937229788
H         1.50754019950753    1.92690825335396    6.01052047035961
C         1.63974493295009    3.76460690735824    7.11988973112288
H         1.11633947210728    3.37749778607490    7.98076987448970
C         2.09634450113598    5.05281348727448    7.10185291507510
H         1.93057630496375    5.68831181567004    7.96318253443114
C         2.78708627245366    5.59674507052550    5.99784164117305
C         3.21501401968729    6.94721162308339    6.12922459857747
H         2.91071547370103    7.38587380765769    7.08144936917949
C         4.20982532467873    9.04787621347951    5.69193490888729
H         5.19189642924928    9.26857722114816    5.25800009009477
C         3.20505469652341   10.00124166326909    5.07477871384414
C         3.63482297724409   11.22879708309477    4.58778252431622
H         4.68575879157860   11.47750576729214    4.62709247616857
C         2.73171252930246   12.12735515513315    4.05066484111322
H         3.07946346746191   13.07576047201757    3.66974374972758
C         1.38565065315155   11.80827904077128    3.99464639982316
H         0.68022202531953   12.50681579889166    3.57034179556961
C         0.94817247321906   10.59175117965077    4.48772780222958
H        -0.10140040008148   10.33824540495528    4.45325362749661
C         1.85248799864544    9.69470971590643    5.02816479537739
H         1.49972327870684    8.74524806868766    5.40628366526195
C         4.29500251747618    9.34354537297380    7.19872556382720
H         4.76369462995622   10.31585039862822    7.32925855898940
H         4.90039857607504    8.59614700743346    7.70908471791685
H         3.31159839779535    9.38866762228049    7.66169390826687
C         1.73856096689053    7.33016875387749    2.55012371371254
H         1.66634080315606    6.34619394122434    2.99167181441594
C         0.62851318789235    7.93916580719726    1.99771876126712
H        -0.32712498558096    7.44059178770497    2.01650308966070
C         0.78104998933373    9.18990050405624    1.41872072355897
H        -0.05900759243535    9.69757266186018    0.97035399343776
C         2.03117020041335    9.77908796640740    1.41946970134217
H         2.16502835496623   10.74638032456213    0.96916841475513
C         3.10995907540456    9.11573351682062    2.00188832653581
C         4.47621948195040    9.61509144846725    2.09140406800790
C         4.93139980166539   10.84709310093469    1.62344162560549
C         6.24018527474737   11.25602102447246    1.77614010263512
H         6.56901903507160   12.21288093732565    1.40652327962248
C         7.10870434740721   10.39139177780837    2.41818139471855
C         6.70452771728448    9.15922144440249    2.89314472315241
H         7.43543669533174    8.53112022254093    3.38037713571280
C         5.38455255783278    8.74234654271512    2.74278791317227
C         6.63006816866157    6.09032225706397    5.26526506210522
H         6.10331216107031    6.75035218061644    5.93969685663514
C         7.67726697431552    5.31809543302357    5.72770646176956
H         7.97164013452624    5.36703546510363    6.76368924018469
C         8.32657128988239    4.48328198622615    4.83003900115695
H         9.14495416077460    3.85709033470770    5.15005903250107
C         7.90820742158652    4.46901516205886    3.51399469951282
H         8.40437907938477    3.82887169589319    2.80641084500288
C         6.84382795633817    5.27693140560093    3.10985767646418
C         6.31459875405392    5.36211894225309    1.75433961099479
C         6.80711658369332    4.68587842366755    0.63720944931852
C         6.24769040236263    4.82532234549485   -0.61592362885059
H         6.64629122622676    4.29108203132207   -1.46222220884766
C         5.16138523351255    5.67209073636753   -0.73979775862644
C         4.64035912963262    6.36385522486700    0.33638663280826
H         3.79320894840438    7.01014423232587    0.16562502061283
C         5.20245735265922    6.22259577262376    1.59869796392902
F         4.09866493785555   11.71151516440412    1.00058142872143
F         8.39152395553791   10.77536253154671    2.58685802752438
F         4.59899896181916    5.82436734902973   -1.95630267169088
F         7.87062704130129    3.85449806555363    0.73050724180801
Ir        4.55540954667931    7.00634664518205    3.33738558069796
N         3.90963735055180    7.67196999832053    5.31783985247495
N         2.94291903450227    7.89276381070606    2.56122541630030
N         6.21045290896479    6.07575445886838    4.00234233690050
O         3.58443055959315    5.14564218262072    3.77544604688873

