55
CSD_code = ABEGOD | q = 1 | S = 0 | Stoichiometry = C16H31CoN3O2S2(1+) | MND = 5
C         2.57689353369818    4.40163083333945   21.25497366264995
C         4.32926508301932    4.53310056875586   23.06768488119039
C         4.01221838727247    4.04722954240177   21.65055738539781
C         4.97941997233453    4.60044994252827   20.64741788128309
C         5.11452396062707    6.08579566155269   20.56005124646670
C         6.65042063549077    4.22907999044322   18.97600319927887
C         8.04181511164227    3.90726686785224   19.53147407969050
C         8.30913600161584    2.40726691149011   19.57930401753014
C         2.57351472255753    0.47493863706219   16.90080911561354
C         1.64617179340452    0.90030645178042   19.23270395546770
C         2.88092443005145    0.69686912388833   18.36983225940345
C         3.80479994793344   -0.29490479371487   19.00657342844174
C         3.40467318425140   -1.72699336244612   18.87353551411000
C         5.58732030319033   -0.96724396497214   20.35618068992526
C         6.63807043217879   -0.46488750891459   21.33998456471825
C         7.76015077071172    0.30891850513416   20.66055397756537
Co        5.33098539839423    1.95691544514531   19.82453365276747
N         5.63921571400917    3.78658805489824   19.91142706908706
N         4.83176121044179    0.07850616568491   19.68106923118191
N         7.35780073507387    1.70257488281339   20.45180895177758
S         4.19761698804065    2.21208628876878   21.67622399387528
S         3.84889518782842    2.27100205804376   18.43829117665076
O         5.03081766941854    2.04318996808083   17.59746917670770
O         3.03621348622870    3.41489695221847   18.13970460488658
H         1.88658156361863    3.86246849025631   21.89866519465672
H         2.38682308326968    4.12773609372713   20.21981727785026
H         2.39465119995857    5.46717782071802   21.37159358994346
H         3.70159412010381    3.99068395874352   23.76999736818542
H         5.36836885250362    4.33203530726963   23.31695703082451
H         4.13338735815920    5.59540088088015   23.18425368835864
H         4.84363051644192    6.41726106437863   19.55762446593676
H         6.13834201071226    6.39896292288066   20.75933858503283
H         4.45965257646930    6.57939003135647   21.26908581951514
H         6.49777409483503    3.68255977385253   18.04090181886475
H         6.56919252479303    5.29655417573709   18.76829582615050
H         8.78909056720130    4.37228076701588   18.88863805365486
H         8.14394557033296    4.33461792659061   20.53274766359234
H         8.22005540100477    1.98830792070174   18.57313920960261
H         9.33496499865192    2.23905608187831   19.93508285076804
H         3.48891702656910    0.27864707380508   16.34615196334988
H         2.12217154944609    1.38233416983644   16.50252368814401
H         1.87415958992155   -0.34505554018826   16.74706876248580
H         1.07914551774421    1.74510118617520   18.84753165262530
H         1.00709788844690    0.01950620464772   19.22314178844287
H         1.93651472952427    1.11261677904750   20.26129728869572
H         4.22252669840379   -2.31624104001628   18.45925174837091
H         2.53468650816965   -1.83912316896338   18.23654556359185
H         3.17184930612836   -2.14346809636536   19.85488146704067
H         6.07560856396306   -1.59158231174119   19.59837690239713
H         4.89058355034235   -1.59933545670838   20.91690699412131
H         7.05333309054740   -1.33855970107107   21.84261377267457
H         6.15768488324739    0.16520605150045   22.09116090300779
H         7.98315441981926   -0.13528767680528   19.68707933824886
H         8.67136298878209    0.26505039207699   21.27056818250807
H         7.38862459146775    2.15521469694704   21.36929382569334

