85
CSD_code = ABEJEW | q = 0 | S = 0 | Stoichiometry = C43H32F6IP2Rh | MND = 5
Rh       11.45168602675287    2.37313937051953    2.96595652668144
I        11.59110359072750    1.70693888822539    0.41352008475332
P         9.19073035845622    2.38623625643748    3.06694443593125
P        13.65594167691176    2.06896224103720    3.34183019765240
C         8.84424839911985    1.86232762503817    4.80492035988908
C        11.35456337900472    2.14529049255085    4.98082182573458
C        10.13389349880121    1.82797177624255    5.58766685849684
C        10.08996660793239    1.50948556186370    6.94713201504189
C        11.26655291757168    1.51506047296862    7.67818980286875
C        12.48488895359358    1.84884362931412    7.10664816316180
C        12.52511138858712    2.16994898547843    5.75073493782238
C         8.78750079406034    1.18974453202058    7.61440458426278
C        13.72611866982639    1.87143081252961    7.94855718033760
C        10.03716016565998    5.17663613838830    4.68763523392554
C         9.25493745401594    6.22111466473292    5.11898810374438
C         9.35664702847613    7.49550324845742    4.56255400219651
C        10.31684041233978    7.69480611625671    3.57043257987334
C        11.11645729195456    6.67220114052421    3.12035612153612
C         8.26857875577299    6.01614863666160    6.23111798264529
F         8.72669693484082    6.46449720522075    7.41438324332185
F         7.10543782280033    6.65066882455281    6.01581160151654
F         7.95104472642303    4.72316364011986    6.42855016643390
C        10.42208538545763    9.05340245294774    2.93757561400068
F         9.54142480912031    9.19789599783414    1.92528298657891
F        11.63186342489253    9.29951449921264    2.41459867535870
F        10.16705185459190   10.05163874669818    3.79587568780956
C         8.18683178080691    3.85691707933827    2.71362683341764
C         6.99841710367421    4.13856256168528    3.37740928868535
C         6.31392397007187    5.30685520803149    3.09429744792617
C         6.80291574099134    6.19011599895197    2.14555853659894
C         7.96505710783155    5.89260510357613    1.45214543809186
C         8.65419139425166    4.72824088056692    1.73286255466564
C         8.37410420363647    1.08267021603392    2.09600668113947
C         7.46433056427720    1.35823717322311    1.08343007791435
C         6.94230526434192    0.32145039892239    0.32964419444435
C         7.33262530608046   -0.98441427601455    0.57112767860797
C         8.25214987521409   -1.26197713334694    1.57098631620440
C         8.77393892448056   -0.23245019746786    2.32748832335788
C        14.00464525278964    0.29201502832413    3.47586768872215
C        12.92756463297533   -0.58536052794067    3.42447947083595
C        13.12801733386370   -1.94499789210243    3.56828837646185
C        14.41064979313345   -2.43049566726563    3.76355758271643
C        15.48827267922831   -1.55941520042815    3.81511858085528
C        15.29084917329504   -0.19859970780183    3.67286030084242
C        15.07738426574037    2.71883606623363    2.43771637101971
C        15.81510920391635    3.81828578196166    2.91022779383038
C        16.87123101721546    4.29187736021184    2.14705443933329
C        17.02538785482183    3.61002331662358    1.04124924626030
C        16.42360004924216    2.60220680888144    0.49965488903489
C        15.36065889520704    2.09133132470389    1.20579028310840
H         8.14259747766742    2.55484535099902    5.27739258346194
H         8.37049995159567    0.87372288093776    4.79023993705761
H        11.23058465832684    1.26867736330005    8.72956337141014
H         8.94849814640202    0.92722901575818    8.65665408429085
H         8.28712749881517    0.35641377744974    7.12140009611729
H         8.12067729399440    2.05120955371465    7.57599222461760
H        13.48337740768256    1.64971489028580    8.98455561565079
H        14.20293536683088    2.85009677571869    7.90943797830731
H        14.44441478689872    1.12779300359397    7.60139745605082
H        14.70192928566521    2.15435470832093    5.55468176668930
H        13.89141464589730    3.68719186003415    5.12723764904450
H        15.57217622478696    4.29085251650694    3.84948233271328
H        12.48700643629706    4.62505979457123    2.34980449749487
H         9.96670467813425    4.21305057856149    5.16511568797794
H         8.72495145515334    8.30165037275830    4.89613736384651
H        11.84187848280770    6.85824172319789    2.34259029831497
H         6.60253765121937    3.45247842344598    4.11247860593661
H         5.39947318245328    5.53205971853013    3.62227966886758
H         6.27469565734909    7.10887475751049    1.94166056195002
H         8.33673583209060    6.57354695038426    0.70166943599042
H         9.56505638985636    4.48815796967379    1.19901381203830
H         7.17094388529924    2.37893699771938    0.88372929627369
H         6.23476491775523    0.53758415830373   -0.45665964379393
H         6.92925512243303   -1.78813777026326   -0.02601440005486
H         8.56741200207036   -2.27933430955464    1.75077050723476
H         9.50534941829997   -0.44297538775746    3.10211041341474
H        11.92288052370047   -0.18950585932684    3.25725326112024
H        12.29110000189382   -2.62602188846475    3.52194802655372
H        14.57276161488308   -3.49248054293160    3.87106043743406
H        16.48625288535031   -1.94438624102425    3.96375908587092
H        16.12824379732941    0.48575991118259    3.70274708681523
H        14.76160569494119    1.26848551739225    0.84310111900711
C        10.97463608071439    5.35173381965835    3.63468246327649
C        11.71304027353913    4.32128118078175    3.06657924910136
C        13.81418755694817    2.59394676827546    5.09321070449917

