91
CSD_code = ABESAD | q = 0 | S = 0 | Stoichiometry = C34H50Cl3N3Ti | MND = 6
C         6.29468986277522    7.52184995855622   10.34715955835023
H         5.89597564397567    6.51806012801859   10.47716952469141
H         6.52090011709402    7.93448566566365   11.32762903418996
H         7.21998907354507    7.45161102732224    9.77999762255285
C         5.27943722544139    8.40834689011161    9.61908340803058
H         5.70936486975327    9.40939079373213    9.50461898372120
C         5.01964975849322    7.83589011028819    8.24383060140520
C         4.22841775622062    6.70525446263587    8.09132994863408
H         3.77443585436609    6.25374362043783    8.96044920576079
C         4.00695960942784    6.13369248633439    6.84915303968351
C         4.61521627470954    6.70136330994236    5.73919748339139
H         4.46508792746442    6.25318073127900    4.77064601561903
C         5.41703221755054    7.82704051009292    5.84573631699982
C         5.61025022484016    8.39656552128590    7.10885131765263
C         6.46662952602701    9.60176253765565    7.24363084380020
C         7.81727423299311    9.49772510940269    7.54852381673541
H         8.25716083259716    8.52558161191539    7.70145568209187
C         8.58576349671561   10.65508579371922    7.65400057356588
H         9.63770638971209   10.58331408635505    7.88951294785843
C         8.00445149022972   11.88518587694486    7.45828662227357
H         8.55672496569494   12.80958003422404    7.52842365903803
C         6.62971577072750   11.92339264964486    7.15682197269636
C         6.37124651412990   14.32018965475664    6.99081535260702
C         6.81001639655414   14.93911637389125    5.81110811693389
C         7.23876083809503   16.25705220774644    5.87196295342577
H         7.56243005954648   16.75514542230366    4.97128728432379
C         7.25133271931021   16.94491535408502    7.07054680129800
H         7.58309070604586   17.97235858038108    7.09990972673749
C         6.83635824686243   16.31988438308152    8.23082911694623
H         6.84714679472974   16.86694477277746    9.16087445047978
C         6.39886437077044   15.00307753246055    8.21536580899645
C         5.91165256036844   14.33875050484137    9.48208722035121
H         5.80246635900065   13.26267496059545    9.29748066616967
C         6.89579406805943   14.50969662708308   10.64020426281145
H         7.88975302777314   14.17392104538067   10.35042603513770
H         6.56651562212595   13.91790773385234   11.49143756215780
H         6.95970185773763   15.54794627812918   10.95555611754807
C         4.53184355904095   14.89629933648604    9.84453546948959
H         4.59122496561864   15.96252643381808   10.05259023426020
H         4.13991449981708   14.38632039432882   10.72174099688708
H         3.83819546016389   14.74234162891554    9.01773810349127
C         6.76341003229951   14.19829040056815    4.49500794134428
H         6.63232301178974   13.12753665467761    4.69964055621782
C         8.05242841095171   14.35980448026409    3.68824140505430
H         8.17416098795330   15.38074036240559    3.33566846851821
H         8.02498758411878   13.70476304486632    2.82034667037553
H         8.91817918017997   14.09616309778154    4.29276424703615
C         5.54951529149807   14.67883287103575    3.69336292997223
H         4.63765601686820   14.53734079412477    4.27467980296432
H         5.46081345965729   14.11064783652014    2.77021573725041
H         5.64620897226266   15.73525347411813    3.45144197581416
C         7.43311842881247    7.59942914177297    4.42632798309332
H         8.07531849274935    7.67866923099910    5.30024885217194
H         7.97233022644550    7.98723317483938    3.56516951738760
H         7.21484884959809    6.54717605402637    4.25471110464039
C         6.13333964344019    8.38373090617483    4.63569403747865
H         6.38576489205113    9.43123959326541    4.83205175403416
C         5.28873747840566    8.35141026103801    3.36259548936345
H         5.11551880826703    7.33422503152523    3.01977882232136
H         5.80797826456771    8.88850916722251    2.57286375270498
H         4.33403136656755    8.84388282065756    3.52617999477890
C         4.00546839807083    8.55207095521428   10.45162406666913
H         3.28924120014301    9.18962143107065    9.94010894437550
H         4.24637998043394    9.01784599241689   11.40425784002476
H         3.54549408478008    7.58827264251844   10.65352087926524
C         1.35679546436437   11.43155588040925    5.25092427374906
H         1.85411223283568   11.14886532542785    4.32156292492852
H         1.19791446106905   12.51131278459671    5.24871350200327
H         0.38402570171830   10.92490468034001    5.30189060708465
C         2.39179890181346    9.61284604130793    6.44837136873882
H         1.42838851828216    9.08457460587217    6.44729924533605
H         2.93876707745976    9.34572960826582    7.35552680505896
H         2.96871226882488    9.28556564895688    5.58012256215231
C         3.85890646795504    3.75075625793071    6.07341325377231
H         4.14272843990692    3.98154553960276    5.05002560557992
H         3.22540892455833    2.86651699838261    6.06016562505612
H         4.76059316745649    3.52237417749515    6.63712000690521
C         1.86442699927969    5.27972755103384    5.90490041558367
H         2.13249323360388    5.58960883999702    4.89792439755626
H         1.32599271565109    6.09538901347560    6.38284671691908
H         1.20163304864727    4.42000058603651    5.83609058071456
C         3.11472957408316    4.92407895473400    6.71276485765782
H         2.79703961217444    4.61881889723314    7.71595702369421
N         2.20683817923418   11.06365198444226    6.38622482526909
N         5.86577983156656   13.00261534629789    6.93491299037134
N         5.88984998332429   10.78978349567807    7.05259767872793
Cl        3.68108150735001   11.65474193210112    8.82500965693252
Cl        4.46737670620554   11.51758868592644    4.54663486865237
Cl        3.08539680756599   13.95572803763784    6.46903671199613
Ti        4.21386477860676   12.08496858115891    6.67667919378809
H         1.71525058842240   11.35238898607297    7.24027707011753

