91
CSD_code = ABESEF | q = 0 | S = 0 | Stoichiometry = C42H45P3Ru | MND = 7
Ru        2.63984889893815    0.25821820866935    7.70933712678229
P         3.11122768593305    2.15818104417933    8.93678165583616
P         1.39686887126326   -0.81727327375952    9.30902612457546
P         4.55521150819395   -0.98326284915611    8.02330351021936
C         0.88190783880584    1.02431636458118    6.61330171804292
C         1.34127694415707   -0.21959295156620    6.03432348819452
C         2.65493514241431   -0.19459172523332    5.57573274645222
C         2.56364078744219    2.26315820918648    5.43469984580126
C         3.08267391799123    3.39450573533790    4.73414035896999
C         3.34028607470258    1.06164966526964    5.75779255211838
C         4.39598358995268    3.42758376136637    4.22995324845622
C         4.89499504971111    4.53161891077222    3.59133196659579
C         4.09038716011966    5.65846965069870    3.42966360074566
C         2.25659671724930    4.53699846723920    4.55816516354522
C         2.80272900198630    5.65232876752793    3.90226266182831
C         0.89613630894617    4.51893242176694    5.03751162247549
C         0.03755730088406    5.62165153813175    4.89661042820964
C        -1.26395600202224    5.58966767166730    5.32859417047377
C        -1.77179741851110    4.43331767873972    5.91900062076278
C         0.38565713770563    3.35226339215202    5.66737841165136
C         1.25807030909203    2.24167120779918    5.88477594750479
C        -0.96039125594540    3.34229785867139    6.08162504361197
C         1.76596624097208    2.84974649035999    9.96948942273380
C         1.76692315248088    2.86436264185570   11.36002512003319
C         0.67772273525595    3.36225143207185   12.05627079820175
C        -0.42378918362678    3.85347687374412   11.37771273631305
C        -0.43305764583011    3.84533221584204    9.99164631778941
C         0.64998561736330    3.34233336875663    9.29757570708828
C         3.58693057588713    3.71284764028417    8.07414413623127
C         4.49763719788851    2.13625247737506   10.15115854294708
C         1.10891533939460   -2.61867922279628    9.14907819325261
C         0.16910118614514   -3.08257417036203    8.23112011235432
C         0.00879932390546   -4.43590164391785    8.00385177344191
C         0.79747427412215   -5.35215881569468    8.68015285956359
C         1.74299163399085   -4.90324571771691    9.58604424218753
C         1.89898380976469   -3.54912123929423    9.81636035062057
C         1.87413328576495   -0.70667744127849   11.08425534059390
C        -0.34310446662772   -0.25497887225963    9.53326796759406
C         4.63164005750103   -2.64543660374771    7.24013532274848
C         5.82590343651573   -3.33716657237031    7.06209761967624
C         5.82467049442000   -4.59876783236254    6.49667405323269
C         4.63378536557825   -5.18965991902454    6.10589708100450
C         3.44203149273862   -4.50701526238818    6.27412835706141
C         3.44635149901739   -3.24239459755296    6.83362310637423
C         5.27002005310141   -1.48109015986347    9.65243965052992
C         6.06642776554867   -0.21627299774922    7.28321127647652
H        -0.13618516888846    1.00398750315304    6.99825267239333
H         0.68940755356236   -1.07992268300164    5.89526993770003
H         3.12007521878611   -1.04054081396493    5.07202037308204
H         4.37780167820961    1.06891232108215    5.42960868715201
H         5.03094139497639    2.56176077697979    4.33986104477311
H         5.90673557921437    4.53067879586072    3.21107927704032
H         4.47942952479921    6.53221144809691    2.92696386989895
H         2.20337325520148    6.53634638841928    3.75229726312527
H         0.39647200916402    6.52807070561933    4.43541081984613
H        -1.89778971272235    6.45595113903990    5.20504522268200
H        -2.80181102115567    4.39966548644268    6.24497335598421
H        -1.37116022799163    2.45485523115193    6.53864488252416
H         2.61742803543165    2.49464411078374   11.91363777936700
H         0.69200549768455    3.36736685447548   13.13728593922787
H        -1.27004224506283    4.24097743935692   11.92595450748613
H        -1.28577710238543    4.22912840094948    9.44999528184519
H         0.63523935461817    3.32420999715674    8.21837019699650
H         2.78034830612874    4.04709589563334    7.42725603514925
H         3.80706239649459    4.48935603012138    8.80748663799819
H         4.46644605874009    3.52182634359194    7.45996440845071
H         5.41629084748460    1.93469110895826    9.60013508245767
H         4.58425787528470    3.09497872441841   10.66279058547399
H         4.34312649711012    1.33677203073680   10.87390650039299
H        -0.44063763151437   -2.37501154177234    7.68653891149100
H        -0.73059153193912   -4.77888183350084    7.29355414163951
H         0.67748734238656   -6.41027482705964    8.49937924316966
H         2.36401654198231   -5.61267909794678   10.11428284009192
H         2.63998439313930   -3.21387502287812   10.52671064376735
H         2.93184126041246   -0.92124707027330   11.21626622389451
H         1.68647936737036    0.32138200467837   11.39412126394644
H         1.27330272963275   -1.38863031358874   11.68656308334889
H        -0.91878990514550   -0.39108858609991    8.62127726873764
H        -0.81139342520112   -0.81719671058162   10.34171692560518
H        -0.32329370778738    0.80712892835178    9.77985328309648
H         6.76580971108807   -2.89425000276258    7.35877813204068
H         6.75834710675953   -5.12631498898571    6.36078750886602
H         4.63857108670786   -6.17743629238181    5.66846162551916
H         2.50802131911470   -4.95766863288329    5.97089276023373
H         2.51926047652709   -2.70053925552986    6.96299804854873
H         6.20353895348139   -2.02330135002018    9.50499987508714
H         5.45152192738733   -0.59658861435670   10.25980117896642
H         4.56176673342264   -2.13226152127245   10.16017062447334
H         6.06698374739170   -0.39800645889005    6.20911090521892
H         6.02461263837112    0.85897644477517    7.45758238876587
H         6.98059645105997   -0.61683031821311    7.71807066172961

