101
CSD_code = ABETEH | q = 0 | S = 0 | Stoichiometry = C51H43CuNP3S2 | MND = 4
Cu        3.75311875829170    3.59963225862604    2.95078775410014
S         5.48980933427220    5.40982241055150    2.87605704125208
S         4.47115624632675    2.36377070281618    5.15038513308276
P         5.00629660682053    2.22666767279897    1.69639071066644
P         7.01758867574495    4.49006785196155    2.04326266900241
P         4.52520242524851    0.63482553787183    4.21034655344479
N         2.31881066220487    5.12179047905124    4.96028054181283
C         6.68774206499072    2.80471893980939    1.50055101976073
C         7.68678276270554    1.84064721586030    1.37268947180069
C         7.45186929000909    0.46841961363893    1.51494881062509
H         8.24733395416039   -0.20327735308652    1.22134752273420
C         6.39100605861094   -0.06102824150280    2.24406253226013
C         5.26596403751522    0.70487726203085    2.58290906153095
C         4.61715481958921    1.63794692439361   -0.00467369299890
H         4.56402534185188    2.50260870556723   -0.66827159452601
H         3.65035210524294    1.13350651063964   -0.00827117530802
H         5.39165991237274    0.95287860435642   -0.35243422168863
C         7.48210106181750    5.53401548923725    0.63132573231700
C         7.01826300251835    5.21137432516305   -0.63722111308939
H         6.47534425303375    4.28498115760590   -0.78083777343621
C         7.25089505756502    6.06915235522488   -1.69589442891613
H         6.89746161617744    5.81499440914352   -2.68496259677656
C         7.93253584679728    7.25699394281879   -1.48580604946944
H         8.11935170840994    7.92480618364304   -2.31395268256333
C         8.35503705421137    7.60073084090156   -0.21141659184201
H         8.86221492422110    8.54000004591714   -0.04495073217429
C         8.11881196188712    6.74896085146944    0.85165568220651
H         8.41129493013621    7.02455915623264    1.85593218852510
C         8.40989857264807    4.40579372670959    3.21188125034353
C         9.70876845599220    4.80882195866914    2.93664407997346
H         9.96138196147254    5.21621523390307    1.96844907358394
C        10.68500648433595    4.66202993980149    3.90602749200635
H        11.69646196167510    4.97748941486689    3.69451022044111
C        10.37363276043419    4.10684324258677    5.13594319082632
H        11.14355089396414    3.99213936369717    5.88519463942102
C         9.07665277358952    3.69982015215997    5.40816822271286
H         8.82996059958047    3.26811476039496    6.36744508002703
C         8.09470913427719    3.85353782071706    4.44964634103930
H         7.07179976263060    3.55793073753216    4.65337314076470
C         9.08384881983021    2.24411289284146    1.13371585468197
C         9.43669848673555    3.03045757169574    0.04314857884260
H         8.67990277902491    3.33933616123337   -0.66141956562782
C        10.75730607769709    3.38662909728254   -0.16578851627246
H        11.01641380678143    3.99972076693410   -1.01734399318596
C        11.74118821565707    2.95766409621446    0.70788627776621
H        12.77137088614222    3.23930068927413    0.54542484751502
C        11.40099490086530    2.15792352941913    1.78698788990938
H        12.16577350020745    1.81435710609036    2.46848381587470
C        10.08396135211886    1.79867082661551    1.99550941813079
H         9.81459606435224    1.18770711957011    2.84574821488024
C         6.44154259044617   -1.46224402852779    2.67712666435074
C         7.62099754437764   -2.05394133159492    3.12421638423257
H         8.52375581663853   -1.46362862898089    3.18522288186336
C         7.63496044238836   -3.37655712022193    3.52137863825678
H         8.55366634204802   -3.81921450847354    3.87835932924044
C         6.47700147492572   -4.13488267542194    3.46771034166594
H         6.49218166423149   -5.16969849570896    3.77676829178833
C         5.30175668074950   -3.56053770344826    3.01538581384900
H         4.39546706193492   -4.14719592806442    2.96582019235439
C         5.28279025420586   -2.23476470184929    2.62657898723262
H         4.36599624972763   -1.79261088427301    2.26231741746763
C         5.47697396945368   -0.51310099031606    5.24455704751202
C         6.74864719626044   -0.08294220442287    5.60833804494164
H         7.10268612879610    0.87668625223481    5.25254890417153
C         7.54078592386789   -0.87635643081793    6.41358112651566
H         8.53099201025855   -0.54588120480755    6.69177830557695
C         7.06089746040170   -2.09560702811432    6.86555493686554
H         7.67826494692324   -2.71742596726584    7.49702474822718
C         5.79018709973016   -2.51717248047859    6.51264845962420
H         5.41724668299815   -3.46651288143270    6.86839385022503
C         4.99250199329217   -1.72950859838976    5.70214718025868
H         4.00482012890054   -2.06283770224815    5.41640019241139
C         2.81463391927974    0.02886041307171    4.10873326657101
C         2.10865051530591   -0.16154234761241    5.29208560045112
H         2.61411583568620   -0.01656848667494    6.23839593733947
C         0.77533819268070   -0.51865694433497    5.24464001129013
H         0.22659766996904   -0.67664434964140    6.16167338751815
C         0.13978992491540   -0.66488294068591    4.02044216745141
H        -0.90387590484790   -0.94089978044894    3.98590760790403
C         0.83475192900834   -0.44332010143560    2.84329883075963
H         0.33292919855358   -0.54045485000261    1.89149488648929
C         2.17206305937326   -0.09203822282300    2.88597441761006
H         2.72772411795959    0.09562329903555    1.97574066360465
C         2.45861672442666    4.52710257331844    3.96255927233846
C         2.17943808764228    5.79513657735639    6.11940173716709
C         1.73621973130969    5.10331512488581    7.25588631017275
C         1.59516314269217    5.81921389714558    8.43285428435711
H         1.25520438958586    5.31072949109752    9.32306967072781
C         1.88894247834357    7.17216762323835    8.47984342284223
H         1.77098426183433    7.71404132796235    9.40640611367201
C         2.34156701742523    7.83299113834846    7.34984873955484
H         2.58056170980941    8.88501877126004    7.40070167932321
C         2.49860852858868    7.16025400350252    6.14919331223603
C         1.45289744672001    3.63837289011362    7.16815598275847
H         0.65713383305637    3.44119674930249    6.44932219587965
H         1.15907476184694    3.24299168570605    8.13670458590798
H         2.34126101349742    3.10914793740415    6.82171487047004
C         2.99639787695185    7.83284272584956    4.91099625846736
H         3.84206543745251    7.28587527036396    4.49212530041123
H         3.30366700897949    8.85316748340501    5.12309895353790
H         2.21759570665012    7.85323422272583    4.14819746843498

