19
CSD_code = ABETAF | q = 0 | S = 0 | Stoichiometry = C5H8AuCl2NS2 | MND = 4
Au        2.55329268932399    2.49305740241137    6.98354864154638
C         3.47177587896546    2.61215321045917    4.30912020373656
C         5.29398194230020    2.58022165378558    2.69560124716687
H         5.63956214670538    1.54933343662676    2.82309159005250
H         5.89798193125976    3.22263194311976    3.33909870241931
C         5.29431727906334    2.99962031079266    1.22899318339199
H         5.36084718758562    4.08452764955540    1.14848554527842
H         6.11944555097754    2.55747256661385    0.67693930517357
C         3.92920663235719    2.51767399981227    0.73939856908438
H         3.95568625067745    1.44489514055071    0.54863305567759
H         3.60332801175762    3.02493089385405   -0.16479992444876
C         3.01968561509249    2.81842147816236    1.92650783997650
H         2.63872175552326    3.84423881354636    1.89667525676216
H         2.16699093151681    2.14225973595236    2.01206878508854
N         3.89530741362338    2.66632284852118    3.07425656627788
S         4.52149988375981    2.42368977342340    5.64761613748222
S         1.81703243591454    2.72307930649656    4.73238090799305
Cl        3.54344955538749    2.26971536229482    9.01175725730369
Cl        0.52148690820881    2.57945447402168    7.98732713003683

