97
CSD_code = ABETIL | q = 0 | S = 0 | Stoichiometry = C47H43CuNP3S2 | MND = 4
Cu        0.79702175103617    6.65952144151239   21.98799380139313
S         3.41780582078657    6.97597116169992   22.41366966012706
S         0.51970246144557    4.46765830187173   23.20851175392735
P         0.32916096250892    7.85705343894387   23.82948559424184
P         3.11526289918523    8.78021519118977   23.13327749717043
P         0.15894833131842    5.06908035931219   25.04688763900904
N         1.93461166354093    5.10702765197860   19.80577854324510
C         1.70806715929708    8.90791302217825   24.23250679388464
C         1.83684364550259    9.33371867470692   25.56274615559923
C         1.16637269086171    8.70680691824751   26.60853963764652
H         1.25645194972945    9.13756610280383   27.59663843415929
C         0.60516758963221    7.42804616707534   26.51385692137983
C         0.22960210107299    6.84834042125355   25.30366880905748
C        -1.11095370802586    8.98544634873041   24.05395952821860
H        -1.08476630378572    9.43608670752467   25.04712903015223
H        -2.02895088729126    8.40798682886972   23.93377684834208
H        -1.08945346331404    9.76785035381838   23.29482149882808
C         2.91560863513977    9.91541630219601   21.72640466215309
C         1.70612918175517   10.55092229341266   21.48946730172543
H         0.89511018253930   10.42323053553962   22.19533613903139
C         1.54790622247912   11.33239252813276   20.35922509366827
H         0.60670727690756   11.83006148549459   20.17499513080567
C         2.59490051199477   11.47301058698011   19.46378265242862
H         2.47172615169918   12.08615278452869   18.58304698245552
C         3.79645474662130   10.81691291261768   19.68665474560020
H         4.60637629234478   10.91635739198938   18.97855801264421
C         3.95572107065292   10.02890979065842   20.81002360587340
H         4.87673236689223    9.48794133348611   20.98654495467237
C         4.61415033507516    9.26946598753673   24.03508929103613
C         5.33939396843900   10.42212081972722   23.77091952363281
H         5.00140718861349   11.11554816010026   23.01382441405111
C         6.48866301737916   10.68376111542134   24.49515812702547
H         7.05401145382401   11.58189218305676   24.29295342269704
C         6.91373430599169    9.80358766897296   25.47570027975605
H         7.81115298466472   10.01620976299890   26.03803213366651
C         6.19254030811340    8.64844595286868   25.73379563506305
H         6.52603403646384    7.95948719231549   26.49628827309748
C         5.04779299666356    8.37862251208269   25.01109398878753
H         4.47654898941044    7.47641898334051   25.19077833937563
C         2.70409940092204   10.48316377725616   25.84755051441305
C         2.69500451559874   11.57304937261089   24.97910372594646
H         2.04763596250768   11.55584313401151   24.11356903948852
C         3.48638517014309   12.67836870378019   25.22595789870619
H         3.46422973432184   13.51691005529332   24.54443937928896
C         4.30532799862763   12.71055492161163   26.34124756727538
H         4.92857771065306   13.57166788968492   26.53285500235018
C         4.32113442185148   11.63350224808099   27.21219789657275
H         4.96210489726174   11.65266602544064   28.08182469082242
C         3.52347162723677   10.53160862517347   26.97312045247227
H         3.55322553536789    9.68825274519214   27.64772222813308
C         0.48009381815392    6.66751367797727   27.76985940878909
C         1.59462142037407    6.51260539806154   28.59187985791878
H         2.54058206822112    6.93522437473115   28.28341875292035
C         1.50316103409644    5.80059635571865   29.77137968190997
H         2.37781190747383    5.67650370958247   30.39359210032752
C         0.29303038373168    5.24662897222036   30.15695276878468
H         0.22158604620154    4.69044234976722   31.08037295208717
C        -0.82457756244595    5.41591919571121   29.35885882663439
H        -1.77500959690009    4.99813037950115   29.65992512277364
C        -0.73343783217886    6.12162961261203   28.17214344021401
H        -1.61597772003204    6.27379831634047   27.56964544058988
C         1.36721763334806    4.30955267819314   26.17415949453539
C         2.69539495211378    4.58936406238194   25.86759428596627
H         2.91850200407694    5.20100417523334   25.00065818113065
C         3.70795083752670    4.07991283263759   26.65559450135531
H         4.73919998299432    4.29972046963719   26.41953040362783
C         3.39584127682775    3.28137531705864   27.74520955917297
H         4.18591004973644    2.87871537616329   28.36234015923259
C         2.07422756892938    2.99438388009998   28.04241312811440
H         1.83357804681815    2.36991960324315   28.89056653815506
C         1.05377945644728    3.50731762890712   27.26128861422711
H         0.02254407724040    3.30046447949962   27.50799097800871
C        -1.50368109286237    4.44622480957736   25.44130120378295
C        -1.70880706054151    3.07446444646006   25.53300116111111
H        -0.86337183112771    2.40385193899244   25.45491550504639
C        -2.98942811984316    2.58193522464319   25.69976833578851
H        -3.14958281613617    1.51667513023138   25.78250838731667
C        -4.06839076665154    3.45110295423331   25.74761284491748
H        -5.06841372170752    3.06306180396269   25.87495738286354
C        -3.86863134937914    4.81496777179098   25.61067917318742
H        -4.71234464981528    5.49019023916364   25.62356423160475
C        -2.58844116061020    5.31246405991136   25.45056785292178
H        -2.41769398604650    6.37512652427044   25.32972465229777
C         1.24743421834632    5.89803273255148   20.31318617493758
C         2.86351910639168    4.13011362148428   19.40786202692246
C         2.78092886583644    2.99158889764404   20.42861619599381
H         2.98655612030271    3.37311577245819   21.42573691894752
H         3.50555779616157    2.21960519196252   20.18328914635077
H         1.78421635959424    2.55667567224518   20.43485692231465
C         2.49915851662004    3.64569921396864   18.00248019747409
H         1.50434789059003    3.20588029888692   17.99806787590838
H         3.21453100839354    2.89502053708754   17.67724811928723
H         2.51647758770591    4.47386661520274   17.29711597899577
C         4.24766695115298    4.78463312578477   19.42945901092654
H         4.30426809189697    5.58289477670902   18.69263972916919
H         5.00965891105037    4.04268113914071   19.20633154614551
H         4.43934141741186    5.21005978346019   20.41222597777606

