84
CSD_code = ABEWOT | q = 1 | S = 0 | Stoichiometry = C36H44ClP2Ru(1+) | MND = 9
Ru       -7.72391583829090   -6.77593510621969  -10.20998337351865
P        -6.22494903469180   -8.17723665465736  -11.15332402808597
P        -7.76602004889111   -8.75277619006765   -9.11657741155737
Cl       -9.30921701232939   -7.71546359169388  -11.66944519265611
C        -9.13703415716538   -5.00829280639531   -9.83989129218478
C        -8.29456863861959   -4.68500271724688  -10.96585241691934
C        -6.89566070969633   -4.64693511184328  -10.80945615496983
C        -6.31166684632209   -5.18573959865675   -9.61476799810512
C        -7.14561790578311   -5.50363219839738   -8.50010226250494
C        -8.56030541989495   -5.28185106060862   -8.58486998771949
C       -10.62701326327737   -4.93204560733449  -10.01562244143417
C        -8.95164551144831   -4.28848225358822  -12.25717950023946
C        -6.01006108512766   -4.03197225419073  -11.85944063004929
C        -4.80989907159202   -5.23515296486640   -9.51857328738743
C        -6.56750442184419   -5.90668747891641   -7.16956411369862
C        -9.39862600351013   -5.32130211369347   -7.33566020020647
C        -6.94702265485637   -9.85195661705940  -11.49218126016381
C        -5.68495016550698  -10.68227965209112  -11.52277902632688
C        -5.57256981338625  -11.88557521277067  -12.39616653791726
C        -4.73522528398299  -10.24500161592057  -10.68825278711732
C        -3.40671836690620  -10.89520462350829  -10.48610584556829
C        -5.14466472129713   -9.02290634049638   -9.89615627919612
C        -6.06661351971629   -9.36967129602648   -8.68291783129235
C        -6.34106757921835  -10.85640406761416   -8.56406382044946
C        -5.53624707474408  -11.65268216049671   -7.59238334139836
C        -7.28935703631758  -11.28848194519770   -9.40077403160779
C        -7.81125352946658  -12.67231953468101   -9.57224455416674
C        -7.86572635957837  -10.19453718557455  -10.27558332483365
C        -5.27447795310083   -7.72130858922726  -12.60736888544847
C        -3.88756408744648   -7.74657912100424  -12.69868417634187
C        -3.28089538776003   -7.33384225587358  -13.87233279896642
C        -4.04825003570478   -6.89387040911832  -14.93997367371143
C        -5.43201587040585   -6.85772709551815  -14.84349256362211
C        -6.04791652464597   -7.26307298877072  -13.67463692300524
C        -8.92786996837360   -9.07643572741553   -7.78577622060912
C       -10.26629756122865   -8.89707290848393   -8.13808746651814
C       -11.25538716674243   -9.08381508281197   -7.19142759030818
C       -10.90882974518275   -9.43193067786303   -5.89350385633873
C        -9.57756995501163   -9.59024772176585   -5.54058498300706
C        -8.57917349458668   -9.40885817986864   -6.48205571045774
H       -10.94011365759683   -3.89669211122963  -10.15458726156237
H       -11.15652821124971   -5.35174045200358   -9.16618656321909
H       -10.92966053867954   -5.49597519567887  -10.89764063703513
H        -9.48375462997586   -3.34427033180147  -12.13767740506921
H        -9.67596198660151   -5.04665724972629  -12.55557854112666
H        -8.23413972046461   -4.19140186302118  -13.06547043320115
H        -6.53637488531768   -3.24034662640509  -12.38626851972919
H        -5.67818435833914   -4.76970670452495  -12.59181661027781
H        -5.12942091226701   -3.59138394754334  -11.39995739986442
H        -4.42204355522778   -4.25102597866717   -9.25064263027087
H        -4.37441130418243   -5.53283641536728  -10.47170053974125
H        -4.47223390445962   -5.93832660176517   -8.76367927046610
H        -6.43323930232908   -5.02566626648589   -6.53987025015936
H        -5.59975167009655   -6.38743218951255   -7.27483918436815
H        -7.23159979383136   -6.60208045602328   -6.65814106345009
H       -10.25299280031430   -4.65611415000860   -7.42960845405138
H        -8.81656099453952   -4.98992103388161   -6.47991176268157
H        -9.76821601194976   -6.32661606477885   -7.12706420427035
H        -7.50525136337010   -9.88819201873010  -12.43152116367245
H        -5.30511485963019  -12.76157173161601  -11.80704969442888
H        -4.78897608192954  -11.73932505654802  -13.13923522371372
H        -6.50542867060635  -12.07971236497091  -12.91660084168810
H        -3.53471245952695  -11.90585939724406  -10.09988798613760
H        -2.79179713356299  -10.33274466587570   -9.78890601840318
H        -2.87596430198299  -10.97566550275509  -11.43400051367135
H        -4.28837869991166   -8.42433967986857   -9.57561528278385
H        -5.66388023297190   -8.95021285642649   -7.75784467242758
H        -5.58960679618568  -12.71487560707832   -7.81019249521400
H        -5.90300277850381  -11.49905422611384   -6.57714700471917
H        -4.49407597751095  -11.34061064064506   -7.62058927123513
H        -7.22461123770019  -13.39668582236121   -9.01622888248745
H        -7.80943330870000  -12.94681183404603  -10.62531131969241
H        -8.84157907089504  -12.72195926626646   -9.21992668213283
H        -8.88671897710694  -10.40920332238517  -10.60177176108776
H        -3.29370225007599   -8.09323489759024  -11.86609483930378
H        -2.20481432326669   -7.35506125829753  -13.95526977349558
H        -3.56534722739660   -6.57443855024262  -15.85064064383731
H        -6.02415170354071   -6.51159440874830  -15.67698333223903
H        -7.12708035708114   -7.23705618443692  -13.56517729394970
H       -10.50512554524887   -8.61185110689709   -9.15711360695566
H       -12.29326631312164   -8.95642846194138   -7.45912865772207
H       -11.67993783183994   -9.57590136954145   -5.15244241836735
H        -9.31694872772043   -9.85531353833267   -4.52712738228109
H        -7.54093670944952   -9.52951387512354   -6.21060872818427

