98
CSD_code = ABEYEL | q = 0 | S = 0 | Stoichiometry = C47H47NP2Ru | MND = 8
Ru        7.35295958848827    3.55448308404366    4.29922064657806
P         8.98801906818824    4.98630796797930    4.96753862824287
P         8.79537712107004    1.81129212218173    4.20605769176255
N         3.95574925757055    2.55836162145875    7.86751409931904
C         7.14595938836055    2.80051926581854    6.17936986751886
C         6.17634010810921    1.79880128850515    6.84865633404917
C         7.45206476498844    2.40462566750109    7.39688892414840
C         8.21051208822272    2.34089403982699    8.59741163737748
C         9.10876411134426    3.35837355508141    8.93614723410496
C         9.85095502433260    3.27739347669823   10.09610156430859
C         9.71506124595926    2.18602452434145   10.94062971092250
C         8.81671403950024    1.17906950117812   10.62227152010888
C         8.06664741505904    1.25370988045982    9.46660781429992
C         4.95485674081702    2.22475519654329    7.40374296584567
C        10.65485524902877    4.38981048293841    5.55901941824041
C        11.16308073460437    3.08122730009483    4.96271055684791
C        10.26742972792441    1.89855638212017    5.31836311846009
C         8.59452770605712    6.07554037960247    6.38604803692788
C         7.35125553334735    5.95360142034615    6.99294372583428
C         7.02210173041909    6.73333913411481    8.08777007831710
C         7.93728574611536    7.64577190748563    8.58381649256409
C         9.17873425711380    7.77853586508608    7.98019388869293
C         9.50903682493579    7.00011119617012    6.88696001088783
C         9.54624095824255    6.24571870867779    3.75517243047332
C         9.08734242469293    7.55901880991494    3.79157007297754
C         9.48404446561327    8.46836358547321    2.82639923728605
C        10.34035881675598    8.08079972866627    1.80974846829310
C        10.80482650604652    6.77618986325759    1.76596236321616
C        10.40778570213724    5.86692783369434    2.72856239941242
C         8.16471996327910    0.14551594317915    4.61382207054243
C         8.32638157561459   -0.45137326494523    5.86036865155047
C         7.75914438499659   -1.68784912500024    6.11828727411038
C         7.02030130084498   -2.33835099181980    5.14442470923875
C         6.85259186317372   -1.74975077010191    3.90117965159333
C         7.41979739922880   -0.51692660420519    3.64080486452510
C         9.67036329826866    1.42845353044411    2.64236557984612
C        10.31469363640963    0.21599780337396    2.41929108038498
C        10.99969729774815    0.00618901687381    1.23663256248134
C        11.05310380048669    1.00080879441224    0.27196949390293
C        10.41800164298341    2.21170081632841    0.49055182425325
C         9.72858906129274    2.41991030560891    1.67189797726647
C         6.16351674251343    3.09503333703953    2.40265595629293
C         6.61541602805920    4.44055695764074    2.32910335141751
C         6.01906544004724    5.15831612606911    3.42653105591030
C         5.19991843455404    4.25468678609447    4.16278870776497
C         5.32879846845297    2.95819076064890    3.56620613866642
C         6.25526389720410    2.10141137678049    1.28106583040578
C         7.22070947775038    5.09372891374898    1.11842152787122
C         5.92538224143227    6.65266150353315    3.52322628762952
C         4.14947274328067    4.68428423806794    5.14195704916288
C         4.44412105702537    1.78164127638942    3.86077565677863
H         6.15723649610953    0.75957717524531    6.51505443364361
H         9.18648591571715    4.22078164725435    8.29020639359731
H        10.53696062104948    4.07391573711068   10.34910343107545
H        10.29818683461898    2.12596291069912   11.84782117809773
H         8.69919245661512    0.33315656377714   11.28485867033920
H         7.36011238997469    0.47287089755850    9.22092090217123
H        11.38058842499690    5.18646731997787    5.36520170331344
H        10.56590765106885    4.26272456020046    6.64173575157331
H        11.25076604031779    3.15492029942578    3.87537181555052
H        12.16845294718842    2.89984019453176    5.35734638298334
H         9.91473182143450    2.00201788645742    6.34822252263752
H        10.81973643687133    0.95826574254486    5.21356226137082
H         6.65421516638500    5.21857272693811    6.60922919213799
H         6.05551959719552    6.62166737841740    8.55640005843018
H         7.68709554179263    8.25387364389183    9.44062201673235
H         9.89245827889806    8.49263725739348    8.36549931300623
H        10.47494156383157    7.11608644993538    6.41501055382526
H         8.42732058525131    7.87565218236434    4.58605308540931
H         9.12148904765233    9.48544343323607    2.86926292416139
H        10.64604050870534    8.79168467367165    1.05640634652028
H        11.47667294035330    6.46634649625702    0.97827516374817
H        10.77255892375210    4.85123785259051    2.68672803068552
H         8.88395884192432    0.04927487350521    6.63750341555873
H         7.89105812915190   -2.14301690871665    7.08938252216076
H         6.57533744020334   -3.29998739003616    5.35308350211881
H         6.27812868020793   -2.25330311092934    3.13660432045582
H         7.30611610799960   -0.05826288074646    2.66829486197960
H        10.27196302008373   -0.56291304283136    3.16834507122540
H        11.49659612793322   -0.93756471439367    1.06434896324230
H        11.58966012649360    0.82962047950993   -0.64967054165732
H        10.45843340950700    2.99001423279441   -0.25845297715862
H         9.22179340382890    3.35719131677021    1.86617004246994
H         5.76970199730728    1.16722139746576    1.55327196300953
H         7.28414199410461    1.89150857373812    0.98653378797803
H         5.73627246031133    2.50833596135636    0.40987242265423
H         7.99862307804819    5.80927988732147    1.38440918632809
H         6.44169324723327    5.63458412764721    0.57447681660647
H         7.64778576333028    4.35313948821962    0.44524837402812
H         6.69724326864396    7.13367139986371    2.92702725031844
H         6.01308136431134    6.99824880385399    4.55308035219886
H         4.95094035949981    6.97114160188228    3.14423540360281
H         3.95452809073364    3.93274477263776    5.90162667287116
H         3.21790389920990    4.86285778907520    4.59831174255585
H         4.42920140115131    5.61069372744434    5.64007131044869
H         4.98711524724351    0.83989343880865    3.77554945137754
H         3.60809438719192    1.76242460486577    3.15689283629601
H         4.03682186487651    1.84823802199320    4.86726487970429

