108
CSD_code = ABEYIP | q = 0 | S = 0 | Stoichiometry = C50H53NOP2Ru | MND = 8
Ru        2.89230558464560    0.83842331758108   18.62775171377841
P         2.19665792786847   -1.35072883604013   18.42594858115200
P         5.04489219279858    0.16875135728895   18.78559167762876
O         2.56048989386939   -0.87965834091191   20.93225811632606
N        -0.61468372413798    0.63844701732279   22.92738226486918
C         2.74288860232503    0.47568936618519   20.67718445459643
C         2.50774675693205    1.19553693554089   21.79996386187938
C         1.94178177140939    0.26399640315011   22.88455909897408
C         2.36316153435116   -1.11500513370725   22.34173895812727
C         2.82023891698815    2.55740803787895   22.17813667506961
C         3.97152200422426    3.17365247942170   21.68627605259436
C         4.36041213959100    4.41857988032031   22.13851033866198
C         3.60385000075354    5.08530722926257   23.08909226204478
C         2.45261420498726    4.49071327171416   23.58033757547972
C         2.06816563674455    3.23904611569438   23.14084198815703
C         0.51608686534309    0.45276193758100   22.93368719916714
C         3.70187832186318   -1.51543901041396   22.97517661634776
C         1.33739842964772   -2.22197038453013   22.55567496649619
C         3.27265784458343   -2.80189715846143   18.89266969182745
C         4.78085663057380   -2.62515180562255   18.72371727698942
C         5.36679980113553   -1.48479803640660   19.55130389884343
C         0.61934493181718   -1.84361806868995   19.21702699385202
C        -0.15788042555536   -0.85987287664019   19.81280714516578
C        -1.39672493702406   -1.16230450165103   20.34991576012153
C        -1.86540297267328   -2.46462389297077   20.30216945721900
C        -1.09253574236724   -3.45534107757064   19.71689225257064
C         0.13974197413036   -3.14871853126539   19.16893398582298
C         1.73084627586766   -1.90654073607562   16.72932484918791
C         0.40632061232826   -1.82135120901433   16.30504879872477
C         0.04032472661363   -2.20781337844337   15.02792504917331
C         0.99359828778499   -2.68268989488641   14.14320012804055
C         2.31286277126523   -2.77569629821025   14.55232982383892
C         2.67608406961317   -2.39264303883423   15.83076726762629
C         5.99789359603860   -0.09679533299207   17.24122716058059
C         5.28474203621771   -0.26989180537661   16.06253580085359
C         5.93852612418562   -0.54514135847967   14.87439939432614
C         7.31963893151251   -0.64229427555082   14.85833433809762
C         8.03901624586394   -0.47086405455399   16.03118431251523
C         7.38458371155339   -0.20431280910201   17.21986290487589
C         6.24001088563795    1.20467573825237   19.70194483870296
C         6.76927849249193    2.32303844632616   19.06146197109074
C         7.59643386778930    3.19904819860240   19.73814781670831
C         7.90194703662771    2.97322548435994   21.07058322219782
C         7.37838863291302    1.86678287326979   21.71794285341289
C         6.54906447616677    0.99035977168434   21.04141960121757
C         2.10877168466129    1.69608394295976   16.64099441707990
C         1.08411113085065    1.81222426455154   17.65312393240460
C         1.56552151981097    2.69136699696416   18.66734929119871
C         2.89665921716899    3.08843989990289   18.32110255789521
C         3.20732308520438    2.48894327423869   17.04740543992714
C         1.87321178910606    1.22127527095915   15.23648009995682
C        -0.37037915546668    1.53999712304405   17.39970326788811
C         0.69759553114874    3.30173491557712   19.72683374010876
C         3.60630804231009    4.31230974690579   18.82386482172231
C         4.31529888184609    2.94853452159056   16.14537012807518
H         2.36375040596192    0.46430477577184   23.87421981738622
H         4.55691731867924    2.64522106833590   20.95096663829476
H         5.26518232987196    4.86819654648262   21.75268581018913
H         3.90947155366553    6.05787125205310   23.44687854784043
H         1.85286769811881    5.00480689509608   24.31842968141228
H         1.16585489612011    2.79201973979037   23.53396753680485
H         4.42592764166954   -0.71312913607542   22.84485687458665
H         4.08209139485894   -2.42294662483105   22.51024008142049
H         3.57280059487998   -1.70062039082883   24.03921580567125
H         0.37749228754302   -1.95151426737233   22.12658969372280
H         1.20760073912984   -2.40206228933862   23.62060102495521
H         1.67930167255779   -3.14009662878226   22.08288353928143
H         3.05128770271996   -3.01353294237896   19.94062513276120
H         2.94995872924327   -3.65655403550853   18.28987685744049
H         5.03569866883613   -2.46510972257573   17.67297302744909
H         5.25972713310713   -3.56248776721436   19.02995442309400
H         6.45231009378829   -1.60768129889245   19.63893970177074
H         4.91876855627232   -1.48787182639515   20.54454783689276
H         0.24051827798175    0.14508003601538   19.87500440017908
H        -1.98363589336001   -0.38853476577135   20.82178831613021
H        -2.82963741385234   -2.70895701670644   20.72293387485335
H        -1.45629869919609   -4.47250827458791   19.68206808969092
H         0.72203514039421   -3.92555496544821   18.69430121720447
H        -0.35113804715429   -1.46570791571291   16.98848876125557
H        -0.99442655395399   -2.13777603896770   14.72354322245091
H         0.70921384308357   -2.98250699375488   13.14535838423838
H         3.06460297112174   -3.15331458759810   13.87364534985372
H         3.70870137168831   -2.48365801315740   16.12923158840579
H         4.20457364841192   -0.19243012422438   16.10227223627531
H         5.37220559158672   -0.68269895556083   13.96383137491451
H         7.83731820307639   -0.85224029415554   13.93380182038515
H         9.11661840285907   -0.54890801852580   16.01748420829770
H         7.95028147102657   -0.07243483032738   18.13210903947613
H         6.53618721146293    2.48669374833309   18.01810101063136
H         8.00290773300607    4.06109023525174   19.22808772434285
H         8.54461894241026    3.65877479898938   21.60288343955936
H         7.61261342843363    1.68996603665496   22.75763227176247
H         6.13409137455762    0.13918438904422   21.55928193438715
H         1.30345586006690    0.29533803780702   15.20398202054981
H         2.81099732374002    1.06779759665254   14.70623889362090
H         1.30423342033290    1.98348665114164   14.69711788806527
H        -0.50620091703783    0.71252188964844   16.70873233369433
H        -0.81348531866170    2.43139631635849   16.94638562999413
H        -0.91805529643282    1.32691131517010   18.31434688285157
H         1.28993006591473    3.81486750676950   20.47933412669317
H         0.08775949616020    2.55487348363382   20.23369884358867
H         0.02379821706711    4.02606855333772   19.26207772452368
H         4.66939332118403    4.13560840925218   18.98176869590397
H         3.17800090098227    4.65856036415916   19.75909716323000
H         3.50058670486299    5.10946273900291   18.08319101855682
H         5.07187627366002    3.49433719860402   16.70337235431656
H         3.89675881520889    3.62547777554760   15.39593167858050
H         4.79864404040012    2.12642839406287   15.61950775935998

