44
CSD_code = ABEYUD | q = 1 | S = 0 | Stoichiometry = C16H18N6O3Re(1+) | MND = 6
Re        2.29510419811739   10.06457071802151    0.52489572993112
O        -0.15502787783800    8.49219746079759   -0.51933250836388
O         2.53896366713194    8.52442188604144    3.19474508922753
O         0.48791391858180   12.16111476678182    1.90511310861360
N         3.82136469413842    8.70185487032847   -0.50168687527574
N         2.88403910421419    6.68493824513688    0.20176911415819
H         2.11282053402339    7.16719560199770    0.63423638421198
H         2.88376930877869    5.68079940052584    0.19739024355043
N         2.18521580673100   11.16808663807450   -1.40833675863437
N         1.61322234920800   12.70805685606067   -2.86878313792911
N         4.09253429551771   11.23502499127055    1.07472548818105
N         5.99363210826016   11.76243157658393    2.04137798541256
C         0.75089666874701    9.05684532323973   -0.10794455534809
C         2.43877638193231    9.08733730901640    2.20240452154615
C         1.13794935940705   11.37417217260971    1.39280914437690
C         4.80697061398132    9.31785536757761   -1.17579862607655
H         4.76887214426518   10.39921173247852   -1.20979237792788
C         5.83138010157516    8.66815807106821   -1.81758600414238
H         6.58679369168525    9.22965739640092   -2.34095635816174
C         5.86210175625221    7.27362045971975   -1.77598286876364
H         6.64972160726659    6.72464501095343   -2.26689135081368
C         4.86660954752374    6.62025229129435   -1.10020323016513
H         4.84251958520159    5.54408889120168   -1.04092036331894
C         3.84320649797074    7.35413425560883   -0.46292311148022
C         1.73427676540506   12.39901440520634   -1.57115788562932
H         1.47124832737830   13.07374565389890   -0.77843126938694
C         2.35229245750586   10.66323827293522   -2.66367651395994
H         2.69765218338700    9.66386962194952   -2.84059190314566
C         2.00378690243930   11.61261106995351   -3.57737585118693
H         2.00203385076909   11.58913061929622   -4.64688990704617
C         1.13546413425167   13.94447392557754   -3.42317384128438
H         0.92979942755509   14.64982756162073   -2.62063840121455
H         0.21775007504643   13.77310263219552   -3.98780833288680
H         1.88214766593380   14.37131034288751   -4.09429165446429
C         5.05447930393098   10.82160196889335    1.87955541782774
H         5.09476851189879    9.85908129985393    2.35310928417965
C         4.43318195347459   12.50111226001310    0.70529577298759
H         3.82508403111311   13.08926206285988    0.04722519486812
C         5.61226029230775   12.83918138659451    1.30040773203125
H         6.18896675537894   13.73921138025983    1.25439031533046
C         7.16331105561143   11.67953721708813    2.87157291672035
H         7.04262292905581   12.30368144973974    3.75911558530014
H         8.03889374685158   12.02309173781735    2.32047404155409
H         7.31722956799042   10.64864383857491    3.18406061660583

