106
CSD_code = ABEZUD | q = 1 | S = 0 | Stoichiometry = C54H42ClN6P2Ru(1+) | MND = 6
Ru        2.13676821831216   10.27277137614116   12.86923759759037
Cl        3.46355188767264   11.80531549436252   14.08978698168518
P         3.56299074187528    8.51837002732565   13.58013226154766
P         0.76337834584257   12.08261129238837   12.18845018547104
N         3.06167096289902   10.34535385228167   11.04706752050390
N         1.07189844063802    9.08309023309705   11.92834828244608
N         0.81409834460128    9.76045605630138   14.34551800618965
N         0.54862022297021    7.99462455221625    9.93265255123706
N        -0.74290552848920    7.62019577506791   11.88447785878506
N        -2.26595632176330    5.86677183192238   10.55156706115103
C         2.82807899653740    7.00125376514884   12.90055060139365
C         3.09623206828560    6.62800183755657   11.58441713365132
H         3.84938758478241    7.16233592291177   11.01766195214799
C         2.41046355565138    5.57495933646344   11.00644718228340
H         2.62948637194716    5.28835877092682    9.98882103744674
C         1.43574258022940    4.90117231651994   11.72501589086608
H         0.89523377258476    4.08616131057952   11.26922351434627
C         1.14807534592334    5.28036866689894   13.02605681467146
H         0.37974826812394    4.76565456040327   13.58173154510558
C         1.83198752801919    6.33151725799833   13.60960199326410
H         1.60186143483014    6.63262142072702   14.62423521680556
C         3.81446399634885    8.14582519779732   15.34462312990463
C         3.87842774529890    9.18955591151015   16.26212366176301
H         3.75059791970390   10.20845448674001   15.92597608586097
C         4.14068359203834    8.92362144045338   17.59452373679303
H         4.18864706267940    9.73688677542557   18.30274564489561
C         4.35248781609284    7.62166477960457   18.01514461872691
H         4.55600698173910    7.41419021326931   19.05455901941260
C         4.32066201917438    6.58372659781812   17.09673146156641
H         4.50648525879685    5.57007917088980   17.41863650857743
C         4.06044561938991    6.83985611402584   15.76389609527999
H         4.04926666223828    6.02637176679692   15.05240394974813
C         5.29719662726979    8.49135572088999   13.02809930250637
C         6.00259958102848    9.69121997730509   13.01203501123918
H         5.50452247068953   10.60715652848138   13.29847395025254
C         7.34182542862108    9.70182946861469   12.66609783084521
H         7.88514236246609   10.63454483804881   12.65405887806214
C         7.98590180846812    8.51766932490073   12.34845468992567
H         9.03065519731361    8.52503652511344   12.07779257507046
C         7.29321784600898    7.31810117173482   12.39576212008889
H         7.79966033664080    6.39157730211518   12.17052694463719
C         5.95457307696467    7.29780441299630   12.74067452845157
H         5.42599755452585    6.35639731528582   12.78770486124673
C         1.41515471617127   13.59564300043332   11.41203707630793
C         0.55208436596537   14.37510925616768   10.64203873891275
H        -0.46669701268670   14.05313535680171   10.47610893274932
C         1.00139592928715   15.55812121545235   10.08935212916640
H         0.33147649072366   16.15734017229498    9.49117820011329
C         2.30498369105244   15.97884441871198   10.30720329851389
H         2.65050864657827   16.90506761951422    9.87411446822430
C         3.15496181983511   15.21880987162503   11.09159639354988
H         4.16352976697164   15.55408407065932   11.28002634790930
C         2.71310745453589   14.03100851704334   11.64938841516940
H         3.36450488569792   13.45929442634675   12.29310238039020
C        -0.31491861249319   12.83976485755062   13.44382816291716
C         0.28544211410841   13.17994979700673   14.65446756350163
H         1.33714244794329   12.97298032348212   14.80263841346042
C        -0.45126648125899   13.80720086937438   15.64172962091343
H         0.01824409929753   14.06922391201617   16.57778136272301
C        -1.78589704343872   14.10856951804698   15.42380609263413
H        -2.36387247100328   14.59561984823044   16.19420326058610
C        -2.37521329347432   13.80248444470609   14.20795864247885
H        -3.40841682700859   14.05911499438976   14.02792914463961
C        -1.64522459159735   13.17629628313433   13.21341565349554
H        -2.11234344516569   12.95916257021934   12.26363743349100
C        -0.34256200702315   11.41231200658999   10.90934285033038
C        -1.47376066784552   10.67912394961722   11.26558140233653
H        -1.77044705312648   10.61609539605653   12.30564936512254
C        -2.21583724012312   10.02779114481830   10.29692872513857
H        -3.08853457117841    9.46062804570664   10.58386070438963
C        -1.82796505343969   10.08646234544333    8.96771707871796
H        -2.40549889759589    9.57124326094115    8.21576221326617
C        -0.69525179454784   10.79783122455911    8.60794389857279
H        -0.38673274044961   10.83999282062179    7.57435252725021
C         0.05117948737288   11.44949298513396    9.57295284295308
H         0.93952179769461   12.00187443013480    9.29239908006054
C         4.12559013978434   11.04390083083388   10.65644046445083
H         4.58588512643699   11.67187279966277   11.40796213310805
C         4.63131706960046   10.98838150162273    9.37120293578619
H         5.49550955031518   11.57819370038230    9.11289612527842
C         4.01451556968310   10.17038242623888    8.43044856577520
H         4.39022793426004   10.10857958177198    7.42147788047709
C         2.90860625385593    9.44018982075182    8.81955523431370
H         2.37721209322742    8.78651061736073    8.14725104754610
C         2.45243358028458    9.54691056837537   10.12965212464418
C         0.74018527820793   10.16612694383526   15.61079438291929
H         1.49293751633239   10.87462656482824   15.93045819551300
C        -0.23299481164173    9.71997767931960   16.48626124373101
H        -0.24336022463915   10.08514111030454   17.50012860422108
C        -1.18335528787127    8.80662742846847   16.04358162021092
H        -1.95292687010356    8.44522978008407   16.70696165461656
C        -1.11750076526669    8.37137713065378   14.73375252936987
H        -1.81367271589115    7.66263437330259   14.31443495841425
C        -0.11013379541611    8.86361259681783   13.91028862417773
C         1.29905156154161    8.81881700284025   10.63230792038632
C         0.03536937057829    8.46662717717954   12.51908332807606
C        -0.45919382646944    7.40887415226742   10.59588460384396
C        -1.30795630179547    6.47984823022163    9.85870146314344
C        -1.10629511146746    6.26401087817617    8.49389039021418
H        -0.31621063424347    6.79095939384574    7.98490735888182
C        -1.93945121282558    5.37461779559275    7.83798156087803
H        -1.81523186876746    5.18221748552165    6.78225582073516
C        -2.93574921532095    4.73643230042912    8.56066181949228
H        -3.60652774166647    4.03669446720324    8.08823042104329
C        -3.05125574234711    5.02268489422196    9.91758057964505
H        -3.81290261283637    4.55077711780181   10.52398819580208

