106
CSD_code = ABIBAP | q = 1 | S = 0 | Stoichiometry = C54H42As2ClN6Ru(1+) | MND = 6
Ru        2.11630769187161   14.73637003804990   12.90722054286792
As        3.65472521653298   16.44500267446675   13.67534537490449
As        0.74385984354269   12.84436629714126   12.26573629779246
Cl        3.43218881970083   13.19071841150004   14.13128009961395
N         3.04389588867294   14.64383986337278   11.09476253070309
N         1.07431033126465   15.93407445881121   11.96465202446498
N         0.80472127749102   15.26936574337013   14.37895734500850
N         0.57500786084144   17.03236976078907    9.96565691463143
N        -0.72506309780916   17.41905276212389   11.90979099458464
N        -2.22327026992721   19.18590957023967   10.56434618164853
C         5.51539855565554   16.44738630061339   13.10380181865783
C         6.21028427713614   15.24179943541654   13.08714312866603
H         5.69602389599845   14.32750909583101   13.36601527779356
C         7.55199450657129   15.21809825169287   12.74635093186728
H         8.08832320392827   14.28090910574412   12.73575356018376
C         8.20731392585682   16.39638313896803   12.42916915494668
H         9.25298289002737   16.37823023560592   12.16217783294582
C         7.52582421862938   17.60235986803927   12.46899234171504
H         8.04140697792275   18.52298108982526   12.23917912344106
C         6.18488433640293   17.63213809434502   12.81046038764383
H         5.65262554021602   18.57754422222343   12.85377901283137
C         3.93777884411726   16.83292938919275   15.56220358147687
C         4.00522295384191   15.78739749903018   16.47713084157679
H         3.86784923098759   14.76755306347447   16.13425495677655
C         4.27476015838202   16.04832525239491   17.81028606322084
H         4.32751009320736   15.23348297458690   18.51686132475115
C         4.48560295071613   17.34956625771881   18.23413023131306
H         4.69435230806725   17.55255334733020   19.27344481544853
C         4.44354447642383   18.39203384038049   17.32175403123251
H         4.62437975485699   19.40518439086490   17.64869392844177
C         4.17678746214848   18.13710794240939   15.98825191606438
H         4.15442808475592   18.95113075768845   15.26969228150380
C         2.91992629686342   18.09089361815369   12.96128091079187
C         3.17904521722045   18.44891899206889   11.64032676337258
H         3.94604821909518   17.91393312818135   11.08389096508284
C         2.47242581748793   19.47648444802239   11.04020822231252
H         2.68341821598547   19.74796729528742   10.01635266717023
C         1.48311739571838   20.14209007374854   11.74597956267015
H         0.92242132526007   20.93393556135417   11.27362909367108
C         1.20446051795983   19.78291111180401   13.05453963535972
H         0.42414551778815   20.29157824009370   13.59979164263884
C         1.91194319368504   18.75645564300588   13.65531958080773
H         1.68901532393776   18.46327840556057   14.67904878980678
C        -0.40887481673460   12.01618942082374   13.59611902877360
C         0.16674122048452   11.68595640151374   14.82057666885543
H         1.21642196528745   11.90865139229453   14.98920664620350
C        -0.58574986307238   11.05656416211439   15.79644601841988
H        -0.13494545448950   10.80064163629925   16.74375677709753
C        -1.91408483146408   10.74714656124165   15.55290697873033
H        -2.50304556931413   10.25782157065642   16.31362403065891
C        -2.48405582983259   11.05047100316624   14.32727928817844
H        -3.51404373762065   10.79219631344650   14.13105537825645
C        -1.73514956911919   11.67895796631649   13.34659740027009
H        -2.18005669330547   11.90378888106273   12.38258348818726
C        -0.45365839374528   13.54493732060678   10.90976855958817
C        -1.56430010397800   14.29963850775284   11.28110779010742
H        -1.86087001766472   14.33587008341907   12.32724998340502
C        -2.28544490358271   15.00314077562204   10.33251384371729
H        -3.14130453304655   15.58914894909676   10.63302191518574
C        -1.89485277872318   14.97267443811390    9.00323189892015
H        -2.45233053024879   15.53011347551384    8.26608840771804
C        -0.78457728724475   14.23664379580365    8.62420250009366
H        -0.47466231397637   14.21651385581005    7.58990923421664
C        -0.06138035437280   13.53575149699207    9.57366557922657
H         0.81722706047303   12.96401816625507    9.28242105178048
C         1.43547176851709   11.22228603007953   11.43714097068227
C         2.71618412628113   10.75998820661549   11.71455287493012
H         3.35613414991056   11.32182143393077   12.38489717980176
C         3.15716717135784    9.56813159351453   11.16173461895720
H         4.15216182851418    9.21125470726340   11.38184869394867
C         2.32229714867350    8.83207606837457   10.33891538863903
H         2.66716252654874    7.90392645923805    9.90930767318481
C         1.03660395301686    9.27936601601030   10.07524598021631
H         0.37996747095707    8.69905503641358    9.44462889747465
C         0.59099044755533   10.46724052163263   10.62513444476936
H        -0.41788661009147   10.81957062753416   10.42818407769572
C         4.09745290072667   13.92078659918679   10.71172791493424
H         4.53689924437161   13.28626369988180   11.47194860910371
C         4.61009923372231   13.96372057419456    9.43052933707650
H         5.46448406707913   13.35764084730503    9.17767118661678
C         4.01293885711521   14.79130207051950    8.48319449628906
H         4.39629701887196   14.84230965897888    7.47662712507057
C         2.91887496359976   15.54269073752692    8.86141512010164
H         2.40269843092321   16.20267480914105    8.18348198185198
C         2.45296301315914   15.45121005589334   10.16992101400716
C         1.31106081737014   16.19667080939502   10.66700612204450
C         0.04012627804645   16.56540250465353   12.55053015012811
C        -0.11149359690652   16.17678524776955   13.94143849420455
C        -1.10937359719305   16.68478997578832   14.76804923176886
H        -1.79802916580072   17.40041659517942   14.34810144583956
C        -1.17435445059350   16.25617847191451   16.07903295670729
H        -1.93669586992682   16.62938628213193   16.74408745269153
C        -0.23210058164701   15.33336635628364   16.52434644267529
H        -0.24386647627341   14.97462881683472   17.54050397458650
C         0.73195219849369   14.87156171586308   15.64956236959453
H         1.48097654501260   14.15597955388974   15.96604641186094
C        -0.43062109708028   17.62765111984398   10.62319883246403
C        -1.26449238216611   18.56516674667859    9.88003252795773
C        -1.04883047385541   18.77961886376114    8.51740194271801
H        -0.25807698231207   18.24676922476312    8.01566031497999
C        -1.86914425522624   19.67529540656805    7.85414660043642
H        -1.73367850815614   19.86661433006076    6.79996803255667
C        -2.86679000910684   20.32139569947820    8.56776644379673
H        -3.52771347033481   21.02643915896142    8.08926696702801
C        -2.99605048281779   20.03641086937526    9.92326689915696
H        -3.75849806400285   20.51490067307320   10.52330365146536

