27
CSD_code = ABIKUS | q = 0 | S = 0 | Stoichiometry = C6H14Cl2MoO2S2 | MND = 6
Mo        3.06829650070063    2.89028354514075    8.52909302506937
Cl        1.35140525434072    2.20263372051943    9.83525777460198
S         2.11516289894101    0.52295630556336    7.02529623591280
C         3.02961815132499   -0.87731501892818    7.77120539697344
H         2.54420851369208   -1.79214058612983    7.42786186512059
H         4.02284619226592   -0.81270966190403    7.32354941813342
C         0.38015581355835    0.14153519344215    7.48523891466055
H         0.14187241861655   -0.82858371795083    7.04822625185232
H         0.31014532734743    0.10844306484940    8.57163006265887
O         2.23359711078057    3.72468494437262    7.39276079835147
C        -0.50218291040714    1.24093162511954    6.92694462202402
H        -1.53508677818812    1.07174752667692    7.22057305203195
H        -0.44274829820731    1.26840606020218    5.84150252670104
H        -0.18355954535756    2.20833537805641    7.31684728258993
Cl        4.78601793391426    2.20286836914973    7.22374834481368
C         3.10702841419374   -0.87730946289704    9.28739290130637
S         4.02140159489684    0.52299759347825   10.03332443421493
O         3.90307811032505    3.72418402539584    9.66592412766484
C         5.75645106039318    0.14158277506613    9.57348153350924
H         5.99473940700577   -0.82850436926647   10.01056861328021
H         5.82651671070346    0.10841220389602    8.48709815795822
C         6.63878718294062    1.24099966626567   10.13175085713535
H         7.67170234834159    1.07180156486289    9.83818328796094
H         6.57930985778942    1.26854164270952   11.21718761007518
H         6.32018430697168    2.20837918436560    9.74177783750241
H         3.59245355150905   -1.79212672645153    9.63073436356540
H         2.11379887160730   -0.81273484560446    9.73504070433152

