113
CSD_code = ABIMUV | q = -1 | S = 0 | Stoichiometry = C36H72MnN4(1-) | MND = 4
Mn        9.64128206978636    7.62592041218558   11.64322737758838
N         7.89890933134665    7.63681151850771   11.66831954467321
N        11.38330912721672    7.60984816408998   11.65691793468790
N         9.65001577001039    9.36071484262254   11.79833200964574
N         9.63093350684647    5.89461399138000   11.44922469784940
C         5.86563969728068    7.96514322142551   10.38223291942215
C         9.62841045565600    4.65139188344588   11.30371086174100
C         8.89277957631092   12.72204363770449   10.55638577632938
H         9.10306101710580   13.46055068533814   11.32397949560443
H         7.84777999557874   12.42828223881288   10.63009406153414
H         9.03622260867587   13.20708746295780    9.58882823420007
C         9.80102551553446   11.48902442103771   10.63503861825039
C         9.79763873103202    3.73817639400729   12.55263561611929
C         6.64748993797427    7.65137827775257   11.69097722714773
C         9.64579720034112   10.60766784763381   11.90814440901652
C         9.86348782369092   10.20689951566960   14.37938869663331
H        10.93755913772087   10.03755183186308   14.36683933373057
H         9.37121786541101    9.25827411926151   14.16859212161993
H         9.57736801115029   10.55138202629057   15.37382822006806
C        12.63483821752126    7.58820529950619   11.66903437998383
C         5.90284869360449    7.35967329435667   13.02607020841231
C         9.47968349555301   11.24675721886198   13.31748355177497
C         9.46004460782826    4.04814203441496    9.87903098421752
C        12.41678456154074    7.16095404133271   14.13686087328270
H        12.85025616012299    7.34427601357403   15.12070590193707
H        12.19966704533291    6.09944917818112   14.04661182696405
H        11.47740286631560    7.70494841074900   14.04790270925609
C        11.27274878714984   11.91701233823122   10.51854502990487
H        11.46872841472202   12.34261781750909    9.53282545501486
H        11.91313699665164   11.04809850118909   10.65470362450000
H        11.53900287497654   12.66129588305228   11.26332992943861
C        13.40856960090425    7.54673995586194   10.31921260167866
C        10.35587520000093    2.84910697411478    9.54563018919843
H        10.20285278027283    2.57194652316564    8.50074074221822
H        10.14217168081285    1.97188915636683   10.14865583249825
H        11.40408396235884    3.11283356247631    9.67022557107863
C         9.42960251765730    4.54332049478681   13.80669448621674
H         8.35659787593288    4.71650541593189   13.83917008512967
H         9.92599009898687    5.51272649696832   13.78772127253384
H         9.72192349151729    4.00324724266217   14.70798370568814
C         6.78505641121365    7.70017938378361    9.18188136937705
H         6.34281553854294    8.09454471167975    8.26626944912004
H         6.94174291280360    6.63122183207195    9.05851714048829
H         7.75636898723042    8.16546678980928    9.34520362524012
C        13.38770127661406    7.59790455108655   13.03099224356932
C         9.79877904776660    5.12713497558674    8.84088877450684
H        10.86859274063407    5.32109004854512    8.83741459671637
H         9.28926483577827    6.05780389517902    9.08738305974974
H         9.50125386602632    4.80416226612301    7.84260104843651
C         4.69118136980561    8.24919353083987   13.32938736687935
H         4.30890590818551    8.00120951199040   14.32155298445333
H         3.87500769112033    8.11891414288069   12.62533623778712
H         4.98287472985060    9.29735911289774   13.33720343826100
C        13.82034471294319    9.04111919324877   13.33535530610230
H        12.97679334611991    9.71073625418938   13.18145410793768
H        14.63699326200506    9.36325121372182   12.69595525994911
H        14.14999883268057    9.12935257515941   14.37205093169042
C        12.48378433756341    8.05538795376722    9.20462055975478
H        12.32745382699382    9.12659397407827    9.30735633561528
H        11.51293133836652    7.56598002113733    9.27199378861447
H        12.92151559694475    7.86030475066909    8.22494617963521
C         6.87853112168946    7.56691324573459   14.19301051682606
H         7.08913714310983    8.62576925943050   14.32183129743848
H         7.82041417145185    7.05933074266194   13.98910393415403
H         6.45260162589892    7.18234192823308   15.12046279105641
C        13.75089279894202    6.08062537026420   10.00921077518309
H        14.09604657158389    5.97884610543917    8.97876608306621
H        12.86152351028086    5.46790179631538   10.14022327207212
H        14.53049320611841    5.70028038573221   10.66307903438036
C        14.59537564389976    6.65900453234385   13.13783651589932
H        14.98410508108393    6.69575428684207   14.15742116429280
H        15.40880235235794    6.92712753401991   12.47055332066878
H        14.29715560058445    5.63315255830365   12.93174407079384
C         7.98366193126274    3.66546279113718    9.68777488406407
H         7.77898846898736    3.44888492584407    8.63782203222516
H         7.35281592814603    4.49487757389305   10.00041294065057
H         7.71331853535735    2.78888994483661   10.26923200765248
C        14.67663666847853    8.40461270625473   10.23607682233253
H        14.44357449051170    9.44743407688190   10.44081140132662
H        15.07811477398185    8.34492353471127    9.22248542241289
H        15.46015007736354    8.08105831464116   10.91446591920374
C        10.34034145703664   12.48154682207961   13.60957118962552
H        10.18479779373117   12.78366081296897   14.64719595348268
H        10.09559727106376   13.33426752065596   12.98369715447494
H        11.39544783119586   12.24668382068920   13.48593003731987
C         7.99425577681281   11.58920889660935   13.51488104743210
H         7.79498498959872   11.83721768191320   14.55895182935288
H         7.38722805425119   10.72939164222059   13.23958372902625
H         7.68967324216306   12.43506129464714   12.90520426068379
C         9.46480516062831   10.64031900773164    9.40084899349168
H         8.39684896365485   10.44005749608529    9.36360434793979
H         9.98450355140637    9.68442596550823    9.45002171849119
H         9.75212578821514   11.16273714162761    8.48762039213826
C         5.51659060276705    9.46211167739533   10.38145020459289
H         5.16165994554651    9.77091478127394    9.39655987026870
H         6.40554762010194   10.03903469614900   10.62740231110757
H         4.74212030609528    9.69729142413161   11.10592020824173
C         8.92756981427767    2.47638935965802   12.59425296338890
H         9.08612837293863    1.96876189010191   13.54781130239867
H         9.16103974431560    1.76662187209938   11.80653998920306
H         7.87395001727610    2.73959064682326   12.52854623947090
C        11.28106875380397    3.35152387801915   12.66507123826463
H        11.89434996399302    4.24469225720719   12.56657739709850
H        11.57472134969521    2.64543189171495   11.89364772752666
H        11.48390436074663    2.89431200802102   13.63518812729444
C         4.59995043543873    7.13684143592170   10.13160316831677
H         3.81933512790169    7.31114284316704   10.86577821837818
H         4.83763720435919    6.07522836905521   10.11738688851795
H         4.19236722092927    7.40091876987343    9.15371592867997
C         5.47933108675017    5.88204795507145   13.03022859595376
H         5.15749214026497    5.58065361736480   14.02861896200998
H         6.32498397960075    5.26364678446400   12.73683761415838
H         4.65970449468736    5.69315509248835   12.34312826533116

