111
CSD_code = ABIPIK | q = 0 | S = 0 | Stoichiometry = C44H62N4Ni | MND = 4
Ni       -1.40182399597714    7.84338946037245    4.25062787566732
N        -2.31334866047769    7.08877647367219    2.75744598238351
N        -2.18449868297848    6.52771916493168    5.38142284520749
N        -0.64572255834802    8.69317945222071    5.77239063170171
N        -0.78551654267104    9.26258474957333    3.15355331625322
C        -2.87682398153520    7.81568057273509    1.72695988269846
C        -3.76840017028559    6.97330339030376    0.99948631825508
C        -3.69818318151697    5.72435831781277    1.58989022574679
C        -2.77791360052725    5.84352610881637    2.65888398065685
C        -2.33667548451959    4.80523839647993    3.64064104161145
H        -2.85910412522806    3.86397951905136    3.46994118517294
C        -2.65401414763920    5.34072054648065    5.00161815290817
C        -3.40236988755153    4.73007440136166    6.03425992086276
C        -3.38623848385923    5.61302184321359    7.09769908038005
C        -2.59167704749826    6.72449509834165    6.68662253926017
C        -2.12528459865885    7.76338044899374    7.47317414100554
H        -2.47214379333284    7.82655047142347    8.49401268567609
C        -1.14960753628920    8.65526864913876    7.05833357709624
C        -0.40305889310632    9.55306073860183    7.87589358441463
C         0.57853568694718   10.09509409817653    7.06695936040565
C         0.37413269868053    9.55158676658970    5.77738488859569
C         1.17440918870936    9.79995081201016    4.53843143437510
H         1.84729934434234   10.64660059017785    4.68723844179742
C         0.23827396676170   10.07744811609513    3.40646863330165
C         0.29622909067646   11.13186108795088    2.46424914465705
C        -0.77333611129875   10.94613869662714    1.60829921841902
C        -1.43248458308872    9.75717508563195    2.03725925365670
C        -2.46877199764890    9.09696456998278    1.39797137112880
H        -2.92577310572306    9.57388101026698    0.54330478702795
C        -4.63090265075138    7.40921812388050   -0.13711746775383
H        -4.98310008107667    6.53738902623842   -0.69011403737074
H        -4.05255947336106    8.03064411575415   -0.82581300029507
C        -5.83734639593617    8.20465814098612    0.36922117007738
H        -6.43912984643353    7.59086354528879    1.03580950864261
H        -6.45950115248777    8.52545394142112   -0.46373553742545
H        -5.51048782443076    9.08296858155757    0.92083067480442
C        -4.43172001950853    4.49084352899883    1.16919314225720
H        -5.45488623955078    4.75879111233119    0.89374933078434
H        -4.48932326725231    3.78928887000588    2.00412551220358
C        -3.75668103717872    3.80137442534719   -0.01832721472423
H        -3.69868502369623    4.47601365608382   -0.86944095440024
H        -4.31780892431566    2.91716112474825   -0.31414600712232
H        -2.74673125020689    3.49884006038408    0.24335987442429
C        -0.81040566720345    4.58991639815873    3.55156722583105
H        -0.34229796420812    5.58062159341857    3.66539249808815
H        -0.49181264142430    3.96970134477010    4.39310543160526
C        -0.35310178820970    3.95411435117088    2.24240485922501
H         0.73213218868495    4.06007372692564    2.16485951076149
H        -0.79703843737913    4.49580186687044    1.40409675169389
C        -0.70101885743310    2.46923906393166    2.14534644773619
H        -0.29102900322338    1.94822399056279    3.01410932704599
H        -1.78442155334699    2.33783573638917    2.16284581992775
C        -0.14272303539469    1.84089824937497    0.87402463328959
H        -0.53465507034426    2.34387348948387   -0.00780151389660
H        -0.41179331521008    0.78860714287817    0.81552191709204
H         0.94221030965088    1.91920028787529    0.85454766575079
C        -4.11276933772998    3.41881303066756    5.93787442649726
H        -4.22891299773356    2.98835704415494    6.93414071254592
H        -3.52049738747674    2.71984052945376    5.34212617775075
C        -5.49175864194408    3.59482531345890    5.29735058952995
H        -6.10997644771955    4.24785782524468    5.90929619247036
H        -5.99434029565642    2.63505928043710    5.19571276033126
H        -5.39837314902875    4.04797190838182    4.31278247039287
C        -3.99137900975436    5.43124849308364    8.44912365263183
H        -4.87067873013543    4.78890184380916    8.37207167377246
H        -4.31670267014150    6.39729541020834    8.84155403091784
C        -2.99008082248457    4.79931915809654    9.42028622127532
H        -2.67369369083296    3.82483314835536    9.05516303630170
H        -3.43893038785990    4.67370348386140   10.40332234450121
H        -2.10706862360819    5.42690725718142    9.51724526907271
C        -0.60339248547497    9.76244235924812    9.33948719421042
H        -1.67078456044197    9.75428453751003    9.57227779182643
H        -0.20595049517789   10.73703643881336    9.62784659833192
C         0.10153469973785    8.67257774129371   10.15230837634321
H        -0.28108861465522    7.69050320243953    9.88398765462576
H        -0.05447562891688    8.82974799332730   11.21750628877431
H         1.17058349733556    8.68452922313266    9.95220975700845
C         1.63032461936708   11.08303670481831    7.45862742730406
H         1.93700282557665   10.89713528653907    8.49016296387556
H         2.51086183947097   10.95821378464432    6.82463687223733
C         1.11634957104444   12.51869939596523    7.33735106980973
H         0.80619564644741   12.72280272946834    6.31532454361821
H         1.89188007184556   13.22985414236648    7.61412996292060
H         0.25662369346017   12.67061651228508    7.98591193610129
C         1.99870954232021    8.53003993225932    4.23048400929112
H         2.58776599959563    8.27545078657991    5.11307391038700
H         1.28506313184708    7.71419262516472    4.04529828813237
C         2.90538881949813    8.71037381420085    3.01849616730264
H         3.64288433084223    9.49000355957194    3.22799114631979
H         2.29802107054579    9.04458092511960    2.17398214518118
C         3.63322096816267    7.42573299956959    2.62194120546909
H         2.89850918457225    6.63263066857161    2.46636406710285
H         4.14263762259806    7.59567186874727    1.67029196420028
C         4.65967304103781    6.97371049857431    3.65449965736995
H         5.37178909046594    7.77110023619994    3.85741167121924
H         5.21000126481874    6.11031665143358    3.28724466141275
H         4.17850933626994    6.69463911459200    4.58811828002264
C         1.29556413370125   12.24345275291216    2.43151507548579
H         1.49968701088541   12.51971393452329    1.39475639904154
H         2.23573492363423   11.91097923350074    2.87599962409303
C         0.78148028193854   13.47003253140288    3.18771789969352
H        -0.13462913196197   13.84094229492085    2.73388725179147
H         1.52249831979709   14.26667101774807    3.17819482318199
H         0.56191345720793   13.21101808928991    4.22088488896005
C        -1.13409771432120   11.74999226447287    0.40423109114535
H        -0.76057484801976   12.76898781619845    0.51787083230391
H        -2.22085454334113   11.80134218405901    0.30438775410921
C        -0.53628203440544   11.13490423264282   -0.86461311479444
H         0.54863261217997   11.10256515664076   -0.79298886303115
H        -0.80899937476196   11.72281510334434   -1.73851550092738
H        -0.89653976775183   10.11770179763943   -1.00058239802245

