38
CSD_code = ABIQIN | q = 0 | S = 0 | Stoichiometry = C13H18N3O3Re | MND = 6
O         1.27176180700800    7.36672953428574    0.86136312752142
Re        1.85452585334819    6.57854274299239    2.73576119417583
C         1.98135397518835    7.30679082152625   -0.18872606054486
O         0.98627667313941    5.16670108715831    2.76450716601139
C         1.31035909843334    7.84083436558534   -1.43693455091239
H         1.15368044079815    7.02906408613426   -2.14402342492349
H         1.93131561059934    8.59624077392907   -1.91163759373314
H         0.34931289410752    8.27083280188908   -1.17045680654493
C         3.27544735305248    6.82787155580335   -0.32778428226323
H         3.69933050538783    6.90449860689823   -1.31798585642937
C         4.10144651680007    6.24599419635674    0.65046403491190
C         5.46716611189012    5.79856172970756    0.19622974503550
H         5.64856927825512    6.09109278339329   -0.83345027825657
H         5.54934505077549    4.71332412190067    0.26576317308833
H         6.24197325340753    6.23441661345958    0.82704169866011
N         3.73625978355597    6.08094833357078    1.89194867579725
C         4.62796690382702    5.45090878800256    2.83945273368464
H         5.46333539532994    6.12644339901260    3.07721987067563
H         5.04161452221884    4.51832914662065    2.43861560426684
C         3.85344103911483    5.14459232991097    4.13993879344628
H         3.19601811449617    4.28164276065588    3.97966916482557
H         4.55522477887505    4.92556117665834    4.94684629339462
N         3.03762190473219    6.30985178634327    4.39419512334364
C         3.28779104432796    7.14369664000029    5.38879994204224
C         3.98014736711021    6.66238491746317    6.63597525649964
H         3.64251292839474    5.66330828046800    6.90124765223510
H         3.75718660363811    7.33840791272378    7.45590582238470
H         5.06171118709113    6.64529721040892    6.49966261635556
C         2.98598559539932    8.50396123313253    5.28992903757560
H         3.09895644874863    9.11942486459182    6.16683652236807
C         2.76346710212547    9.14600879375685    4.06581222631097
C         2.73693995630986   10.65019326718639    4.03936603379147
H         2.96216075717533   11.00863951375828    3.03821828432859
H         3.42673971218744   11.08098768149598    4.75919955985300
H         1.72472148659645   10.96232938351470    4.29477765249885
O         2.64050642511108    8.54092222483973    2.96089153179164
C         0.33478630083402    7.54746481591144    3.73148093189515
N        -0.42545977938921    8.18489971895181    4.30097938483822

