41
CSD_code = ABIRIO | q = 0 | S = 0 | Stoichiometry = C14H22Cl2N2Ru | MND = 9
C         1.70098073885478    8.80808663217084    3.02610822409055
C         2.62927530574256    8.28252143557127    2.09883764434857
C         2.40643928669521    6.94495817141533    1.45169057196054
C         3.79138968263862    9.05256834311240    1.90614245951453
C         4.99922287838347    8.57109375981637    1.13057607921168
C         6.17949735708495    8.77368231378511    2.08624902634592
C         5.69195825172795    8.25274690572322    3.42252695277755
C         5.76601091827972    9.00525076917814    4.61224272700052
C         6.43603149055074   10.34697735056015    4.68824362151695
C         5.07114405120986    8.46299205588805    5.71503577150460
C         0.96180509797578    7.62998122691528    7.22091688382095
C         1.73174987360346    9.56599830880983    6.47567807296383
C         0.88581746046558    8.99550175187604    7.42734902080992
C         0.30799218960032    6.49390650870825    7.91593043878671
Cl        3.48989862460848    6.17604587377741    4.21929372357295
Cl        3.46932366591310   11.03305331411587    4.25447704261935
N         2.28362535987706    8.61314755597852    5.74141683259027
N         1.81203946522278    7.45149301871605    6.19707211098229
Ru        3.60354699737643    8.63957486569989    4.09361844479672
H         3.69129400234218   10.14070211214259    1.91737200448310
H         5.73870723091279    7.16411214241781    3.50226017786522
H         0.83482361065437    8.19007186780400    3.26148341594759
H         5.13440347942243    7.39066213981561    5.91060094710413
H         0.30093401858897    9.51071331679213    8.16044830712888
H         6.41927066013363    9.83490952983554    2.14751987076323
H         5.02652743627090    9.07052243412703    6.61770254751778
H        -0.52281322805274    6.85157328426687    8.51713250595807
H         3.27248204221959    6.29080019357039    1.51517762776962
H         4.91078341003806    7.51490687510025    0.87580009667037
H         1.94952293962279   10.60194477758612    6.30171294781020
H         1.48547165868235    9.87750239443445    3.01536249664807
H         2.15026445118863    6.59125639675418    5.74660975644296
H         5.12017787529610    9.14176487328115    0.20640768728605
H        -0.05861889824971    5.76643129896302    7.19439846842333
H         7.06973903681203    8.23130962740261    1.75669867969299
H         7.49644529648359   10.21536199288076    4.46973774500386
H         1.01865571651383    5.99022449656274    8.57096794409465
H         6.01994216058893   11.06118794888563    3.98087194726984
H         2.18396278692279    7.11655142713421    0.39718019088690
H         6.32819208323536   10.76855395939070    5.68441090066508
H         1.56398353456023    6.43145674903331    1.90903808535150

