46
CSD_code = ABISUC | q = 0 | S = 0 | Stoichiometry = C22H19CrNO3 | MND = 9
Cr       -2.14428273961347    5.27288652557355    3.23218161201692
O        -0.38319168654486    6.94832257896594    1.51793841885263
O        -4.06385329767167    7.08598764076431    1.86348281210364
O        -2.44347579036334    3.88435975282675    0.61639783481292
N        -2.11620028557375    1.88472716084160    4.01125605063098
C        -3.24818666750072    3.92615941729626    4.71202249106238
H        -4.21536591704802    3.44758256803073    4.66469994488019
C        -2.07038360828867    3.20384782394703    4.39703545050943
C        -3.38885745383161    1.34489051369218    3.57634643437986
H        -4.10062711566576    1.34323594966540    4.40241798153157
H        -3.24837570791200    0.31336079693991    3.26351693716984
H        -3.80874797073084    1.91205845510925    2.73681575361549
C        -0.95080176899094    1.32821676049940    3.35325409199653
H        -0.67118730062931    1.90381065020553    2.46253392990634
H        -1.16636584343610    0.30604584519299    3.05303793441598
H        -0.10607483020793    1.29713086304340    4.04222521882360
C        -0.84204850633390    3.89801478122248    4.51565665155397
H         0.09394691379227    3.39690231035517    4.31686957414330
C        -0.79475659163948    5.20950975196316    5.01542448182441
H         0.17244810996815    5.67150263897116    5.18780866750758
C        -1.95459494784408    5.87351126243501    5.44223010856902
C        -3.18391262976185    5.23493042965224    5.21358323731236
H        -4.09902137030282    5.71976969731966    5.53919911374820
C        -1.89324265666982    7.22611031677104    6.04670650388480
C        -1.85030972750443    8.28198062811963    5.16448882804690
H        -1.84846685794165    8.07525940977682    4.10158151752394
C        -1.82267219689433    9.60771091486641    5.60705656728265
H        -1.79024103850544   10.40786169801924    4.88385779329877
C        -1.84865894272084    9.86787128975961    6.94563708711958
H        -1.84076461680874   10.88400940952555    7.31240628658548
C        -1.88491294730414    8.81828030829956    7.88668639066267
C        -1.89548791882803    7.45843975995160    7.45395430620409
C        -1.89941558744167    6.44116274784863    8.45429695576114
C        -1.92180452896491    6.80086699029163    9.78021806931197
H        -1.92677868921336    6.02648553654544   10.53455028295498
C        -1.93304223764842    8.13609303394075   10.19633442548144
H        -1.95313390146341    8.36589694097144   11.25120266822678
C        -1.90810847731829    9.12807125752133    9.26216871014111
H        -1.90372497479092   10.16757170736533    9.55586579352556
C        -1.86549440356922    4.97217340949895    8.14325078613506
H        -1.79315274931180    4.40459089656208    9.06917252299022
H        -1.00683262595510    4.71677212439427    7.52498415553097
H        -2.76973130772122    4.65372478159946    7.62654557469664
C        -1.02506006887251    6.29103525835386    2.22314421341742
C        -3.35247744921360    6.37833120914016    2.44120907201753
C        -2.32616908920753    4.38853619636420    1.65384675783329

