40
CSD_code = ABISAH | q = 0 | S = 0 | Stoichiometry = C13H19Cl2N3O2Ru | MND = 9
C         4.30032018739826   -1.34244307606922    2.49620533603139
C         3.16784109569156   -1.13659458865513    1.67658856735406
C         2.39810455414621   -2.29456034996271    1.11302595090266
H         1.32277330709388   -2.18996802940365    1.22976864199948
H         2.70104416367053   -3.22783876234723    1.58130542019131
H         2.62050334481816   -2.34941834933671    0.04608402486822
C         2.78682609622763    0.21047808114760    1.50705835207738
H         3.58049306464319    0.95645033482083    1.41803532849352
C         1.48508609771531    0.64984667854745    0.87297908081770
H         1.66535815821353    1.12529701439083   -0.09385108166429
H         0.81003021277221   -0.19295559328280    0.72565379849927
C         0.87555662191297    1.62665588660219    1.88528876717831
H        -0.17308674365654    1.84052836082245    1.66511198427351
H         1.43411432427305    2.56200744101362    1.87052840259907
C         1.01494485755062    0.92939166395050    3.22144693099840
H         0.26094376337709    0.15487657819992    3.37968400656505
C         1.58707097098124    1.53215967769308    4.36268883793510
C         1.99390901247506    2.97452861305784    4.41732425120721
H         1.08500840795378    3.57677618945402    4.45575709670616
H         2.57499787099879    3.28227980093965    3.55195876207861
H         2.58690134766529    3.17360824524754    5.30615073374955
C         1.84178434442490    0.65536830609824    5.43962259897356
C         5.05040812125077   -0.57314556544338    5.86418696870003
H         5.36024253638593    0.42045061153016    5.56631198422118
C         5.82100169180324   -1.25585150442066    6.91227723729430
C         4.25651438615961   -3.13065637474891    6.57737120493710
Cl        4.56291741304065    1.52537777634288    3.63648291815437
Cl        1.32530782622276   -2.07843120693893    3.97282142793601
N         4.03554612201785   -1.10667934770897    5.28090594096756
N         3.65183627785152   -2.33553623780363    5.62489853896852
H         2.77084533662877   -2.65613412907996    5.15340587143318
N         5.34823352706162   -2.53173954101115    7.17832192532660
H         5.82960947079782   -3.07274468048351    7.88915825294166
O         3.87123581583048   -4.23453984881408    6.84637235713890
O         6.76338244655339   -0.78795856518187    7.49935133060841
Ru        2.87925249230001   -0.19087373291251    3.70135065919773
H         5.16052205180448   -0.67976916336452    2.39074311562630
H         4.56445133486605   -2.37625518723053    2.71732864285331
H         2.37074429211689    1.07044524550077    6.29636730174207
H         1.09692379696138   -0.09743267114989    5.70342853009274

