47
CSD_code = ABISEL | q = 0 | S = 0 | Stoichiometry = C19H23ClN2ORu | MND = 9
C         4.06267694043234   13.38362169134551    2.09796333017093
C         3.69811251921472   14.58924429373481    1.46465621418073
C         4.61020526910444   15.78286807550915    1.47101729401218
C         2.38195393227380   14.63473998352443    0.95986043665215
C         1.75381614803231   15.90433988279561    0.41882229476072
C         0.46301179639248   16.08378961005402    1.22260337725170
C         0.86017299272453   15.78967648615505    2.65313815206881
C         0.18800087204994   14.86318575976076    3.46864122428075
C         0.82327559867220   14.56797703186958    4.69587187641226
C        -1.05661644714636   14.13828717325398    3.03996712019937
C         3.22153828349615   11.27333155458858    5.97212964126695
C         4.12941936536407   12.20567461721922    6.40883138286708
C         4.01928472757181   13.29987334340386    5.51916592080183
C         4.77523703861796   14.53641839666250    5.52509513870453
C         5.93817290969080   14.60369773669787    6.29844869344193
C         6.70239345098404   15.74507515896302    6.37530192015291
C         6.30276719368992   16.87401832239838    5.66901674234678
C         5.17333943022387   16.83762265447001    4.89218522113253
C         4.37038270001917   15.67697977992222    4.77695577654893
Cl        1.17765830234844   12.09029793820963    2.37312362780494
N         3.08236278737716   13.00331923922839    4.62027883443064
N         2.60343842565881   11.78850018469849    4.90054474025765
O         3.31598216942424   15.77255591642995    4.03267625874240
Ru        2.28796552638045   14.15321703245420    3.13108324250272
H         3.75023766688415   12.43361190854236    1.66076667322797
H         5.04245858305219   13.34488125813114    2.57110677462622
H         1.92283220606320   11.38930377310185    4.24596106897042
H         4.80333408690307   16.08763573876827    0.44212735618993
H         4.17020975442077   16.62106199321544    2.00845624821463
H         5.55544423062025   15.53759160915820    1.94993999540677
H         1.98018353736234   13.72694106253962    0.50324654840331
H         2.40703189933766   16.76062167266011    0.58390401827900
H         1.55832617808578   15.81658555144221   -0.65318031371117
H         0.05746002612661   17.09457526644515    1.12747515207228
H        -0.28781269861080   15.37585818036647    0.87178933386739
H         1.38726278220159   16.61270537475372    3.14122729700428
H         1.27190813344428   15.38311599546708    5.26697037268801
H         0.37019912809183   13.79561090907878    5.31626435894841
H        -0.95569905111771   13.66751624936052    2.06486520367181
H        -1.31465431723187   13.36338929461954    3.75760423653538
H        -1.87290987603704   14.86010058841989    2.99036288757570
H         2.98198447875636   10.30119572822890    6.35352275607310
H         4.77218515866439   12.12393183010856    7.25954466711559
H         6.25053368170557   13.72406238003501    6.84087300155499
H         7.59822185597101   15.76349518693591    6.97691628362480
H         6.88525017731060   17.78278098006088    5.72464937457119
H         4.85496044539854   17.71171560521113    4.34222824409856

