47
CSD_code = ABITEM | q = 0 | S = 0 | Stoichiometry = C20H18FeN6S2 | MND = 6
Fe        7.50803351987049   -1.72138493256905   13.21937222373278
S         7.29874076565707   -5.41021130029653   10.48240677404913
S         3.42857651544963   -0.21501818054065   12.05609989070877
N         6.99793586357968   -2.76614028326654   14.71151473871819
N         9.32278344210938   -1.62719301839962   13.67678044741876
N         7.87304647545002   -0.42477976971011   11.88728534384135
N         7.24737129932002   -0.17933671119129   14.45535643339666
N         7.77890836850833   -3.21440130415174   12.07428931881614
N         5.69439626911708   -1.66214808799743   12.67531695769025
C         7.16628606346499   -4.07268663749906   14.89427832297770
H         7.67884087483256   -4.58261848065851   14.09383943498267
C         6.69885202283217   -4.74027360627174   16.01175614594632
H         6.84966550951262   -5.80323531980708   16.10707960295074
C         6.03029322834307   -4.02209218977852   16.99100704052202
H         5.64745097770616   -4.50756267020638   17.87494575597762
C         5.85909688221175   -2.65679799824803   16.80569154702547
H         5.33942688202631   -2.05952231432250   17.53941344884626
C         6.34839953874516   -2.06608444083769   15.65447461129584
C         6.16629415236169   -0.60163383918586   15.35100547593500
H         5.21517026411186   -0.49574095623210   14.82354656632992
H         6.12442552156590    0.00130585972091   16.26799474284871
C        10.31663061227542   -2.29186437265583   13.07866037044799
H         9.99708045544025   -3.09765740668684   12.43672492865639
C        11.64811494481766   -1.97919449582555   13.25824857351538
H        12.40749528703999   -2.55133336926690   12.75041952044539
C        11.98875533783396   -0.92309497132781   14.09280781607205
H        13.01800589924525   -0.64247740822974   14.24933507824576
C        10.96210789540681   -0.23803939614817   14.72763748679207
H        11.17402418799849    0.58372752642399   15.39487932747739
C         9.65353221134010   -0.62207601115252   14.50226778846389
C         8.49335636125051    0.02301974454313   15.20539861925888
H         8.39774206229341   -0.45961866257160   16.18393324819811
H         8.68888320237823    1.08837510329044   15.37882753618130
C         8.38442930760092   -0.62630166500098   10.67642484638690
H         8.56561533425098   -1.66068228393334   10.42843944152811
C         8.64272179883544    0.40405845693451    9.79220610105655
H         9.04646442119056    0.18971462172125    8.81612154779881
C         8.36487429087037    1.70561408649159   10.18223637801314
H         8.55158537870681    2.53666468696458    9.52018908740100
C         7.82692383935698    1.91634579607197   11.44292049580349
H         7.57952163771706    2.91120889961583   11.78027300183017
C         7.58671603779277    0.82796047190448   12.26483996738279
C         6.91742620227004    0.96629937218740   13.60606092315808
H         7.17433451434507    1.92308226471448   14.07997732587894
H         5.83955128898674    0.96157048021855   13.41579567758795
C         7.49897515403137   -4.13429542682121   11.39726243263210
C         4.73013789995139   -1.06914986001498   12.36515765577621

