47
CSD_code = ABIVAK | q = 0 | S = 0 | Stoichiometry = C20H18FeN6S2 | MND = 6
Fe      -13.19623389441261  -19.30452252302520    1.79010212673424
S       -16.03075639073611  -22.93273229158807    1.73431857270373
S       -14.50386892786978  -17.79982858324044   -2.24537871392325
N       -14.57324086100318  -18.07581280197261    2.22609672742880
N       -12.67698652464134  -19.21282195880960    3.58915372977401
N       -11.67938137876291  -20.26862545956766    1.21122465103555
N       -12.04353467866149  -17.70215566543731    1.50869223326298
N       -14.25104973400624  -20.85875910023789    2.07768783047293
N       -13.80923833600115  -19.24663560041387   -0.00101922777041
C       -15.75104667728248  -18.33712995068519    2.78556287727489
H       -15.94675063045543  -19.38293208035945    2.96419152268064
C       -16.66850111453999  -17.35071293226145    3.09477900804973
H       -17.61584246656538  -17.61408219171977    3.53616908465971
C       -16.34896065824471  -16.02982687304658    2.81868534606173
H       -17.03878270918778  -15.23160790618550    3.04411028028159
C       -15.12239482706565  -15.75634330595033    2.23221408848434
H       -14.83991234135545  -14.74426688769356    1.98587875221534
C       -14.26384465391233  -16.80365532567358    1.94261885851182
C       -12.95846239254485  -16.59607699006148    1.22257031343212
H       -13.19042097385118  -16.60233374684825    0.15287241335484
H       -12.52106829982796  -15.61945317150573    1.46944842450178
C       -13.20507479032783  -19.91995161877718    4.59332008087340
H       -13.81607620135702  -20.75355222329585    4.28472580287559
C       -12.99505520776136  -19.61532633476109    5.92223346283646
H       -13.44662551971891  -20.22219782620889    6.69012322688183
C       -12.20352160612479  -18.52243139369461    6.24906731621996
H       -12.02573196897053  -18.24698720702105    7.27626435875748
C       -11.64020821329184  -17.79322438520981    5.21118201307700
H       -11.00826453115772  -16.94132387882354    5.41201210154154
C       -11.89184286372318  -18.17153174199985    3.90568992865781
C       -11.26295683870581  -17.47666501140974    2.73177090456136
H       -11.13834248281707  -16.40621442691869    2.93651133437162
H       -10.26449991562172  -17.90631086214971    2.59700380937987
C       -11.43624102026463  -21.56849928475344    1.35160320909170
H       -12.19914212446210  -22.11867120824853    1.87984598364836
C       -10.30711691427577  -22.17996677730510    0.83782563484455
H       -10.16116992825662  -23.23995364397638    0.96783509833684
C        -9.38188122079686  -21.40983475171756    0.15027881454971
H        -8.49070298758099  -21.85053738386611   -0.26832382628683
C        -9.63147350757204  -20.05156672200354    0.00627058259567
H        -8.94162657072432  -19.41583593464242   -0.52767358290018
C       -10.79010742122584  -19.51854066817505    0.54206386897016
C       -11.16445564222235  -18.06671339848822    0.39322841102964
H       -10.27733446794878  -17.42209052025077    0.33298916878899
H       -11.72542866625665  -17.97002655495374   -0.53959807849620
C       -15.01830245096883  -21.72229736646146    1.85786967680098
C       -14.15063846693567  -18.65643352860363   -0.95639820023172

