32
CSD_code = ABIZIW | q = 0 | S = 0 | Stoichiometry = C15H10CdClI2N3 | MND = 5
C        10.03620152095476   -0.58555209178731   12.14527265726069
H         9.87626526909972    0.05680102828609   13.00395763487192
C        10.87656864712591   -1.68669416681762   12.22475263122535
H        11.38978923592481   -1.91515599878539   13.14474277017399
C        11.02923308799666   -2.47953834641015   11.09918856610985
H        11.66493681368676   -3.35197464729985   11.12075169976736
C        10.34967292077737   -2.13885111299770    9.94133520234200
H        10.43275282557244   -2.75133206787610    9.05786549905637
C         9.53694339616668   -1.00755920128047    9.94672638473273
C         8.78620430721653   -0.56968338752937    8.75310056595948
C         9.22220572323885   -0.85015009650767    7.45978436132388
H        10.13225944867970   -1.39673054252565    7.27826613807262
C         8.47892368512563   -0.35283543603089    6.39921823929352
C         7.33515043160512    0.39281483373882    6.64509404329544
H         6.77528725288606    0.81578115326079    5.82810099850229
C         6.97442973891379    0.62084320097910    7.97150558416570
C         5.80152747626685    1.43935603208517    8.33801829360909
C         4.69963303741168    1.58000277903916    7.49739582029432
H         4.66281453358028    1.06825102844214    6.54912488167258
C         3.63864468232176    2.36821051603313    7.91150187389006
H         2.77317428966608    2.49267297881599    7.27806662437801
C         3.70552754595150    2.98740615263433    9.14880456455313
H         2.90193262022469    3.60962210770300    9.50805106506894
C         4.83629327463379    2.78350953304773    9.92656391857870
H         4.92836116439110    3.23839954135192   10.90642561688285
N         9.38593014367988   -0.25688828600398   11.04129833264642
N         7.68887830454313    0.14360978237493    8.98624866704969
N         5.85209891694227    2.03293084127304    9.53375988718588
Cl        8.98422382937959   -0.64467540517868    4.78353579085503
Cd        7.96505890705476    1.76449337852935   10.80817018127123
I         6.95135565477022    1.82857462213013   13.28775102895970
I         9.59662131421690    3.27164127730816    9.27082047694203

