49
CSD_code = ABOBEA | q = 1 | S = 0 | Stoichiometry = C22H18CoN6O2(1+) | MND = 6
Co        0.00000030590902    0.23258274844301   10.64650052220094
O        -1.85536640870596   -1.50838474467194   11.49571802273823
N         1.51329938052098    0.16038538297534   11.81721540545407
N        -0.70004126095398   -1.09304226280994   11.67796596159364
N         0.73575341361089    1.69070198846055    9.57129776510938
C         2.65307323026294    0.84397192476605   11.81779757405724
C         3.70876781489055    0.53465026464767   12.65206216514008
C         3.58375584711531   -0.53920477539558   13.52801405012479
C         2.40400048567783   -1.24941359567182   13.54024316836368
C         1.37856947177231   -0.87855191537508   12.66342423848155
C         0.11737829585753   -1.53269066652454   12.58573008822884
C         1.49371905427334    1.59972162219363    8.48340881185239
C         1.95497034932369    2.70826307068745    7.79273601805335
C         1.61095463744633    3.96919976221602    8.25352530541898
C         0.83035683713777    4.06939579686371    9.39224939952646
C         0.40755200462776    2.90855750915703   10.03671040111930
H         2.73848421477992    1.66934954894994   11.12513761394228
H         4.61505195867728    1.11540067772206   12.60875095330652
H         4.39812580772085   -0.81122940836588   14.18073944963139
H         2.25854565413122   -2.09222889938994   14.19578857814285
H        -0.16599929391816   -2.34457878788759   13.24245968296534
H         1.76318066847956    0.60723945232035    8.15245748554571
H         2.56958784148815    2.57993326502586    6.91709546356360
H         1.94742178089940    4.85712136537556    7.74188618340603
H         0.55791037371097    5.04023161913960    9.77041213021932
O         1.85536611342737   -1.50838587151584    9.79728327111974
N        -1.51329887457882    0.16038610083019    9.47578551683820
N         0.70004139529741   -1.09304238691533    9.61503483630545
N        -0.73575246491105    1.69070218670633   11.72170313011235
C        -2.65307271438876    0.84397268910805    9.47520359307766
C        -3.70876704417450    0.53465185356938    8.64093838687370
C        -3.58375493791980   -0.53920249689752    7.76498566684959
C        -2.40399973538529   -1.24941156839703    7.75275653150088
C        -1.37856890105069   -0.87855058726100    8.62957596572139
C        -0.11737791353844   -1.53268972658904    8.70726999812387
C        -1.49371729430167    1.59972199987526   12.80959266076837
C        -1.95497017962449    2.70826359347719   13.50026414404377
C        -1.61095708879986    3.96920025442598   13.03947282577627
C        -0.83035988051111    4.06939608504113   11.90074830810614
C        -0.40755323033772    2.90855763222880   11.25628877806303
H        -2.73848389039209    1.66934977128629   10.16786416564999
H        -4.61505108622631    1.11540241490748    8.68424971128892
H        -4.39812465443822   -0.81122639838608    7.11225966490040
H        -2.25854481262505   -2.09222645784864    7.09721061038552
H         0.16599953078839   -2.34457760771431    8.05054004354098
H        -1.76317699021934    0.60723982861377   13.14054554407365
H        -2.56958693399739    2.57993391388812   14.37590523583305
H        -1.94742559991145    4.85712197247327   13.55111085295113
H        -0.55791527691683    5.04023186224214   11.52258411991027

