31
CSD_code = ABOBOK | q = 0 | S = 0 | Stoichiometry = C10H13N4O2SV | MND = 5
V         1.37542699290885   13.71486805972294    6.43507916143218
S         1.78473497472804   11.85798583109380    7.85506150849284
O         0.75366903774723   14.58429074768309    7.52783917764351
O         2.85306263410073   13.99699449260054    6.16342343754180
N         0.63171496557613   14.70989217217822    4.85428751935502
N         0.32849875174414   12.24343698121206    5.45550972201663
N         0.23073973700614   10.99057013463762    5.84502295013000
N         0.79644517204138    9.46238476355829    7.45902208829836
H         1.37434877290219    9.27132912954735    8.26431688317203
C         1.68815026914090   16.73869310505147    5.62018728039866
H         1.23562002161331   16.64645113333595    6.61231605957931
H         1.80403670952201   17.78376117832742    5.34727999614535
H         2.66386908297920   16.24923180959168    5.69792248374973
C         0.85423312654195   16.00163502873137    4.63788613957643
C         0.31156724836228   16.63149877789798    3.51374415659548
H         0.50028267490969   17.68036988808390    3.34961462669403
C        -0.46162664503318   15.90679467026371    2.62168222621344
H        -0.88452257300035   16.38452539999177    1.75065870063744
C        -0.68505985391147   14.56424365736751    2.86110860643493
H        -1.28044965685251   13.96036089029378    2.19505007193986
C        -0.11573034259129   13.99063553675706    4.00164260306827
C        -0.26619359634968   12.61615875603942    4.36798843661884
H        -0.84749966272248   11.91793997423353    3.76910527285495
C         0.87619991747818   10.70727692083261    6.97022443300184
C         0.22170413240972    8.34457929445396    6.74745417600460
H        -0.53933676946584    8.74421740148482    6.07621379690350
H        -0.25184276498057    7.68341712780891    7.47785783824324
C         1.27555108881473    7.58069228374126    5.94971041713568
H         1.74016488224061    8.24129566457479    5.22242944080889
H         0.81480476607420    6.74926294807478    5.42386182920501
H         2.04753690606604    7.19150624082812    6.60939896010809

