51
CSD_code = ABOBAW | q = 1 | S = 0 | Stoichiometry = C24H18CoN6O2(1+) | MND = 6
Co        3.55919059810212    7.83369749720215    3.98788256744835
O         2.53790676894773    6.40496218181008    6.01208047612949
N         2.18531562851154    9.07555846303628    3.38462458811025
N         2.26110138907746    7.25793662147448    5.15554296468560
N         4.26475488491288    9.27525525181415    5.21842943382676
C         2.22260439533473    9.99398896749615    2.42658517393869
H         3.17734553568014   10.17650318035007    1.95355127315998
C         1.10495877051292   10.69974922164725    2.02474334543770
H         1.18549448280032   11.43161729458224    1.23828200671742
C        -0.11432264085053   10.43802305422602    2.64084178890947
H        -1.00511473207905   10.96551961480021    2.33803682879746
C        -0.16368006211743    9.48994360565198    3.63956063216000
H        -1.08524269831656    9.24757873529765    4.14296896699291
C         1.00818012538416    8.81450708523746    3.99236929108521
C         1.09378662353730    7.81584560439274    5.00648964611897
H         0.25804385466829    7.52678686617443    5.62869465189383
C         3.89024720175628    9.61560585341223    6.43667452423780
H         3.08933502754198    9.04479276710529    6.88496484474315
C         4.49340931305655   10.65368916292960    7.15271590577307
H         4.14176801468083   10.88470581113589    8.14508639840358
C         5.52467716071782   11.36059405156450    6.58159785857414
H         6.00977763248909   12.16797629997579    7.10870983921504
C         5.95272108773692   11.01443616666390    5.28837182119116
C         5.28100348249094    9.95373166545504    4.64505786575655
C         7.02004367729491   11.67252227215136    4.61068266621958
H         7.52157112395223   12.48181309368097    5.11861212333492
O         2.13045324774087    6.81241982082265    1.96368584230478
N         4.80105042202405    6.45982307329144    4.59113908292584
N         2.98343231422637    6.53561174329788    2.82021883101962
N         5.00075257612780    8.53925410649210    2.75733176627882
C         5.71947233985043    6.49711045918228    5.54918524856597
H         5.90197258088058    7.45184481562245    6.02223561256145
C         6.42524880952452    5.37946905371444    5.95101399921181
H         7.15711115954259    5.46000369907132    6.73747962519608
C         6.16353952271936    4.16019714743064    5.33489076748977
H         6.69105153994072    3.26941021320287    5.63768127117638
C         5.21546234748232    4.11083906583414    4.33617247738917
H         4.97311114637624    3.18928329593449    3.83274593617987
C         4.54000993693631    5.28269406686526    3.98337822825430
C         3.54134927042894    5.36829955250558    2.96925843630507
H         3.25229737930753    4.53256062380154    2.34704517059598
C         5.34109764497417    8.16474738655017    1.53908489261450
H         4.77028107000783    7.36383957539226    1.09079268718997
C         6.37918758275892    8.76790179244045    0.82304629755325
H         6.61020273245905    8.41625850184597   -0.16932333363109
C         7.08610003166316    9.79916104820939    1.39416958379734
H         7.89348863378928   10.28425289426676    0.86706044215068
C         6.73994504178279   10.22720883857724    2.68739511311497
C         5.67923481060283    9.55549727914212    3.33070593833816
C         7.39803842918098   11.29452434394420    3.36508830421693
H         8.20733278384958   11.79604721329495    2.85716029634014

