30
CSD_code = ABOBIE | q = 0 | S = 0 | Stoichiometry = C10H13ClN4PtS | MND = 4
Pt       10.40603910919107    5.33089345225239    6.91602185158566
Cl        8.26082749386968    5.56116846624609    6.34660656982395
S         9.86339273734316    4.78165621503542    9.08790865087506
N        11.44334005075975    5.77576532773275    5.08054964574429
N        12.21692728314183    5.11660559437681    7.51911245933568
N        12.53832312478441    4.78064556697213    8.76263708358406
N        11.79168492314337    4.20530308316006   10.82923988327378
H        12.76770519135265    4.21068997777242   11.08602290644496
C         9.56730108928350    6.20501532601394    3.58525977570628
H         9.07135884852571    5.26336558571987    3.81659811634456
H         9.38140173585925    6.46885787773479    2.54821357739580
H         9.11930833531951    6.95310425452387    4.23778057053965
C        11.02534932026466    6.09745266678685    3.85313292597162
C        11.93319706718304    6.33436928597112    2.82180662366102
H        11.56127249735532    6.59248758965867    1.84348124129722
C        13.29556094961429    6.23958233625310    3.05346175114305
H        14.00286263380224    6.42237969255757    2.25889915364177
C        13.72620760935635    5.90666715903389    4.31980160245856
H        14.77411109510935    5.81793756794411    4.55586600388561
C        12.77920956672524    5.67743764971473    5.32207411872077
C        13.16645827145096    5.32527819180699    6.64813378498440
H        14.20577786530634    5.22668967712126    6.93222047243164
C        11.52030559310912    4.58969793064946    9.57545768435300
C        10.80877762874954    4.08661695433161   11.87790247409896
H        11.17084693687471    3.34563654423939   12.59451393252581
H         9.88243485836331    3.72112584803389   11.42855630102627
C        10.54972363163216    5.41945166877690   12.57677066447058
H        11.46440748125613    5.80340098307083   13.02297174487435
H         9.80690719496239    5.28826629857029   13.35785355204082
H        10.17637987631287    6.14645122793821   11.86064487776076

