93
CSD_code = ABOCEZ | q = 0 | S = 0 | Stoichiometry = C46H38Cl2N4P2Ru | MND = 6
Ru        0.84759849110180    3.10843633594782   18.67116946634129
Cl        0.99612447639559    5.33283964657441   17.80056222017813
Cl       -1.54655116451246    3.18674344656361   18.63116904892556
P         0.40570161722443    2.25970360821653   16.54178694223111
P         1.02697909316721    4.29435342150379   20.67374025723767
N         1.11484823616381    1.43273964234756   19.52983154861291
N         2.82113511354729    2.89430402492607   18.43993378959012
N         4.43708840600888    1.15443251874487   18.64652812658342
N         2.30168865339482    0.89884698973539   19.45840675965279
C         0.44688989132840    3.51559376182489   22.21635048973420
C        -0.86850441169156    3.05691590835707   22.18299669882530
H        -1.43618924561516    3.14226199854832   21.26459380374492
C        -1.43600585418123    2.49739167181405   23.31082567916958
H        -2.45468221157093    2.14133028502071   23.27934873310457
C        -0.69643428489719    2.39421977118775   24.47815281629093
H        -1.13570757733225    1.95158414676700   25.36006059214667
C         0.60372866961353    2.86809944923971   24.51895967741746
H         1.17583940640950    2.80121989481665   25.43324285892922
C         1.17728526525627    3.43607566054530   23.39461523229956
H         2.18794930944095    3.81680914279455   23.44061573032191
C         0.22542732680349    5.90622068114615   20.92392399099192
C        -0.91511826294063    6.25294996697984   20.21178998162441
H        -1.30473357117319    5.58432731760857   19.45694910503880
C        -1.54380221639951    7.45878134572029   20.46898131692650
H        -2.42519951319465    7.73171259125372   19.90803347800626
C        -1.04599284453524    8.31126627621445   21.43914037422521
H        -1.53466599288361    9.25481896895248   21.63410553639452
C         0.07745306080731    7.95315324609016   22.16847492626567
H         0.46000212589884    8.61286955673869   22.93404392146096
C         0.71013359562662    6.75067617292455   21.92000368110262
H         1.58214645216738    6.46461380722935   22.49329684399053
C         2.80039062777496    4.60567513788576   20.90160859025037
C         3.38171213284107    5.79056346003500   20.46043470171371
H         2.75172740360898    6.59075651344325   20.09728706361576
C         4.75878864907431    5.92971398833407   20.47045595119083
H         5.20562395062259    6.85251552970260   20.13045180385011
C         5.56298091260254    4.88776847946329   20.90134747175551
H         6.63732418741176    4.99854148729733   20.90457911939693
C         4.99075826875138    3.69406262070241   21.31399856777838
H         5.61602115062963    2.87138669489690   21.62918676498555
C         3.61677901148966    3.54882241864549   21.30586193331261
H         3.16806594028859    2.60776635031498   21.60138658645444
C         3.20984952585765    1.64147149945352   18.81931773197570
C         3.74451337810960    3.69461092635524   17.92476758993730
H         3.42561990151195    4.69361335484161   17.65560441690992
C         5.04631144988657    3.26518856210183   17.74851010474032
H         5.79212681440888    3.91819078970760   17.32962520758311
C         5.33488600288935    1.95323462197405   18.11645447019788
H         6.32042369685576    1.52784451556159   17.98354840208268
C         1.91715628948441    2.04137596695009   15.54318374457350
C         2.55342601592605    3.23868647029875   15.21409960149038
H         2.10060933227657    4.17471550982033   15.52073020037852
C         3.73720034369810    3.22745650716448   14.50329019151797
H         4.22376593539772    4.15851565795839   14.25189011411430
C         4.29929003620788    2.02035826778218   14.11770576833401
H         5.22953083376863    2.00704012685304   13.56902934014110
C         3.66269234342942    0.83114078234283   14.42825103302277
H         4.09236537695064   -0.10983197252579   14.11650147374416
C         2.47280560391342    0.83566315598983   15.13680151879932
H         1.97781053337704   -0.09913882541382   15.35596213191840
C        -0.61076976960600    3.12016871232162   15.30112091824612
C        -0.69570803192631    2.52569593499212   14.04154366643042
H        -0.17569306416786    1.59508310729039   13.85193918649672
C        -1.44371695939005    3.12141772486047   13.04648377959379
H        -1.51043864292233    2.65724516434210   12.07304903109746
C        -2.10646514623390    4.31436083137297   13.29703271648284
H        -2.69080164887070    4.77875007837180   12.51604869420190
C        -2.01703896401135    4.90761122198785   14.54345761694725
H        -2.52934833640295    5.83776855582444   14.73928406926315
C        -1.27065296347588    4.31488891718287   15.54884012017335
H        -1.20274295891666    4.78376506203718   16.51913571676405
C        -0.38408675603928    0.62629727819357   16.65621014888613
C         0.32121260252790   -0.44528002540438   17.20441994844116
H         1.35461652387650   -0.32557618088629   17.50414893571218
C        -0.30396180022491   -1.66378322693549   17.39258239136293
H         0.25074016288852   -2.48829008957707   17.81554683387522
C        -1.63863440586642   -1.82090785917709   17.05489246795980
H        -2.12555578289937   -2.77244209794057   17.20930735448961
C        -2.34992419406210   -0.75279961274662   16.53465447722360
H        -3.39535271827406   -0.86599492683664   16.28789640298523
C        -1.72990234303449    0.46830128693560   16.33749266760460
H        -2.29304324200029    1.30717901769940   15.95426462407517
C         0.29228313489772    0.73368043872023   20.42396231422185
C        -1.04189567024098    0.45993542812932   20.13215514720227
H        -1.47031743192326    0.78175159537763   19.19740656289334
C        -1.81272440277390   -0.23878004064249   21.04122680882112
H        -2.84435617959976   -0.44988492674019   20.80359332444035
C        -1.27301980800679   -0.66727772399639   22.24244693600124
H        -1.88507979115282   -1.20425486993069   22.95175986549943
C         0.05942031934958   -0.41414890577906   22.52795346661076
H         0.48993471464519   -0.75228921575292   23.45867589282458
C         0.84304780633998    0.26760637932232   21.62143024835179
H         1.88578805909850    0.46000311321378   21.82493244163405

