79
CSD_code = ABODUS | q = 0 | S = 0 | Stoichiometry = C24H50CuP3S | MND = 4
Cu        1.80912024595261    2.50140983294808    8.00428437020094
S         0.81528776146047    1.97173316141454   10.02936252188053
P         1.76176238753529    0.58284153606501    6.66243184571266
P         0.79786319297595    4.52936599687925    7.34597215517220
P         4.11530393956323    2.91083854947386    8.57650050808396
C         1.17327038238510    0.93277305691847    4.94094985539080
H         1.07523263529396    0.00475187241010    4.37226861067356
H         0.17432294266416    1.36773974472212    5.04573300436481
C         2.09872076544536    1.91972879741723    4.24247075758948
H         2.28056651444903    2.77477185136547    4.89428394331629
H         1.65973956518207    2.27617736957264    3.31175084170871
H         3.05734194566401    1.46011796205954    4.01157971203082
C         0.60980105523956   -0.79904075803752    7.09177071099737
H        -0.40085151290081   -0.38277735212766    7.04889892485405
H         0.68233363695675   -1.59011243247445    6.33887312564084
C         0.87447689957444   -1.33932992513936    8.49086936515224
H         1.85259557628611   -1.81288423612547    8.55351892896767
H         0.12012312721011   -2.07533883295675    8.76184775255647
H         0.83438405436479   -0.52827464635542    9.21721619646898
C         3.36476997233533   -0.30415829555063    6.36853372545832
H         4.08806010286915    0.47371082030903    6.10259563800096
H         3.66141654531545   -0.69438772463017    7.34636703079113
C         3.39066871771842   -1.42240849447097    5.33495980096936
H         2.69432421939629   -2.21602918667997    5.59405580103451
H         4.38910325689740   -1.85558764566384    5.29298984484565
H         3.14403762705445   -1.05433027590434    4.34211182587612
C        -0.33249567285367    4.52828583489627    5.87023593048430
H         0.20406740618556    4.01524685408892    5.06686182017123
H        -1.17298455567767    3.89044737913577    6.15942857453499
C        -0.85703981110702    5.86558631845764    5.36166890582400
H        -1.42645548071831    6.38518240070749    6.12762438293379
H        -1.51929312027320    5.69256279145477    4.51445677785194
H        -0.04893596415008    6.51139299121502    5.02697762210478
C        -0.29251001649106    5.35895258392423    8.58907762842662
H        -0.58896955471471    6.34127001761315    8.20790461069726
H        -1.18502353027686    4.73284137099779    8.67947488260134
C         0.36996561443819    5.49715956397010    9.95296654618391
H         0.70089412654259    4.52199471336636   10.30605337285372
H        -0.33985991156419    5.89776541601149   10.67408519298198
H         1.22774093893464    6.16601472786369    9.91094249191581
C         1.95858796914515    5.92625363704662    6.96427686522103
H         1.39546936374589    6.84770010741245    6.79560821149874
H         2.57171192503092    6.06476575289701    7.85921768547873
C         2.85874347611365    5.60141989029373    5.78158930550428
H         3.36288619401603    4.65182115738094    5.95652613193555
H         3.61469800691397    6.37350118793438    5.64582165226875
H         2.28474222950341    5.52172274828124    4.86065369615206
C         3.86165765643909    3.93058569790046   10.09697740267624
H         3.46544973786796    4.88919891850126    9.74644465917716
H         3.04943389223646    3.43040285922161   10.63384278178183
C         5.04379407801264    4.16790040602263   11.02776281996947
H         5.42612746064520    3.23340088880001   11.42982691478040
H         4.71951761686797    4.78147368906114   11.86669428389059
H         5.85375777831239    4.69077592618413   10.52333254830551
C         4.99903358157013    1.42769106526856    9.24752348259006
H         5.33200457537983    0.84198109685725    8.38544776854942
H         5.88932833855370    1.74946479260631    9.79633957971667
C         4.08241612029752    0.58610783198102   10.12269683241782
H         3.83901585300723    1.10423929106286   11.04660524528668
H         4.54995878866574   -0.36526479762242   10.37248556633822
H         3.14264495910962    0.39389450426040    9.60652839319146
C         5.56474409986673    3.78499886588538    7.79175916373203
H         5.26092822306607    4.82379505146626    7.63273934826554
H         6.41896714992005    3.77806574456648    8.47285982235862
C         5.95395532335027    3.14860588146931    6.46322111122545
H         6.35882946703702    2.15064924029298    6.61702761685167
H         6.71076373346067    3.74685773433245    5.95824086109471
H         5.08836564369914    3.06674289321534    5.80688111701337
C        -0.86378947458541    2.03770581527474    9.60714191506561
C        -1.29329505638440    2.01142041143452    8.27894056718248
H        -0.54751832206138    1.93977966146277    7.49119706841868
C        -2.63706682590960    2.06755883928201    7.96875059254294
H        -2.95078174792587    2.04084126846278    6.93185399474037
C        -3.58549996839732    2.15587718106244    8.97464461538381
H        -4.63704619327963    2.20408675472734    8.73043764386501
C        -3.16916630294574    2.17698000269379   10.29865513986104
H        -3.90270030935236    2.24215769165046   11.09094708023817
C        -1.82944040795489    2.11621261668515   10.61483650697197
H        -1.50170465820760    2.13012398554425   11.64380847120243

