24
CSD_code = ABOJOT | q = 0 | S = 0 | Stoichiometry = C9H12I2Pt | MND = 6
Pt        2.01158976294691    2.69136605415566    3.03331216960926
I         3.22465867861929    3.60734577525680    5.12138964912811
I         1.42829884305209    5.04215418522722    2.14056491070430
C         1.56375413795185    1.65013770671292    1.19541789383659
H         1.56312041525609    2.25036950588740    0.29528069143022
C         0.48867523694565    1.44200577240623    2.04851192950534
C         0.81540620999529    0.16610111876990    2.83344639261990
H        -0.01518068509981   -0.31272450085190    3.34444678343352
C         1.97897281809348    0.63217863355109    3.70051914838115
H         2.02719806118835    0.48123320953391    4.77043755697003
C         3.04904326490699    0.82448968675961    2.83951034693118
H         4.09841958454170    0.86762853853116    3.10461953534163
C         2.53819424750742    0.49375335808508    1.43923804941842
H         3.28893126118924    0.32074025135147    0.67316993301687
C         1.55664895837436   -0.64428531921667    1.75826787838217
H         0.92350571713683   -0.91370773215011    0.91246806514447
H         2.04515181128952   -1.53530170536273    2.15364131690033
C        -0.87365978820415    2.05254564983350    2.05508294494534
H        -1.58371283465906    1.31868292568625    1.65976063582974
H        -0.89320754150255    2.92972030220528    1.40383911287354
C        -1.28927999063463    2.44976256346584    3.47594875591726
H        -1.45603168942066    1.57323478877051    4.09799000510576
H        -2.20439196295642    3.03424170397418    3.44901583121894
H        -0.51220451651670    3.06492752741708    3.94662046335526

