61
CSD_code = ABOLOV | q = 0 | S = 0 | Stoichiometry = C21H30ClF3O3SSiTi | MND = 12
C         8.61712452903697    1.63925163533778    1.10325212909433
C         9.29177357362949    2.40935639417630    2.09638228148550
C        10.21809074068657    3.24937911462991    1.44634057884658
C        10.12356392070270    3.01633167885704    0.05243183701235
C         9.17961107484653    1.96322681235057   -0.17440382616191
C         7.73501290105589    0.47549300474346    1.45251550310495
H         8.27917964395179   -0.20198450741643    2.11330618151296
H         7.44702026260978   -0.08004174424077    0.56751656800143
H         6.84127423660215    0.81395444557767    1.97882458511806
C         9.16733341137121    2.25691037293202    3.57874988376566
H        10.05252912830751    1.75218588057552    3.97240272206510
H         8.28450006672658    1.67894416072924    3.84011888612594
H         9.09468750240870    3.23602665168028    4.05300932689075
C        11.22821807635738    4.11741527403295    2.12670795967944
H        10.80445027854090    4.56685153228440    3.02274670344898
H        11.57386892211071    4.91391267865051    1.47106518846076
H        12.09071418483022    3.51400287877749    2.42127472423922
C        11.11973203653195    3.58567646406438   -0.91216143791100
H        11.08619652429498    4.67599354867412   -0.91351181239987
H        10.95681638131677    3.22028698704255   -1.91869714836658
H        12.12509534995151    3.28953347832459   -0.60453086836881
C         7.49129947819698   -0.07917887328478   -2.11577794547210
H         6.92184917135892   -0.04675298364943   -3.03940070196144
H         6.81998473918658   -0.41696581248961   -1.33707459147586
H         8.25447625493854   -0.84162961964604   -2.23544808026707
C         9.44769274740308    1.60725253675247   -3.41345440577380
H        10.14314070084199    0.77590033446418   -3.35090655281460
H        10.03068606265389    2.49826584142359   -3.60693767251407
H         8.82279875194223    1.43910637571945   -4.28492604087156
C         6.10545848724674    3.13082048629322   -0.63625310037660
C         5.77962485091227    4.48719144715944   -0.33719043659345
C         6.72341658275170    5.31616093777586   -0.97506674139077
C         7.64075706572540    4.48967997879737   -1.66909614312317
C         7.22776738667944    3.12597639586638   -1.52903385762344
C         5.17812067506610    1.99435328170637   -0.31658536374366
H         4.99782674973426    1.94106565435034    0.75787108419721
H         5.57616890788550    1.04762818979987   -0.66155391120899
H         4.21971300657211    2.16040439820841   -0.81301383301276
C         4.56848278701165    4.97585569584790    0.39102085817884
H         4.84874940009466    5.73826434826507    1.11850359332636
H         4.07011290662290    4.16359015454923    0.91383409021226
H         3.86892035197928    5.42313899912712   -0.31863693114214
C         6.66907326447043    6.80971082963108   -1.02832737193163
H         5.96751527350947    7.12363350304572   -1.80549199043197
H         7.64466078556719    7.23527700299233   -1.25354583606954
H         6.32709251263847    7.21339117315236   -0.07722002092619
C         8.64315744257544    5.05785038300909   -2.62783548645084
H         8.12210795435973    5.66172774904289   -3.37404587460675
H         9.18637933850778    4.27879579890571   -3.14849815658888
H         9.35089081600189    5.71058171561127   -2.11505994067605
C         9.24021249277626    7.64854376729618    1.99482287843587
Cl        6.60950446136933    3.61585789255050    2.36138627431366
F         8.94063770568501    8.25144480092308    0.83792658469905
F        10.53456810654137    7.31225473579786    1.93740402234655
F         9.09291279430782    8.54171906720738    2.97143497039921
O         8.66218178640188    5.43490953475775    0.94437919511273
O         8.67469967473077    5.48415199909777    3.38065843319354
O         6.84722672974153    6.56143772912685    2.11695458792650
S         8.19284251697708    6.09690360259145    2.18741706750788
Si        8.34216869981864    1.61957584189801   -1.84553847017019
Ti        7.92682783333829    3.75059836455455    0.57856585172000

