45
CSD_code = ABOMAI | q = 1 | S = 0 | Stoichiometry = C20H18ClN4NiO(1+) | MND = 6
Ni        4.70557960266893    2.66493330800137    8.07472920966924
Cl        6.28462410539927    2.74589426943027    9.52700430572529
O         3.49697110004127    1.53160492264294    9.85177164879774
N         3.11906408855282    2.42686974355246    6.93420761557990
N         3.89384531182715    4.25861759902201    8.63018989607191
N         5.93539318264134    3.59063733964971    6.48247249976723
N         5.54759956437389    1.14847521463291    7.48384543679279
C         2.77502557670997    4.54549963452576    7.93798410976632
C         2.11119931966614    5.75850602097571    8.11068305958560
H         1.22236485614999    5.98131434709003    7.54464785013426
C         2.60170623485852    6.68566904489850    9.01364140147403
H         2.09791012239886    7.62869948836776    9.15710202765865
C         3.74764731925624    6.37221633763703    9.72493072516878
H         4.16712765216059    7.05622176969123   10.44411933355055
C         4.36009747181718    5.14979880675240    9.49859385832417
H         5.25684399060525    4.87441631359069   10.03946975350998
C         2.32038427879123    3.50389046139771    7.01136256006916
C         1.14814959600108    3.59469077679486    6.26234909595557
H         0.51169260131857    4.46041481677040    6.33623290295540
C         0.79773908484636    2.55464710726064    5.42041586825776
H        -0.10702919832802    2.60535510609423    4.83516773397924
C         1.63045512313378    1.44968858151453    5.34910635826909
H         1.39756866406763    0.61382517823809    4.71006546659643
C         2.77839110089323    1.43361885754454    6.12440542017767
H         3.43904489773554    0.57831758865709    6.08702212224511
C         6.56272617951272    1.30464369720332    6.62134433793544
C         7.24874990736597    0.19917057410958    6.12187999263430
H         8.04251519220074    0.33429302252396    5.40601890735296
C         6.89820931126141   -1.07020959596869    6.54443750072961
H         7.42793842357811   -1.93458817231017    6.17591449968152
C         5.85832531302565   -1.20727354752879    7.45125052806095
H         5.55709368114533   -2.17534542826895    7.81638738148277
C         5.20527822930718   -0.06822961771730    7.89044263541156
H         4.38730607185077   -0.13214788742255    8.59688561131655
C         6.90213168524545    2.68777206536796    6.24931681701490
C         8.14330904513846    3.04969237078229    5.73352152722781
H         8.91916608536480    2.31513828253281    5.59428317204574
C         8.38302077826730    4.38080865008143    5.43621938683769
H         9.34003355057986    4.68847514361311    5.04440620922145
C         7.37565580258462    5.30602277035637    5.65576456953482
H         7.51804088312434    6.35067757069381    5.43211685603818
C         6.17312688602911    4.85909803531146    6.18130488311474
H         5.36294011104937    5.55368512775217    6.36680232053010
H         2.78654385650973    1.98112274766465   10.31723973079555
H         4.25699335927470    1.52067155649033   10.45334287295043

