103
CSD_code = ABORIV | q = 0 | S = 0 | Stoichiometry = C46H48O6P2Pd | MND = 4
Pd        5.84078135737441   12.05798718188155   -0.00008364471581
P         5.48262915981405   14.12397518603647   -0.87922959753061
O         4.09482953288431   11.98003017909199    1.00019695855544
O         3.41676446366990   11.94515407819810   -1.10210312288288
O         3.51399690471107   18.02386347462500   -0.12210621663232
C         3.20184488087273   11.86634077938298    0.11068798715886
C         1.78788559913922   11.60613611077720    0.61966804880375
H         1.65690687785233   10.52997958295239    0.71636103064600
H         1.06106561455080   11.98350448973413   -0.09401548347705
H         1.64905807302813   12.06184536559080    1.59629527759179
C         3.89113723889963   15.01826227774644   -1.14702156086911
H         4.11438615081236   15.94864445973158   -1.67766551498466
H         3.24431572610655   14.39780975636601   -1.77068008833996
C         3.21430579501486   15.32598875172880    0.19088515458998
H         2.91140790021337   14.39291172051566    0.66776413454553
H         3.92789830054131   15.83526248176920    0.84459183117316
C         2.02390222419531   16.21353523936544   -0.02103449859289
C         2.21713567227573   17.59417853435911   -0.18623279215993
C         1.12425250811974   18.42339582758488   -0.39808547466780
H         1.25301614232706   19.48740065135994   -0.52174343559826
C        -0.15287090875817   17.88801872012396   -0.45725252488580
H        -0.99328614811988   18.54533351363112   -0.62452688251346
C        -0.35019859673664   16.52996917997744   -0.30421091349316
H        -1.34550622199684   16.11505894175222   -0.35094349574163
C         0.74037786709646   15.70301599169895   -0.08708870950340
H         0.59708391978774   14.64005417979094    0.03911367012907
C         3.77249363766883   19.40309269351402   -0.17677283414087
H         3.48617509738123   19.83099340639735   -1.14373560666651
H         4.84878385906906   19.50326365279307   -0.04308052376879
H         3.25815496648797   19.94324328466348    0.62465757124723
C         6.17382775294461   14.08626796676520   -2.56018252530210
C         7.27786470056122   14.80664221693505   -2.99314061254207
H         7.77684603802392   15.49434795901288   -2.32542341799725
C         7.75818976654283   14.62340264809664   -4.27935329744289
H         8.61844447470009   15.18551005478878   -4.61467839777262
C         7.15060001939469   13.71635999293194   -5.12986258101887
H         7.53329558816038   13.57600523462511   -6.13057791392930
C         6.06590620334004   12.97283242461925   -4.68969358263848
H         5.60788175309769   12.24767534585539   -5.34690784116528
C         5.58283525048437   13.14934192978904   -3.40768515401621
H         4.75386986542534   12.55658646932774   -3.03509845777311
C         6.40869433850942   15.36007585626539    0.08580190580066
C         6.84611379169086   14.95656659170428    1.34566441565355
H         6.63747035667202   13.93697480720996    1.68411560427447
C         7.53638906315168   15.84071163529468    2.15643184467875
H         7.88235747690970   15.52404223221747    3.12905278484035
C         7.78400307675026   17.13139954286939    1.71811673840322
H         8.32809280467629   17.82148398421432    2.34675960850467
C         7.32626535364724   17.54421134667396    0.47654094325343
H         7.51316809908433   18.55552448028113    0.14277718327652
C         6.63350151173934   16.66644143487374   -0.33743880250169
H         6.26203646888669   16.99714980604045   -1.29701655342198
P         6.19855503995299    9.99228114849877    0.87894415703020
O         7.58690292062945   12.13577831664316   -1.00020468761155
O         8.26451823470667   12.17057329964926    1.10233120649370
O         8.16606991166225    6.09217481860993    0.12540374959898
C         8.47968891629398   12.24950683644735   -0.11041623923823
C         9.89384543045905   12.50918362451772   -0.61912594782292
H        10.02560941202526   13.58539919621009   -0.71435974858763
H        10.62037795447046   12.13036018451018    0.09405089716064
H        10.03223461901158   12.05466798256248   -1.59634850956841
C         7.78988601407048    9.09754666381688    1.14672887262021
H         7.56647003391714    8.16726895704942    1.67744179030785
H         8.43688099205327    9.71790509173932    1.77028207049278
C         8.46658303878628    8.78950846324608   -0.19118478887120
H         8.76960674007339    9.72244055279394   -0.66824212044634
H         7.75282877510507    8.28026070245706   -0.84472764118948
C         9.65685919253122    7.90170868837325    0.02058449231421
C         9.46320133557076    6.52132510297893    0.18755826076108
C        10.55593095683301    5.69183140505095    0.39907660299815
H        10.42680722103147    4.62802361935173    0.52407809853591
C        11.83337954730263    6.22666443632900    0.45611273199960
H        12.67368675998907    5.56913787847449    0.62310793142483
C        12.03116341668994    7.58444285493302    0.30128480150260
H        13.02672433260274    7.99893064694453    0.34633601594294
C        10.94071799488561    8.41167346067935    0.08451447421075
H        11.08439913569163    9.47441239668753   -0.04310831066810
C         7.90694678283128    4.71315814736460    0.18234280922289
H         8.19430445088746    4.28647002014436    1.14953388002660
H         6.83043235189698    4.61334580971250    0.05019039317848
H         8.41995807602714    4.17160910072424   -0.61899373219072
C         5.50719798902177   10.02933983503437    2.55993507263648
C         4.40287623941279    9.30907215027241    2.99244684648566
H         3.90380336596525    8.62178826648031    2.32438363431979
C         3.92240148822199    9.49195399435557    4.27866856044058
H         3.06197645490636    8.92993139597118    4.61363919898272
C         4.53014948930552   10.39847569955804    5.12962074787445
H         4.14738208048126   10.53850539171372    6.13034995279851
C         5.61510488524976   11.14190561872971    4.68989602526333
H         6.07318869339178   11.86671204359516    5.34743140710954
C         6.09830539083668   10.96579262490700    3.40787519865207
H         6.92734136737280   11.55857462221280    3.03557889354051
C         5.27252846759362    8.75639552392364   -0.08651467124749
C         4.83562478813418    9.16026982612574   -1.34642403884842
H         5.04479503693548   10.17984569031960   -1.68465234547986
C         4.14537196431623    8.27650742931539   -2.15759890959728
H         3.79992742151243    8.59343577917508   -3.13033548729012
C         3.89724257408749    6.98579866281528   -1.71962759767970
H         3.35315626696790    6.29600103823271   -2.34859330794425
C         4.35449105076988    6.57259701195297   -0.47801508399864
H         4.16706467256482    5.56129934431475   -0.14447432938106
C         5.04727317522308    7.44998993489728    0.33635629162980
H         5.41824620103716    7.11901505608336    1.29605179765578

