59
CSD_code = ABOSUH | q = 1 | S = 0 | Stoichiometry = C16H32CoN10(1+) | MND = 6
Co        1.32440244209867    3.04094482000447    4.12428168074393
N         0.35384196993729    4.21203107704034    5.29314661738504
N         2.81679443902878    4.36788211080005    4.25085797100944
H         3.28381052145632    4.01762098668411    5.09556595078887
N         2.29260817016863    1.87133220136707    2.95319664272122
N        -0.16825136954478    1.71521837955097    3.99792903804589
H        -0.63753213061282    2.06752667625066    3.15532919883466
N         2.13447212364692    2.21835121039060    5.62895598347004
N         2.81549236752258    1.26312287758518    5.65275063196953
N         3.48901421022040    0.35933945240741    5.77211789829315
N         0.51646731550609    3.86495455225894    2.61853102277415
N        -0.17600961819141    4.81195808514798    2.59668665144241
N        -0.86259950279895    5.70642147138537    2.48123445867708
C         1.18399541012321    5.32129332179645    5.73721991519934
H         1.69887097924859    5.01981244830565    6.65709270732592
H         0.58892302853693    6.21403715122765    5.94152992963306
C         2.20099320297847    5.63789308275598    4.64634521853914
H         1.69575370582757    6.08553727093171    3.78886620376860
H         2.93912212158405    6.34845219053129    5.03051916134744
C         3.87956123389893    4.44452120741819    3.22280946945360
C         4.43121403298984    3.01866904886575    3.03609647421272
H         5.29687778305587    3.07847791313925    2.37818863604154
H         4.79273333732183    2.64390587802046    4.00124411790135
C         3.48493624314532    1.98238944020489    2.50588218819288
C         1.46033639678118    0.76534001535856    2.50527146897654
H         2.05436492465664   -0.12701112226262    2.29598038300629
H         0.94395044987684    1.07102259403285    1.58762036855099
C         0.44536681737820    0.44565908886958    3.59714932064968
H        -0.29435709418661   -0.26286790341988    3.21237323150909
H         0.95213007549738   -0.00534991413855    4.45198248853736
C        -1.22836677165186    1.63722867339840    5.02864577599694
C        -1.78440753222332    3.06148426748302    5.21394754364106
H        -2.15393547284205    3.43215953062434    4.25019865092148
H        -2.64581008398474    2.99978978007120    5.87733789363516
C        -0.84056347924495    4.10428508603351    5.73577502780184
C         5.03287268575286    5.32499469242399    3.72281404538194
H         4.74125986819114    6.37030392323784    3.76739393499550
H         5.87390453746636    5.25498655142648    3.03896105033782
H         5.37357359514356    5.01026143112630    4.70755369561824
C         3.35401629508490    4.98141937676605    1.89448514827099
H         2.47613002083722    4.42711399041498    1.57462689986906
H         4.12200072739736    4.88556764972385    1.13233072276365
H         3.09370767511146    6.03320448018111    1.97105204043460
C         4.05237769914260    1.04106804888329    1.49269698931071
H         4.18241908769541    0.05069748773904    1.93197944812816
H         5.02138175217735    1.37630700408232    1.13862361174831
H         3.38355854640032    0.94296957042463    0.63902145600413
C        -2.37975346939611    0.75152046911747    4.53332751091997
H        -2.72050427247130    1.05937501813795    3.54643078228549
H        -3.22140262998165    0.82420237130100    5.21614270940310
H        -2.08597574308398   -0.29345810128838    4.49563260962966
C        -0.69873377624198    1.10501175908046    6.35723335670511
H        -0.42698651936145    0.05616000393098    6.28045577591319
H        -1.46888218204254    1.19216164509829    7.11826004969576
H         0.17267986977492    1.66832608314408    6.67890807672466
C        -1.41448920788785    5.05595124546971    6.73584015915910
H        -0.75146685980225    5.16322454599578    7.59286813381417
H        -2.38579340926887    4.72436123441559    7.08699939029727
H        -1.54189453784449    6.04143656904494    6.28490248159251

