97
CSD_code = ABOWAQ | q = 0 | S = 0 | Stoichiometry = C46H44Cl2NO2PRu | MND = 9
Ru        7.41801030807037    1.84929419544723   11.25212142628991
P         8.54056119043209    2.20509281101244   13.20071226598341
Cl        8.97351277327827    0.18826311433038   10.69789348855688
Cl        6.24643711859495    0.15243869421562   12.36325727920762
O         8.08683354401992    1.60859173020056   14.61347619828269
O         8.26106816404822    3.80732248666957   13.36345077276245
N        10.19247104754696    2.02874426430334   13.40844817834274
C         5.46128921474316    2.96993827267825   10.72552759702885
C         5.73940670324582    2.01838387191229    9.70062717244441
H         4.97005317524940    1.30559029634062    9.42129957437372
C         6.95542131003948    2.02495042988536    9.02175149375315
H         7.13437022757766    1.31886853617513    8.21710238500386
C         7.96887715705285    2.97523223458559    9.34325408361126
C         7.69031674298392    3.92313276678784   10.34093698109544
H         8.40098689834639    4.71511310207668   10.55130637469795
C         6.44320229630419    3.92642815810160   11.01799986182074
H         6.23998799475652    4.71415556713134   11.73268144020851
C         4.09501778129429    3.00962191752090   11.36556664281363
H         3.59636567701422    2.05646809305462   11.15758053994082
C         3.27548756199224    4.13878972437934   10.73158373494291
H         2.27247600878552    4.14764889650215   11.15071532398230
H         3.19902763864415    4.00376061833912    9.65407651560125
H         3.73906197669904    5.10385598379211   10.92690357834730
C         4.17876510666677    3.16862015673452   12.88265544685504
H         4.82165999885771    2.39307934515500   13.29443890558658
H         3.19122988929536    3.06579221205328   13.32544535143496
H         4.57527243764931    4.14097103775227   13.16623122791037
C         9.25883682917421    2.96638391899626    8.58065322176045
H         9.06626124708244    3.04470321004990    7.51082104399797
H         9.78088998286787    2.02426249188088    8.76214927279118
H         9.90463923488461    3.78768860928624    8.88407307286881
C         6.87009161231276    1.93645032253748   15.18563869031594
C         6.65134141138758    3.21338394296365   15.65577000902733
C         5.35356205838953    3.55041902112387   16.13806359479973
C         4.98425738062204    4.87875581273756   16.43920256214796
H         5.70752021993607    5.66837762212588   16.30070439683464
C         3.72418638218797    5.17475911001192   16.87986493664302
H         3.45406213804761    6.19770253609229   17.09746490864082
C         2.77160808034269    4.15951673654734   17.04833039835166
H         1.78416574720487    4.41007164361252   17.40702051544579
C         3.09174012469461    2.86607080714118   16.74513720952176
H         2.35998502485496    2.07826511697918   16.85140482332072
C         4.37583282720395    2.52934798466375   16.26937836210251
C         4.70844398378061    1.20471020280897   15.91423064880774
H         3.97685154361302    0.42449712633785   16.05868465230918
C         5.92044834427222    0.91673194798218   15.35655264350623
H         6.17088468728392   -0.07636652833741   15.02384068991109
C         7.75594122162113    4.18960865186611   15.68871623838755
C         8.50412919688504    4.46114208711846   14.56438253178122
C         9.48490690129153    5.46515991685890   14.56339277580253
H        10.01203754794613    5.66294920775846   13.64445087641463
C         9.74860482395214    6.17120872679832   15.69985487679874
H        10.49140917486187    6.95529684462809   15.69382401884960
C         9.08424598615981    5.86190050464641   16.90422996024280
C         9.40314614175399    6.52223776724319   18.10918404522656
H        10.14874481778717    7.30436084387343   18.08557962144277
C         8.80081048905332    6.16833570582741   19.28312209341570
H         9.05410100775265    6.67385300123538   20.20331727147100
C         7.86344613577008    5.12558689061438   19.29976368046685
H         7.41844307242493    4.82769280192549   20.23760386528696
C         7.51640383459975    4.48172576797256   18.14478404502081
H         6.80971303876971    3.66759302231118   18.17594657780411
C         8.09321748936108    4.84531452171863   16.90921187501448
C        10.71126322498177    0.96826866843904   14.28183959439156
H        11.80135788238695    0.98877543569835   14.17453602310334
C        10.41706666318101    1.31244714322145   15.73153609034637
C        10.77404038778145    2.57017972877330   16.20797262901326
H        11.21794868784700    3.28932504460224   15.53590497257185
C        10.55775794105062    2.92186495404231   17.52722841869893
H        10.85660599360950    3.89874611056968   17.87784740067308
C         9.95916654699534    2.02665118427542   18.39594652637014
H         9.77978156792487    2.30440094782587   19.42413873428321
C         9.59194048860086    0.77657144927334   17.93211379371343
H         9.11956729649918    0.07006569365850   18.59941688275360
C         9.82796268674842    0.41776673389922   16.61620277966282
H         9.52887739558063   -0.56211071516004   16.28277637644704
C        10.22073726212566   -0.41061544832320   13.84944673143096
H        10.50128998352798   -0.59457285763003   12.81703130408498
H         9.13518663856828   -0.46232406721815   13.90794252200826
H        10.66175667445791   -1.18672887658219   14.47037159837342
C        10.96696486443937    2.50726151600120   12.25588337293644
H        10.21134124418625    2.78246389237353   11.50185443203292
C        11.75432789723730    3.75509910551890   12.59321169371196
C        12.74401662770099    3.75788245959891   13.56885380184652
H        12.96719134799022    2.85548825372057   14.11625297973132
C        13.46223561233690    4.90814038546909   13.84582274789099
H        14.21949373901526    4.89253716424821   14.61599435283803
C        13.22290036818271    6.07061874096543   13.13399183505705
H        13.78800435345391    6.96597014105419   13.34659898329089
C        12.26262368279882    6.07357953573193   12.13745795650643
H        12.07695587798284    6.97171309877898   11.56571402504108
C        11.53457826109794    4.92535056547273   11.87636657664345
H        10.78314985215197    4.93508877069053   11.09870494681359
C        11.90673949890504    1.49680519281686   11.59534030037670
H        12.39515728781062    1.98735310185222   10.75564266386577
H        11.33973001466234    0.65188173566421   11.21755941837532
H        12.67920246489289    1.15160879562523   12.27610368770025

