64
CSD_code = ABOXOG | q = 1 | S = 0 | Stoichiometry = C34H20Cl3N5ORe(1+) | MND = 6
Re        2.25806805863756    1.38523549809113   13.98468174695018
Cl        8.15839596143494   -3.03975737522403    8.82013876304350
Cl        4.24987500123814    8.91737691122529    9.47745583071755
Cl       -4.68737306861744   -0.12338269656597    8.43632053941582
O         4.48575157963607    1.90296950089316   16.07681516185999
N         4.23308235253277   -0.28562843209349   12.15108706916967
N         2.86514873277478    4.13939992293678   12.53578681597330
N        -0.20474311694795    0.77693862882444   12.06149192433067
N         0.82945776386081    2.23186042420594   15.39488529542626
N         1.61645589253954   -0.32709963868124   15.16728071789078
C         3.51769114001594    0.37459658896474   12.80780036784474
C         2.66794819696121    3.09462809284618   13.03558896592437
C         0.71709005338257    1.01146467390989   12.73798774085864
C         3.68486488316091    1.71859409589606   15.28698479599060
C         5.14492053521116   -0.92372405613269   11.37702149974590
C         6.44046690278136   -0.41456110858777   11.26566572010577
H         6.70511564450194    0.48658679209580   11.79660477004736
C         7.36499955016306   -1.06872605853290   10.47844604526868
H         8.36772985931549   -0.68394231313964   10.38396907990334
C         7.00240792348125   -2.22909133356341    9.80320531608271
C         5.71440351156186   -2.73978093776209    9.91463831161023
H         5.44634854514296   -3.64086802000616    9.38675119529429
C         4.78520935986204   -2.09020170793300   10.70089073463053
H         3.78062911634305   -2.47366323881021   10.79339187207817
C         3.19368669247209    5.25033183842139   11.83040473163427
C         3.83260112041713    5.12291929650782   10.59518013615985
H         4.06636017515644    4.13928446861667   10.21825513760640
C         4.15786304320787    6.25336269934897    9.87524332171486
H         4.65212457017077    6.16662105276268    8.92095875360940
C         3.84750872804141    7.51065986426825   10.38203162403511
C         3.21515205123281    7.64089446729016   11.61294877554252
H         2.98337848043190    8.62152078953468   11.99636823977497
C         2.88763594776808    6.51334302874081   12.33769399439714
H         2.40002094550674    6.60327032951702   13.29612026949969
C        -1.24371923365375    0.56290137943853   11.21792584506167
C        -1.45358975991467    1.43512906095664   10.14858936265561
H        -0.78338458695678    2.26790859927993    9.99992399357411
C        -2.51445613780778    1.22006689198722    9.29417952719857
H        -2.68735309600358    1.88669762673556    8.46473153394227
C        -3.36481107498685    0.13934513235329    9.50328665902377
C        -3.15481997111819   -0.73112702372816   10.56715224700116
H        -3.81975767473964   -1.56642361531733   10.71683537768819
C        -2.09593692351804   -0.52157384518003   11.42620751161465
H        -1.92155336954836   -1.19101631502430   12.25514006835058
C         0.45748992272060    3.49566473262868   15.50398450736282
H         0.89786023610229    4.19065669435984   14.80099957094792
C        -0.45006044904725    3.94311809399900   16.46376973945598
H        -0.70712665697641    4.98920150155140   16.50162296994649
C        -0.99971945444586    3.04377435844244   17.34699579867702
H        -1.70312868758991    3.35675179424132   18.10304447672153
C        -0.62884892606715    1.69262773478182   17.25648258542176
C         0.29908254419928    1.33337935019438   16.25591536622737
C         0.71683826181353   -0.03042296485894   16.13335617570370
C         0.19376916429019   -1.00263860354748   17.01231467358376
C        -0.74601673806092   -0.60607631402178   18.00659340032338
H        -1.13388221258187   -1.36534891464347   18.66819301573335
C        -1.13933149395490    0.68492947193469   18.12413583425604
H        -1.84841711224418    0.98082799198458   18.88193991848891
C         0.63895317941652   -2.32567079260214   16.86067049640938
H         0.26346269698116   -3.09576895565801   17.51672734435239
C         1.55391441190475   -2.60873614774242   15.87378483539789
H         1.92357918660947   -3.61055652043774   15.72683112841620
C         2.01592855038125   -1.58199816692073   15.05049796489887
H         2.73845927141235   -1.78935428309560   14.27177280745119

