73
CSD_code = ABOYEY | q = 1 | S = 0 | Stoichiometry = C28H34BN6O2SW(1+) | MND = 7
W         7.96441923619940    7.70217258230909    2.97694469865596
S        10.22726155785130   10.44690756220138    1.91448352043373
O         8.17978816400091    5.38492873597077    0.87564234802450
O         9.59094191233739    5.72072927256292    4.78514357561043
N         6.04614814757999    7.07101593933392    3.73374414420266
N         5.07199945973780    7.97936444619396    3.98801738419821
N         7.67084636033576    9.17964386520578    4.52595480451165
N         6.51728312409937    9.87052678430734    4.63556620753538
N         6.67656757561882    8.93572041893881    1.75586817505093
N         5.68161532354305    9.66999374646741    2.29499360630235
C         9.54015702206113    8.94807134901515    2.29686470433873
C         9.95419197292509    7.67851848203516    2.23353396742909
C        11.12126872795635    6.94995172772457    1.83343259995847
C        11.21054884518238    5.55503695364305    1.94436860501481
C        12.35339349119262    4.89520365680429    1.54050053165089
C        13.42541613472140    5.60495604002652    1.01975712733845
C        13.35189910885795    6.98559011593527    0.90454966971459
C        12.21573356046590    7.65576841098732    1.30622485084301
C         7.99444166516911    6.22476647116279    1.63714050768544
C         3.97112786915339    7.35990480661362    4.43899250269145
C         4.24274634753682    5.99866560404588    4.47955398814286
C         5.55040015536817    5.85616879368834    4.03202002926926
C         2.71416401551670    8.05046250569829    4.81231281495116
C         6.31669162214073    4.58961707117553    3.89923207962175
C         8.92241585593898    6.44874142648501    4.19968479072615
C         6.61409269999355   10.77900071184089    5.62347219063952
C         7.88307218341956   10.66572229811545    6.16768913247911
C         8.51259843513614    9.64544205498408    5.45591950554980
C         5.52678662697609   11.71066801338403    6.00836789973830
C         9.88641958948370    9.10882286503879    5.66015466601490
C         5.08963487625312   10.41614201348653    1.34459636011046
C         5.73397607658461   10.14948864898405    0.14753027270331
C         6.71917054248676    9.20936871050388    0.44662488977504
C         3.96053330511592   11.34358658000690    1.59591629612599
C         7.67750236243426    8.56879040442474   -0.49576402682471
C         8.87884631137489   11.65536774650127    2.33583045360775
C         8.48756557282020   12.40469572122134    1.07525802055839
C         9.38100282349565   12.58131700326491    3.42853223196110
B         5.30882761634184    9.48871692382938    3.77140269420949
H         4.36019295548348   10.11863614868751    4.05605198721710
H        10.38268718256890    4.99461519442294    2.35075434850657
H        12.41153416664581    3.82162411166610    1.63171874213890
H        14.31533121713205    5.08365328054157    0.70322369105053
H        14.18426716243584    7.53930194766463    0.49844207406239
H        12.15512343440976    8.73078005666923    1.21781013562442
H         3.57870211908758    5.22011367839891    4.79238983457283
H         1.98073342222632    7.31770668172565    5.13536117160641
H         2.88670871406567    8.75535221625831    5.62315941295209
H         2.31047128978182    8.60202308864191    3.96567445668312
H         5.66782591889465    3.75214168232080    4.14162506465922
H         7.16446117611595    4.57305771776616    4.58317014661604
H         6.68771157851616    4.45607403145811    2.88436629794176
H         8.29264238867154   11.23940270097543    6.97287245592466
H         5.88350891882205   12.38393717404612    6.78219329566257
H         5.19740908778350   12.29777279645453    5.15347159047968
H         4.66764814569146   11.16345862073993    6.39183285869858
H        10.45666886792996    9.79714274267216    6.27923187061019
H        10.41352802611889    8.96686587537214    4.71344023395901
H         9.84556295280822    8.14946548272511    6.17842698644213
H         5.51551131111142   10.57323763411973   -0.81054744823218
H         3.71680109931029   11.87397643923630    0.68015877806688
H         4.21690341570751   12.06795184202380    2.36635037232944
H         3.07925295355134   10.79755304335746    1.92721903614450
H         7.68730981626569    9.11978983587228   -1.43285886957746
H         8.69233378397344    8.54381105943720   -0.09204786588819
H         7.36870567298784    7.54530934505697   -0.71328611421220
H         8.04824362910274   11.04542210472430    2.69605486277551
H         7.67873960122464   13.09875753221120    1.29451019655625
H         9.33297650293039   12.97310269012521    0.69414710397157
H         8.15197764535689   11.71854293361329    0.30074345690153
H         8.59535481879564   13.27909088573641    3.71099522878799
H         9.67644665090203   12.01983472260693    4.31201656391405
H        10.23712809617919   13.15293823855643    3.07727022250264

