100
CSD_code = ABOYOH | q = 1 | S = 0 | Stoichiometry = C42H51N3O3Re(1+) | MND = 6
Re        8.03810537854606    2.12656502555281    9.55303614308843
O         5.93987197687924   -0.07216943935014    8.87764981355904
O         5.93782444967060    4.41980847441908    9.37859223646150
O         8.80470566157368    2.50520230165696    6.55882923831412
N        10.45319234519640    3.98084092767150   10.54316480094419
N         7.45439274365201    1.80603033086464   12.69449160484713
N        10.36305399978609   -0.06463642073546    9.88712368557463
C         6.69113561441361    0.74620716400536    9.11335555936640
C         6.70308751313230    3.58326301956573    9.43470904829515
C         8.51563202218285    2.36023497100835    7.64743015787250
C         9.52669707728085    3.41487862671874   10.12540619089060
C         7.63159259753756    1.91300871872098   11.55023149258410
C         9.48002239814093    0.67976197016340    9.74721377704238
C        11.53993711029162    4.56386340760004   11.10702617678871
C        11.72274955919851    4.41974314844928   12.49271855936646
C        12.86397953983900    4.98217028924973   13.04052136794288
H        13.05392930061789    4.88933029884606   14.09668287453630
C        13.76605146773351    5.67234685976145   12.24820067518625
H        14.64428031801031    6.10833543803827   12.69855095840164
C        13.55474188609247    5.81435254004625   10.88763343588978
H        14.26850253154536    6.36223269885400   10.29548527595471
C        12.43983645094286    5.25596050817012   10.28234069567449
C        10.71352728527643    3.65033480066982   13.31296187995381
H         9.72187146921543    3.81206419785996   12.87114046372360
C        10.65210051960204    4.10251837553557   14.77013985775852
H        11.55036103403596    3.81619266749387   15.31012871841891
H         9.80500057516816    3.62708101104074   15.26036140882791
H        10.52943996335449    5.18092917878507   14.83493586481768
C        11.02810443660048    2.15097188546787   13.24112217834302
H        10.94439885742795    1.77969454146330   12.22122431523211
H        10.33392887938959    1.59449971666297   13.86701721012115
H        12.03853512050649    1.96162826281972   13.59558302168725
C        12.14616384660744    5.40073998867304    8.80933169577429
H        11.63671149413146    4.48950878828367    8.46943750602386
C        11.19048184294735    6.58366674023011    8.60827261621114
H        10.25959219921753    6.43312389974763    9.15176555251922
H        10.95804620749289    6.69809305407435    7.55279573995313
H        11.65096471754636    7.50306071073578    8.96215541096264
C        13.40162468884952    5.58686580690587    7.95944307789250
H        13.83577550647012    6.57135212702329    8.11072375682004
H        13.14406114840485    5.49702874646936    6.90694773430991
H        14.15039768022445    4.83321748160132    8.19493626923314
C         7.22664678320393    1.58452381236581   14.01237379741925
C         6.82300963827418    2.66066004749505   14.81752365637726
C         6.57226842447620    2.39303080670013   16.15396630620105
H         6.25186788689777    3.18583837084390   16.80892334339034
C         6.72314556511479    1.11318120623567   16.65961564354809
H         6.51579402504720    0.92491873279050   17.70167149757022
C         7.13386081334736    0.06981550858804   15.84690969836848
H         7.24179220413290   -0.91569049497478   16.26795134340460
C         7.40142203928681    0.28019888667412   14.50411029720716
C         6.62679002758322    4.02448044616126   14.20135574704457
H         7.37790937157884    4.15659949755489   13.41150121334782
C         5.23784537615484    4.08051939775270   13.55243353060676
H         5.12895410247167    3.31359755103301   12.78752266394566
H         5.08228845789139    5.05185952231118   13.09007589693583
H         4.46651434549204    3.92825744571518   14.30358898116704
C         6.78766055430384    5.16800298289815   15.20064375486220
H         5.95311551424280    5.20164755903958   15.89556136528735
H         6.81277611682003    6.11493515223010   14.66709442912900
H         7.71248251856471    5.06813298331828   15.76403150014383
C         7.81957798238089   -0.82555215359878   13.56436673607261
H         8.51784661186980   -0.40352005784146   12.82800940192080
C         6.58382381667714   -1.34100939344468   12.81532562738029
H         5.85860271868006   -1.74077250573565   13.51992395485146
H         6.86686376379143   -2.13329133626163   12.12657908586708
H         6.10642020304172   -0.54556976791779   12.24593799519920
C         8.52618070180117   -1.97993995568699   14.27108479709539
H         9.33738487799659   -1.61462356147911   14.89680043037277
H         8.94283625549761   -2.65746521480724   13.53046330294035
H         7.83286234457388   -2.54718428236523   14.88587017443609
C        11.43454149658370   -0.88878159510875    9.99829109285926
C        11.21011613215838   -2.26373883741184   10.17315053067990
C        12.32340924473127   -3.08488219316096   10.24563983471062
H        12.19956050711126   -4.14784773700454   10.36722430098808
C        13.60028155540933   -2.55617633301827   10.15879279357138
H        14.45359272689805   -3.21438949122555   10.21222100821704
C        13.79612672324462   -1.19517788791969   10.00189067440911
H        14.79960831358743   -0.80845060933628    9.93596662794937
C        12.71912879916831   -0.32679383177300    9.92222441518220
C         9.79544517027129   -2.78790278475961   10.22503677993230
H         9.17690400486620   -2.04648339499365   10.74798757726658
C         9.67419664292554   -4.11745745129701   10.96696812333745
H        10.10016816213604   -4.93029092427898   10.38520137244432
H         8.62473081770423   -4.34772595943320   11.13540886749196
H        10.17794979208540   -4.07480752969426   11.93042020208661
C         9.26073244643063   -2.93322953866256    8.79448756920140
H         9.27544296392221   -1.98046128692400    8.26843881229423
H         8.23697951000237   -3.29807950480867    8.81490638582308
H         9.86853224976126   -3.64236067584162    8.23762490922051
C        12.89712303306565    1.15528752755809    9.69719966639463
H        12.00602124569994    1.67590835389659   10.06810462641479
C        14.10709509899599    1.72784748910488   10.43449919838057
H        14.10203630855376    1.42146858967943   11.47804015792810
H        14.07808396931344    2.81478494014445   10.39772031914275
H        15.03763968547380    1.40237529143621    9.97872880121425
C        13.00654110621483    1.41534959219100    8.19054291439139
H        13.85832169930444    0.88156796497079    7.77650368928476
H        13.13945988870583    2.47724380942037    8.00176409248149
H        12.10827824993374    1.08151998136329    7.67408043657150

