28
CSD_code = ABUBOO | q = 0 | S = 0 | Stoichiometry = C11H7N4O5Re | MND = 6
Re        1.31051976133458    4.17426122232636   10.00565634766159
C         0.04161274256235    5.53106524414488   10.60180173366735
O        -0.66949018986115    6.37088431889985   10.90303055393315
C         1.25716416697046    3.25051579026521   11.71167402534225
O         1.27518249294886    2.70093231662040   12.72011532581665
C        -0.14117209849603    3.09377537294760    9.27658101615190
O        -0.96183819276552    2.47306787168318    8.78373141553734
C         3.99355778401784    4.89115227912273    8.31741155339270
H         4.89699099536955    5.13038952039696    7.75279763249999
O         1.59770025836352    5.22260715864974    8.03726104377312
C         2.67239881454852    5.44933842471967    7.47249383532061
O         2.94750592830864    5.99320884711142    6.43412601362797
N         3.02905835235786    5.39708787421506   10.46855032617870
C         3.30225560373256    6.19083758525726   11.49530141911780
H         2.64457713731189    6.23248380956419   12.34223205133956
N         4.02460174309096    5.54566493953653    9.59096562951398
C         4.49454126112256    6.87489327283118   11.26701484262239
H         4.97076453166242    7.58677514443083   11.90762737658094
C         4.92739855304557    6.43780818942131   10.03433845703902
H         5.79101750694012    6.69809100845422    9.45717446020959
N         2.84461144536712    2.93291545670564    9.12923503233051
C         2.96048437589168    1.61714272530720    9.01013091709943
H         2.25062424181057    0.96276095292784    9.47859397118106
N         3.86958598522293    3.47187167469003    8.46418613981892
C         4.07869721774932    1.30322830301149    8.24028609230007
H         4.42941515886855    0.33071244961679    7.96613543665535
C         4.63498693017164    2.51823689551621    7.90534466534193
H         5.49764749235352    2.76129135162634    7.31930268594634

