40
CSD_code = ABUBUU | q = 0 | S = 0 | Stoichiometry = C15H15N4O5Re | MND = 6
Re        9.29066508566125    6.67864317298059   14.18229943792212
O         8.32981637134199    8.98933462885968   15.99433537902257
C         8.65613180151723    8.14587425522505   15.29635306635985
O         6.81501572960069    6.82058025977462   12.33903473046978
C         7.73985324066520    6.78298769952827   13.02627439507577
O        10.94154338217640    8.65321167654287   12.47334891047220
C        10.29490172984512    7.93652091235002   13.08415309742518
O        11.06706058303553    6.39501821127434   15.52325922100262
C        10.63714828341543    4.00653960099366   15.42534175039739
H        11.09726586107818    3.11383226281140   15.84870624189976
O        12.42676022830221    5.03856737885829   16.65852731834405
C        11.49286342433311    5.30990394391022   15.94012281844929
N         8.50175265135320    5.14368948283300   15.52117695667856
C         6.23663598371008    5.98903135805162   16.07469361315774
H         5.30249681959715    5.49269384359999   16.32507139316296
H         6.18253635886091    6.38429798045301   15.06203063469061
H         6.37363460391159    6.82775666458502   16.75699202719829
N         9.28780247938548    4.11855431086934   15.89611737204765
C         7.36678927243801    5.03508322654509   16.20722242833925
C         7.44073366243733    3.91849568496410   17.04599304744373
H         6.68701178558288    3.57264558868886   17.72256703375055
C         8.68294133945435    3.35645021673612   16.83326694469590
C         9.31800609407065    2.17049221730820   17.45839271200882
H         8.62484208132790    1.72583291807205   18.16683674813315
H        10.22536258213584    2.45351582836711   17.99259916514511
H         9.57628525499606    1.41976059907380   16.71039101946324
N        10.19432058584410    4.93041278933079   13.23171868482385
C        10.12158383003915    5.49895188755489   10.81789468785473
H        10.89829047026686    6.24011757377956   10.63073696784176
H         9.19238449938399    6.02786510525324   11.02118476312811
H        10.00857810371817    4.88906738718740    9.92512478449599
N        10.69851888745360    3.94389607235082   13.99452696083110
C        10.50258083809382    4.64268816900819   11.96965594469328
C        11.23051022500058    3.44903108563289   11.93405667423394
H        11.62293678618130    2.96217566232842   11.06547076032784
C        11.34898598426309    3.02895204032420   13.24311303442616
C        12.03554709345533    1.84275726634678   13.81067821595894
H        12.47249018817663    1.26242222032999   13.00299867864610
H        11.33845536229787    1.20526276425986   14.35605546174026
H        12.83246045559095    2.14528605305673   14.49047691824182

