98
CSD_code = ABUFEJ | q = 0 | S = 0 | Stoichiometry = C46H46N2OP2Ru | MND = 6
Ru       -1.90782542433050    0.15797229995006   16.25248054584917
P        -1.08430439987925   -0.03851451825882   18.36846176073310
P        -2.74426332823233    0.18087176872006   14.12349307108856
O         1.02563946983377    0.15152891471167   15.59722455427770
N        -1.56073170764657    3.33205379415282   15.96753369428094
N        -3.20244140788473    2.60749694857826   17.13526318360466
C        -0.12349641142030    0.14039239294366   15.75918938358113
C        -2.13714549620437    2.19755798586150   16.42394262565458
C        -3.29931195495017    3.97819523939074   17.15121815913848
C        -2.25974624799722    4.44185831485712   16.40593472357785
C        -4.08043329005011    1.64646130048886   17.76090102100224
C        -3.94571797665946    0.31151258885320   17.02101727472700
C        -0.40547257861240    3.39269051604280   15.11036752767823
H        -0.54533434071198    4.20795317557265   14.39458269082718
H        -0.36286549293392    2.45184125717333   14.55433375786410
C         0.89354813737248    3.57909531916721   15.88713822813288
H         0.85969509904634    4.47329433951600   16.50527506881404
H         1.72623919322169    3.66316864898718   15.19383075772726
H         1.06563763834007    2.72335310984845   16.53421483197335
C        -4.37993982616142    4.69429375310687   17.87912487805088
H        -4.20615841913489    5.76661603640774   17.85362679554622
H        -4.42084943942742    4.37184070627733   18.91987232513127
H        -5.35168307855936    4.49157758504817   17.42662911487151
C        -1.89086992773942    5.83269259800538   16.03382350937249
H        -1.98449246457554    5.97969463374899   14.95671497829003
H        -0.86540831263705    6.06089049247238   16.32167507700876
H        -2.55350723076652    6.53505846010514   16.53208074595015
C        -3.06065442550279    1.84735119831871   13.41889110784582
C        -4.05732311575789    2.58891973649098   14.05325946182624
H        -4.64316820411850    2.11903988372208   14.83217144694985
C        -4.30384711814448    3.89763749744106   13.69135410534123
H        -5.07594721030978    4.46316730846224   14.19369368221450
C        -3.55760698686864    4.48763646732112   12.68223815471157
H        -3.74378201859220    5.51399064665112   12.39944092552050
C        -2.58204585039632    3.75306618345051   12.03154110409217
H        -2.00926656867384    4.20367953731751   11.23311243688262
C        -2.33136653942612    2.43993105504049   12.39606705980911
H        -1.57281082940326    1.87638129983146   11.87205198961976
C        -4.35693878182460   -0.60097116363539   13.74333971509579
C        -5.17276594740742   -0.15258657107339   12.70878868163191
H        -4.88011753502936    0.70602805792679   12.12007579117938
C        -6.35831325394610   -0.80816397707955   12.42792751580676
H        -6.98945727881985   -0.45290844567806   11.62561523449477
C        -6.73577145108756   -1.91688067474144   13.16779523588734
H        -7.66373417375374   -2.42367418435579   12.94527868685506
C        -5.92086974913062   -2.37423718202865   14.19084465796935
H        -6.21116801586129   -3.24090118435669   14.76699905858273
C        -4.73671839056707   -1.71994535726908   14.47708830321102
H        -4.09069819443543   -2.05655382173028   15.27727971164697
C        -1.72302823813584   -0.60367195168848   12.81835769368266
C        -0.41631279764614   -0.15372859216469   12.63694072849291
H        -0.03856042989893    0.64971232758091   13.25467310053116
C         0.40590889712795   -0.72858076710277   11.68707519794112
H         1.41509676302876   -0.36446366668051   11.55815037877761
C        -0.06131847772665   -1.77541703595268   10.90884667580248
H         0.58107010859769   -2.22972726006417   10.16866401623157
C        -1.35140116718192   -2.24102821367079   11.09199759318598
H        -1.71852911248723   -3.06392261102176   10.49549444614626
C        -2.17907119738608   -1.66133298151181   12.03858103082129
H        -3.18120470129712   -2.04158689936084   12.17124172355499
C         0.11770689158344   -1.37610355923927   18.73112733517507
C         0.66325337405130   -1.46265178766932   20.01162730030306
H         0.38875591498771   -0.73140692615183   20.76075336835486
C         1.55353408847347   -2.47105639784062   20.32295386444668
H         1.97397364887397   -2.53037698513843   21.31679990826777
C         1.90587398472098   -3.40722988644047   19.36239135133824
H         2.60289778844931   -4.19544946051419   19.60784522244439
C         1.36101457552527   -3.33099735605209   18.09272151230727
H         1.63152490682074   -4.06048431718787   17.34311682817646
C         0.46700458682841   -2.32100430948933   17.77729667625690
H         0.02906122483646   -2.26157627865120   16.78916339679530
C        -0.10644231300130    1.41040739423453   18.91455638249890
C        -0.75370794228750    2.59426492358438   19.26419528097472
H        -1.83344213618671    2.62267596940368   19.30277441613905
C        -0.03103181380402    3.73245267679374   19.56779237350451
H        -0.54926100511041    4.64090019130983   19.84260658190246
C         1.35343831439349    3.70954923737124   19.51764836055224
H         1.91996704642891    4.59747816413818   19.75846055410461
C         2.00679097506232    2.54619975607677   19.14682092452452
H         3.08570658391375    2.52672585264071   19.09068047791220
C         1.28410528447178    1.40709524751646   18.83741073095353
H         1.80178170348826    0.50870161582071   18.53072083744747
C        -2.15839086068871   -0.40288273383318   19.80781375099955
C        -2.23142068175466    0.31493610659815   20.99452166501439
H        -1.62659496381782    1.19901854868499   21.14165771571295
C        -3.07604631963096   -0.10953322562362   22.00713895129074
H        -3.12955071006299    0.45366500947476   22.92848453675857
C        -3.84463932396248   -1.24956128659443   21.84782794650526
H        -4.50311392737041   -1.57173545247894   22.64142006238680
C        -3.75992044979432   -1.98111258223757   20.67319447834451
H        -4.34951762865216   -2.87824652258258   20.55074801778521
C        -2.91987075331889   -1.56068860202773   19.66096953752506
H        -2.83146771956851   -2.12030628939660   18.73751567320362
H        -2.05076204914458   -1.39146041762018   16.20175934649008
H        -4.73203046159262    0.29644579979482   16.24610969134038
H        -4.25405877118074   -0.47257687715363   17.72627451201036
H        -5.10417918409628    2.04511265577265   17.73911429939322
H        -3.79198066717488    1.52830578431401   18.81745919393876

