105
CSD_code = ABUGUA | q = 0 | S = 0 | Stoichiometry = C40H57O4PRuSi2 | MND = 6
Ru        1.30043340979447    3.48011465813890    9.54466952075183
Si        0.61770347207883    4.81153288574755    7.51838706567523
Si        3.38002913535565    2.56420922146319    8.49105512459625
P         1.54099837740898    2.42046687260927   11.80148338401098
O         3.40915180640696    5.17149976854119    7.33691882678582
O         2.95433644042140    5.91101996035924   10.26153625489334
O        -1.29708503999042    4.60238800632242   10.57339781975413
O         0.04444318098195    1.25686102689263    7.92943719479904
C         0.78601466678288    4.09675618575292    5.73541492776657
H         0.53625687458314    3.04263034539912    5.68658234358674
H         1.79138142547165    4.22109589474038    5.35453545689389
H         0.11331239885015    4.62732643521964    5.06829082131952
C        -1.26682552623505    5.26117033267873    7.54256685608971
H        -1.54729933815442    5.76079514467714    6.62046858429604
H        -1.53660529128922    5.91698400647067    8.36395837033296
H        -1.87638048282565    4.36545591996854    7.62372834394618
C         3.37148360681460    2.08043476670187    6.61231405540088
H         4.24263223134410    1.47378070893406    6.38256864868900
H         3.40784773673762    2.95664408328890    5.97838779554443
H         2.49121086434410    1.50739114398861    6.33884180399846
C         4.21931141662153    0.92778242764504    9.13713180007031
H         3.56725754498377    0.07441921340269    8.98464510024277
H         4.49706860444786    0.95075662607016   10.18397550023951
H         5.12455452544575    0.74519934654697    8.56634402816086
C         0.54743879157919    3.38791207695662   13.07416218433424
H        -0.40343519823080    3.54849041792914   12.54919679392608
C         1.15169804044740    4.76939088188492   13.33003125688615
H         2.04022061758507    4.67833847930440   13.95812261086653
H         1.44885373953731    5.23399957892857   12.38513019761298
C         0.13224108570461    5.65939524649598   14.03739900592714
H         0.56709065492467    6.64340515203296   14.22331183957632
H        -0.73730060263605    5.79636875072795   13.39046779178523
C        -0.30582488577633    5.02443467373478   15.35365291176433
H        -1.06495334430114    5.64576130947745   15.83211384720874
H         0.55040389080451    4.96453626914865   16.03008605477194
C        -0.85813640804666    3.62275314373227   15.11321100713546
H        -1.75693726108897    3.68817644549746   14.49528902000609
H        -1.14047139884316    3.16660831002364   16.06451567501808
C         0.18184520698565    2.74375165583011   14.41507112913424
H        -0.23352981820803    1.74517113620023   14.27898883312984
H         1.05173390601102    2.66262673882558   15.06352962946289
C         0.73539734485775    0.73885860023646   11.93493013193581
H         0.83962546396566    0.39642481535360   12.97196379178083
C        -0.75076339892694    0.83948107539790   11.58194807823390
H        -1.26698230327437    1.51347646058917   12.26771670012342
H        -0.85230622267221    1.25162955018071   10.57239142502359
C        -1.42726410713011   -0.52835827041457   11.63203885392558
H        -1.38407965090479   -0.91934275831413   12.65231706033132
H        -2.47918670205462   -0.42232439832198   11.35991538222443
C        -0.73546726237516   -1.50258066337189   10.68677492671860
H        -0.81260365088332   -1.13258699248453    9.66246118241645
H        -1.22281056139026   -2.47827261971110   10.73064121069526
C         0.73336476792090   -1.63125487593959   11.07029845611997
H         0.81031655427550   -2.04049288610807   12.08128747684303
H         1.23992360160786   -2.32025077727923   10.39192682916258
C         1.42326789571064   -0.27043680461227   11.01671124332175
H         1.40074233359197    0.10700361905477    9.99098508162356
H         2.46828614986802   -0.39493464974319   11.30409853845006
C         3.23394627844172    2.10315623618868   12.53474442270884
H         3.59242532553990    1.24774726328474   11.94886694350880
C         3.29726055577658    1.71303915463777   14.01075394764795
H         3.05129160770039    2.57469765937663   14.63189833712591
H         2.59683435962268    0.90689588377964   14.23561296248949
C         4.71709080781089    1.26856393764904   14.36135738076634
H         4.75832434612382    0.97371028770850   15.41227495674526
H         4.98915014205906    0.39827917397587   13.75964625774087
C         5.70493200234491    2.40074824409731   14.09772245572242
H         6.71919257929454    2.07198071403498   14.33134590156279
H         5.47031198704457    3.24550986527139   14.74981944553630
C         5.62349207296042    2.84412642549636   12.64046703335048
H         5.93436231372281    2.01855653464321   11.99692190668084
H         6.30326556721093    3.67843718667939   12.46045914118256
C         4.20020635293733    3.25990035216845   12.27480780870557
H         3.91876315438906    4.13131741394653   12.86880525114773
H         4.17168319951221    3.54499412021429   11.22032999646444
C         2.33313587483060    4.97162133490672   10.03098348146160
C        -0.30126239476618    4.17902586974441   10.19121000941841
C         0.50904532820153    2.05945125544484    8.61376039936819
C         1.50691454380869    6.50313940906114    7.42077344594911
C         0.92782787927772    7.76071201276840    7.45451011510658
H        -0.14558483605265    7.85129279690501    7.51453792130894
C         1.71792815332162    8.89734593774333    7.42820274653473
H         1.25754938938504    9.87434854578455    7.46306163333289
C         3.09751214559245    8.79875804502931    7.35979531350804
H         3.68477391269587    9.70323205181179    7.34446711981597
C         3.71766648320945    7.55804602269888    7.30762687084520
C         5.21234162588193    7.33328508678160    7.15669943243489
C         5.56711648843477    6.06480050212517    7.91465161138257
C         6.77578486922915    5.83941437927872    8.55877942556700
H         7.52894884291992    6.61052189276145    8.59273779890328
C         7.03684457782628    4.61987835536690    9.15918118889622
H         7.98871438088608    4.46044743849521    9.64589610881944
C         6.09248725529483    3.60815112940320    9.14091241439244
H         6.31113716099628    2.66434635475909    9.61439764371967
C         4.86323151181641    3.79645348995605    8.53106123596972
C         4.64205906618076    5.02576881424361    7.91784055270465
C         2.89440578426867    6.43790680343823    7.33828815219207
C         5.49640632293538    7.07774865182648    5.66245250264102
H         4.92494439127596    6.22351341730266    5.30527305445715
H         6.55449649713612    6.87136249948109    5.51230005760060
H         5.21808423938185    7.94963178728957    5.07330099287473
C         6.03073587529925    8.53799943631275    7.62029830636306
H         5.76968438979649    9.41855611864077    7.03900512747284
H         7.09159586819469    8.35580119242004    7.46945410442799
H         5.85181241102880    8.74220524188385    8.67378129790614

