44
CSD_code = ABUKUG | q = 1 | S = 0 | Stoichiometry = C17H16F4MnN2O4(1+) | MND = 6
Mn        0.43340438348106    0.36035220990052   17.58475334204631
O         1.72548008255926   -0.55378530431462   16.75407755653210
O         1.21352210826645    1.95734505858387   17.51741065985760
O         1.60974164583658   -0.21615262253947   19.41939711403111
N        -0.92310206937317    1.20919010400148   18.85803564283474
N        -0.65770483836131   -1.35190534161433   17.46516316858152
C         1.53081287688255    2.74062949390484   18.49167167451374
C        -0.51511278807651    2.10361564499640   19.70175642107699
H        -1.19345240001473    2.41055013984755   20.49961834466254
C         1.04816395321897    3.72838819371242   20.68074034391394
H         0.43035161103059    3.80903014460248   21.56095352747506
C         0.71434551418606    2.82898479042599   19.65678865996523
O        -0.47770910426501    0.99547339204958   15.64805028216804
F         3.87790806299178   -0.78169858247799   15.10956767718285
C         2.82676667150302   -1.59477184780592   14.93588951133687
C         1.71191678007484   -1.41538927389208   15.79341860525603
F         3.41321115865498    3.53820952249600   17.31758296153049
C         2.99143149617736    4.46275225047109   19.43316582752278
H         3.86384269870421    5.09199903330888   19.35678119562471
C         2.65128762816587    3.60682281688091   18.41692727521735
C        -2.75080964156501   -0.31882063011593   18.14169798597651
H        -2.72825381769234    0.00412174913513   17.09764169049652
H        -3.77307451846170   -0.59532333323035   18.39688999204590
C         0.60188923027054   -2.28990573495617   15.61041516357400
C        -1.83027233876574   -1.53031386786750   18.30189257731412
H        -1.50857995606197   -1.61673045857383   19.34492809298309
H        -2.36439004295723   -2.44572110895848   18.02418300754478
C         2.84581863592927   -2.53453977010891   13.93706576184153
H         3.70201839844055   -2.63408780947643   13.28918667633740
C        -0.49602487431013   -2.22267879970839   16.52323627221633
H        -1.22750663726675   -3.02558953142586   16.42000344673855
C        -2.31862826440155    0.82095859902380   19.05108486117716
H        -2.46584745299446    0.52001168440858   20.09536108262712
H        -2.95530464393100    1.69243784931492   18.85979911189153
C         2.17397736365368    4.50760403037279   20.56463274745239
C         0.63600531500201   -3.26845544253246   14.60566214315000
H        -0.19569357220435   -3.94112523449629   14.46886652727722
F         2.49909390192683    5.34509518037417   21.55278396606098
F         1.75348078350768   -4.28671506514570   12.81777938850329
C         1.73453586371700   -3.36637436284615   13.78607772954388
H         2.48489599223096    0.18842023205764   19.34323967785324
H         1.76431302743023   -1.15167032203972   19.60433841706891
H        -0.60138934768773    1.95233527237958   15.57333155568256
H         0.10794112454875    0.74872705187817   14.91895233331282

