59
CSD_code = ABUKEQ | q = 1 | S = 0 | Stoichiometry = C20H28CoN6O4(1+) | MND = 6
C         6.16616748300755    6.82635792846472   10.46453958868114
C         7.55122963198086    7.19791209670458   10.30679769434961
C         5.66816312235898    6.13062125142542   11.67864659742340
H         4.58624044181724    6.03849343912267   11.63845292353783
H         5.95776312452840    6.67396796596809   12.57549298072295
H         6.10800065441044    5.13571840547116   11.73326561941486
C         8.58927607830088    6.92309236566816   11.34077340421674
H         9.55585486658234    7.25234615429816   10.96685000414545
H         8.63224912749972    5.85849671170031   11.56075107755929
H         8.36826680224980    7.45411428509751   12.26499733456782
C         6.99766934628368    5.03384768849563    8.06422025471525
C         5.94919821575365    4.24077632619295    8.51420618066227
H         4.93970466032022    4.43922923317349    8.18566045468473
C         6.20407795135836    3.20026983964027    9.38939656471720
H         5.38919893859445    2.58517329797453    9.73667164893623
C         7.49941422223123    2.94695120855892    9.81231234608435
H         7.69500999513708    2.13356024750744   10.49300988245091
C         8.54460634628501    3.73259127501646    9.35337519486961
H         9.55552968442460    3.53125840002135    9.67087375420528
C         8.29840232516626    4.77626540297176    8.47913487590087
H         9.11271911364007    5.38995783075407    8.12299245166679
N         5.41733884204330    7.14818367526864    9.46041300512681
N         7.80920627571166    7.78874178407847    9.17629824222179
N         6.73303728940754    6.13665190370262    7.18047143743005
H         5.93123246411293    5.89706673451767    6.59217190091370
H         7.54488645428194    6.26902338044346    6.57209805283837
O         4.09161438114319    6.86712895591820    9.49679700199275
H         3.72698700470485    7.15502247660917    8.57701873429137
O         8.97182729901912    8.20910202025302    8.84704300837779
Co        6.32044330192229    7.96701995692590    7.99595847019035
C         6.47487563127969    9.10696888412843    5.52701498798698
C         5.08981998823553    8.73546699376701    5.68478706620541
C         6.97282668476165    9.80296227456783    4.31303168111968
H         8.05474474445927    9.89512117135154    4.35322337655862
H         6.68321141275881    9.25970689231642    3.41613996544186
H         6.53298868338995   10.79787566884031    4.25850047725096
C         4.05169701792237    9.01061877903819    4.65098501254271
H         3.08516140722288    8.68117816953804    5.02497744125685
H         4.00858503324901   10.07536960553053    4.43128187524483
H         4.27276014981140    8.47980914269742    3.72656333265879
C         5.64373193915527   10.90009151949413    7.92756833531482
C         6.69252773511140   11.69288522812629    7.47787604049535
H         7.70188465460592   11.49414864146080    7.80667376440977
C         6.43813874862023   12.73344252872001    6.60261803584113
H         7.25325665648126   13.34837248092763    6.25561505020603
C         5.14297802656976   12.98705346075245    6.17932874379105
H         4.94776094499759   13.80051589144539    5.49861013785126
C         4.09747084955163   12.20163406126256    6.63793321094174
H         3.08668347868769   12.40319624396249    6.32014839266700
C         4.34318506894437   11.15789543077106    7.51222462157956
H         3.52864849245401   10.54430808412185    7.86805703099671
N         7.22367389746194    8.78517651092866    6.53117008614572
N         4.83193402482000    8.14432743228569    6.81513591461766
N         5.90786047680330    9.79727327121105    8.81140615237657
H         6.70951903166806   10.03665425379338    9.39997854111682
H         5.09576527709604    9.66491675613457    9.41944543281992
O         8.54941697094291    9.06614260407759    6.49472869938051
H         8.91358511376753    8.78055773549964    7.41545443566062
O         3.66939241489319    7.72358804130435    7.14423147062539

