45
CSD_code = ABUSAU | q = 0 | S = 0 | Stoichiometry = C18H19Br4CdN3 | MND = 5
C         5.66712944789812   11.25733334718771    4.77031628360742
C         6.61035994824180   11.34874835320318    3.76356957980214
H         7.61331409936811   11.67159091772013    3.99637730801674
C         6.26188297012037   11.01128515366894    2.46767473862581
H         7.00228600221026   11.07453852947773    1.68531792535434
C         4.97025360059197   10.59786017903969    2.17849029348456
H         4.69190305769615   10.34685871317958    1.16629657204281
C         4.03476377189377   10.49797002735660    3.18968379118430
H         3.01571498777592   10.21122655808020    2.96666642039671
C         4.36918209533665   10.81245658659440    4.51135597835593
C         3.39181543979063   10.64338775964127    5.57379704265563
H         3.46831836612077   11.32298369217216    6.43075723781072
C         1.53383514394504    9.62865212594818    6.57913367167374
H         0.89990571898701   10.52325898430397    6.58952081271863
H         2.03336071388296    9.55874728475608    7.55671693129340
C         0.65696201361745    8.39921906084306    6.34782730523188
H        -0.12536539990942    8.35648707767829    7.12179283605594
H         0.17430018583473    8.48733461463092    5.36938049222062
C         0.72778867633359    5.98463773077121    6.02647684855209
H         0.24364913565330    6.12761051075863    5.05525967453404
H        -0.04982553109242    5.77849690897517    6.77861484367595
C         1.67592456989196    4.79016174240409    5.93513712451674
H         2.17695059278706    4.62953806510245    6.90118990968976
H         1.09488541536874    3.88926847404225    5.70469195698589
C         3.58497527690827    4.18650778477331    4.71628643965191
H         3.70924878712204    3.31239566151615    5.36624234217068
C         4.56252208328118    4.36228914669522    3.65508675288544
C         4.19799775389602    4.98939754941295    2.45859313386534
H         3.16071689950427    5.25781232541556    2.30891817477936
C         5.12997621430601    5.21810502155061    1.46530349794874
H         4.82798578052686    5.70650226741073    0.55134929129146
C         6.44800944130882    4.82806323193165    1.64856284532669
H         7.18493030228268    5.02027734680375    0.88423404790654
C         6.82771199502492    4.18632563155722    2.81419969264919
H         7.85151612310180    3.88021631511077    2.96401540412824
C         5.88840646761729    3.94956246035246    3.80069692139485
N         2.50689267666371    9.73648151913490    5.51989842646333
N         1.47912391456852    7.19518015280263    6.33612121641248
N         2.64616714876442    5.02073920855198    4.89327910304123
Br        6.19804585268407   11.70982879890209    6.53871359072896
Br        6.46110124505691    3.08536535003719    5.39404826613340
Br        1.51162774162355    7.71439478887487    2.44795732028964
Br        5.57867508009875    7.55608619715501    4.57127513059423
Cd        3.06260535456117    7.50086097285517    4.39941177967376
H         1.91596883875227    7.08595587162013    7.25336104417797

