59
CSD_code = ABUSEW | q = 0 | S = 0 | Stoichiometry = C20H35INiP2 | MND = 4
I        -4.14584243495653   24.48077174018665    5.40731597990386
Ni       -3.46136906534090   22.64988193218609    3.90428156421254
P        -5.26269002973872   21.52942439798208    4.12833519188742
P        -1.55809266849109   23.48950502130682    3.43204553748944
C        -2.91771802954311   21.20095769444312    2.72653821448014
C        -3.64179387329758   20.00166355178387    2.66891313019187
C        -3.24522050375924   18.96918322045930    1.82946105383250
H        -3.82395487756853   18.05539553388486    1.80673947898435
C        -2.12440234480162   19.10084589782358    1.03256095544139
H        -1.81940229956603   18.29387657087640    0.38256848537481
C        -1.39860424548250   20.27556786112806    1.07453221399827
H        -0.51972270782062   20.39407457222068    0.45491416133716
C        -1.78589935319271   21.31702684112051    1.90722113971561
C        -4.85448472230276   19.83413296031760    3.54064103079247
H        -4.60641662134300   19.20483515893680    4.40264826364414
H        -5.68855349661595   19.36781365098148    3.00629553263050
C        -6.07031367161221   21.28756322249522    5.78152055072396
H        -6.43307334919934   22.27684092984866    6.08581688350062
C        -6.62500570605662   22.03706343970665    2.97242327932727
H        -7.31134455680911   21.18536313072488    2.87232951724261
C        -7.38605728299037   23.25668214115782    3.48133676981379
H        -7.89356380122488   23.05005483395485    4.42079723211443
H        -8.13515691722252   23.55697669023007    2.74960929238635
H        -6.70988096661799   24.09481108506091    3.63674773913895
C        -5.97670651307604   22.33217077367949    1.62113883491732
H        -5.49473354712758   21.44578423650721    1.20970366665490
H        -5.21509933276051   23.10921681262059    1.73974928753418
H        -6.71582845424099   22.68838892555524    0.90531123673335
C        -7.23373660525109   20.30382505084592    5.74495410993523
H        -8.02666412114908   20.64727785615323    5.08458766796075
H        -7.65137769379715   20.19843410498202    6.74514483686744
H        -6.90621504652787   19.32003832919289    5.41286381365962
C        -4.99578350494666   20.85364097609719    6.77702509990033
H        -5.37958155327428   20.89213708493603    7.79414718730730
H        -4.13370887119430   21.51976217173210    6.71690260898790
H        -4.65819367917665   19.83715616912534    6.57961209599628
C        -0.99610846791691   22.59531886279524    1.92488630351276
H        -1.24216367849247   23.19286989179786    1.03997180549069
H         0.08397204080116   22.41664101335828    1.92628815415471
C        -1.36317449027113   25.28989499050138    3.02729320733428
H        -1.56223172824591   25.83069047553033    3.96046331479077
C        -0.21492882964335   23.09704070352895    4.65329881417692
H         0.74700992797728   23.18996031779341    4.13112645976321
C         0.02823180950034   25.64405097403569    2.51635612993478
H         0.26082973343809   25.10222042097204    1.60145753371724
H         0.79389784270137   25.42083608991353    3.25562915023870
H         0.07414931849182   26.70928146341481    2.29548264630135
C        -2.44840741286801   25.67034958414038    2.02159560440064
H        -2.49556191639881   26.75061029308504    1.90062832015193
H        -3.42374659268998   25.32734464407453    2.37130058686381
H        -2.25846453170501   25.22631302463631    1.04506375409613
C        -0.23887808163918   24.02926630063667    5.85982402596785
H        -0.04127465095353   25.05997679973057    5.57439773529157
H         0.52191298636772   23.72403355560215    6.57733985950847
H        -1.20628133999749   23.99251927188652    6.35619770148416
C        -0.42256244951437   21.64728219034989    5.08730704711955
H        -0.33360595674740   20.96392306052222    4.24333967538365
H        -1.42299592900088   21.53086083472742    5.51552845743010
H         0.30567484489261   21.35977066671841    5.84379006825944

