54
CSD_code = ABUTIB | q = 0 | S = 0 | Stoichiometry = C20H31OPZr | MND = 12
Zr        9.56768307803422   14.15003045311435   46.47871244004735
P        12.11714952854051   15.00981988147122   45.73360228890070
O        10.61616805233433   12.03858703237838   44.41546932682881
C         8.74031389230950   12.83108213642031   48.22737121806637
C         7.96223398081988   13.98438320737597   48.39575878559229
C         8.55673521216910   15.23261897795277   48.67445949848064
C         9.95878979705129   15.31208318108111   48.70721283627150
C        10.75763618396506   14.17403677720979   48.55395059064872
C        10.13889427970812   12.80517767547825   48.83815248393309
C        10.07605581135460   12.54695373229091   50.36084263298943
C        10.95235481944620   11.67791892260467   48.17866868225128
C         8.73560287368509   13.41512649873105   43.73669694374331
C         9.51150248588599   14.62386555581777   43.29575332108336
C         9.48624863919433   15.76643690076402   44.03988261294987
C         8.68472336147567   15.89425055467540   45.21085235642389
C         7.71023205002962   14.86204831946923   45.52130740615080
C         7.41964617622139   13.82245394983254   44.43705273688166
C         6.44451890512665   14.40533360193915   43.40224640555935
C         6.79770703242906   12.57028929744351   45.07862974918054
C         9.78650809386226   12.90446222382209   44.74022199271828
C        12.75214210162497   15.32649820038559   44.02877510677195
C        13.15439375449776   16.25539477566176   46.63728543540901
C        13.13780026830344   13.50048626854977   46.04462340690159
H         8.23294545784048   11.86572725362277   48.17125207629260
H         6.87899789525479   13.91851415567251   48.31036001064121
H         7.94649413848905   16.11443889364418   48.83080786503292
H        10.43154153526410   16.28641032637172   48.83552284613712
H        11.82167680631099   14.26059652676611   48.77555997320793
H         9.50217560183843   13.33593075352074   50.84303914682557
H        11.07619480653971   12.53341572258690   50.79162927058336
H         9.59506943109406   11.59302445342973   50.57033670399541
H        11.97892778109288   11.67303356993905   48.54658022270465
H        10.51161614096419   10.71077271114810   48.42247045947337
H        10.95536135438361   11.78766831090814   47.08389880161456
H         8.55324074957644   12.72359618933180   42.90490300233841
H        10.12035984952152   14.53905230999056   42.40792608367065
H        10.05619405780902   16.63182707985024   43.71173879136149
H         8.58725719876300   16.88040257766733   45.67467545227154
H         6.81215205900350   15.20044956265235   46.04884314307493
H         5.50460452206257   14.67930978377163   43.87805033856288
H         6.23419429242813   13.68162744923643   42.61661002472209
H         6.87736846520192   15.29364471203704   42.94831690302188
H         7.52243581833170   12.09377518885309   45.75275106043337
H         6.51821486966150   11.85126093383028   44.30956793580362
H         5.90268244080235   12.83123272340336   45.64329704094969
H        12.38975537306654   14.53284323802079   43.37873833782923
H        13.84204196436776   15.33000359456898   44.02668444949756
H        12.38793047579301   16.28024539088312   43.65479202310563
H        13.02520647267603   16.14194498539726   47.71192686288050
H        12.82969972947262   17.25602717678648   46.35510566249705
H        14.20789570832377   16.13633088286502   46.38665724118389
H        14.16470276883471   13.65835117797518   45.71224035866903
H        13.13842878679934   13.24751258447327   47.10276423936646
H        12.69729307135483   12.67759165697994   45.47842541431078

