83
CSD_code = ABUVUP | q = 0 | S = 0 | Stoichiometry = C34H36N6NiO6 | MND = 4
Ni        9.70908990759569    5.73074059691999   10.61405689823510
O         8.51330845893096    5.88466071181919   11.98678584838683
O        15.65594465366703    2.23769369348491    8.61261749712776
O        14.45935543767878    0.51343537033150    8.14669766857952
N        10.26363858142045    3.96257833494917   11.26803455705898
N        14.61578173072849    1.60362526177745    8.66309238097617
N         5.32860407238789    4.97529416313142   15.34263353677700
C        11.34890836754921    3.34732276304102   10.64238042413012
C        12.60301631111052    3.97180680177688   10.66185334024140
C        13.67801018862611    3.39678256534227   10.02817893637412
C        13.51339933131073    2.18340454826137    9.35963093242179
C        12.27870093481726    1.53911917856630    9.35027128048630
C        11.20699991168495    2.11429709651475    9.99469568894537
C         9.59433124213291    3.24748720579775   12.14191842634990
C         8.51135115996887    3.68011225710081   12.91246379320211
C         8.01769587191010    5.02226174276167   12.80115172294712
C         6.94989260416756    5.41177443229738   13.62329313718153
C         6.35625102707756    4.56085024036390   14.55049455304243
C         6.87158969118839    3.23453901623424   14.64461117793518
C         7.90093227357507    2.82558964402409   13.85667906493979
C         4.62842189344712    6.21254532451492   15.05529415111759
C         3.77781793114977    6.13182867678673   13.78802476714512
C         4.78280212143672    4.14139432289863   16.38993427601091
C         3.68533860858725    3.19115444391801   15.90612535680025
H        12.70293122306869    4.91705913218400   11.17567042333077
H        14.65097424541661    3.86319718598390   10.03570068749164
H        12.18008336742840    0.60189937650127    8.82392295578512
H        10.23830060382094    1.63780621345873    9.96693985598213
H         9.95196247237317    2.23459234908422   12.33964380041745
H         6.62467525988401    6.43032023320407   13.49770170723269
H         6.43850337501015    2.52762225221571   15.33124366691782
H         8.26762298408813    1.81184164971198   13.94118192623689
H         3.98734583910824    6.44415111720146   15.90753293663306
H         5.35339850717686    7.02694799077532   14.96605375020205
H         3.39536384619124    7.11751169504423   13.53593379307921
H         2.93672433995903    5.45847869130497   13.92923842963911
H         4.37601932671569    5.76261779112177   12.95907004666056
H         4.37147985319237    4.79919687814544   17.16119881254020
H         5.59239956556258    3.57336714391930   16.85384624030154
H         3.37340624635623    2.54160832445957   16.72007391518170
H         2.81979371189796    3.75087504053843   15.56252664251887
H         4.04563195173023    2.57696020524638   15.08483478215785
O        10.90495023346443    5.57691406252940    9.24124461512232
C        11.40014355132852    6.43930528833547    8.42661853213303
C        10.90617790200365    7.78134412058255    8.31534796996127
C         9.82336637731950    8.21387776316544    9.08615040665929
N         9.15429247838949    7.49879934956202    9.96023277567198
C         8.06918954148320    8.11430229872871   10.58596304773421
C         6.81488629185831    7.49023175402882   10.56655788992453
C         5.73993857689173    8.06601646295919   11.19963657306943
C         5.90477652994269    9.27975989543918   11.86745235473861
N         4.80224039916840    9.86072792739476   12.56277279277419
O         3.76294450310636    9.22550881703565   12.61646106959301
O         4.95775586208382   10.95291368843260   13.07514792950892
C         7.13978195398476    9.92344154989120   11.87705807683853
C         8.21145812929108    9.34746345603455   11.23331608890648
H         9.18036201181718    9.82352753206848   11.26118194751001
H         7.23859645304399   10.86092065037771   12.40291475682746
H         4.76680873964320    7.59994166520406   11.19212743314088
H         6.71473479319769    6.54477901759943   10.05316505529011
H         9.46564386370994    9.22675466831366    8.88849302102717
C        11.51607171218486    8.63595487672665    7.37088341781297
C        12.54525071508174    8.22720485054672    6.58265570420022
C        13.06095380292932    6.90102967924715    6.67673376441564
N        14.08848137335055    6.48686976896324    5.88427968028707
C        14.78883869315017    5.24961399383140    6.17115249481340
C        15.64002393495091    5.33021586603959    7.43804443487286
H        16.02263313551677    4.34454869980034    7.68998935989286
H        16.48106336371406    6.00355656978301    7.29647275830058
H        15.04221181783273    5.69940378505735    8.26728948118781
H        15.42952057384366    5.01812051045763    5.31858279541333
H        14.06389938316185    4.43520392315976    6.26061477327010
C        14.63407946517204    7.32127403942175    4.83726093981371
C        15.73068863790915    8.27227156816798    5.32153548936239
H        16.04237504010024    8.92215791621242    4.50776322654659
H        16.59655043740964    7.71316475041178    5.66532860875269
H        15.36970699824493    8.88609921655852    6.14279653355845
H        15.04614562928528    6.66385792967332    4.06607784611939
H        13.82423387858809    7.88876960905394    4.37311156405994
C        12.46778836358709    6.04999994713090    7.60415294205602
H        12.79329818294064    5.03153750896962    7.72969329489389
H        12.97786721515782    8.93417078309979    5.89578791522750
H        11.14907042302596    9.64959257728602    7.28641684998618

