53
CSD_code = ABUWEZ | q = 0 | S = 0 | Stoichiometry = C18H24Cl2N6P2Pd | MND = 4
Pd       -0.00000729768819    7.00382581416102   -0.00003561594045
P        -0.33623105721899    6.16442026844488    2.07904003778693
Cl       -2.19571882622949    7.59824429284815   -0.28794264300071
C        -1.97196932872835    6.18067588557954    2.92615489875160
H        -1.83089763464018    5.81903765825171    3.95099374999444
H        -2.31373341953777    7.22000816646034    2.96959035698904
C        -3.02565782931997    5.33935332576514    2.19863586745924
H        -3.14596840824031    5.69992385309630    1.17064773936457
H        -2.74956403118901    4.28061586977722    2.18028193477601
C        -4.29485002450441    5.45971232838730    2.87404726548105
N        -5.28353235175205    5.56908813733265    3.43500291593288
C         0.22757731973429    4.41673142500228    2.24227571260866
H         1.29128334382642    4.41203731904555    2.49359218555264
H        -0.32255618631411    3.90693334198016    3.03899741067308
C         0.02006451110666    3.71762488168831    0.88756193865439
H        -1.02641466869517    3.78854666948647    0.56092049039029
H         0.66051548434898    4.19911377244491    0.13053554128952
C         0.37946276018695    2.32415277887555    0.97146692154180
N         0.66291736285075    1.22212544999694    1.06811544533146
C         0.69202496882392    7.14521987740909    3.25045785607320
H         0.33368131306697    7.03640961261495    4.27818206843745
H         1.72368978972793    6.78650597186771    3.19266437590666
C         0.63417661767092    8.61289701348225    2.79456770072294
H         1.01360752286118    8.68342069997162    1.75472865891803
H        -0.39567002144888    8.99153174527059    2.82346138687172
C         1.45579209520275    9.44780754422455    3.63440568437361
N         2.11484219880212   10.09098222431388    4.30978705810899
P         0.33627202155300    7.84333295303417   -2.07906682672502
C         1.97206879079548    7.82693179649978   -2.92606989734827
H         1.83109511389535    8.18851962860219   -3.95093836278176
H         2.31373739748963    6.78756362290302   -2.96940572379131
C         3.02576164834740    8.66820525218906   -2.19851576066252
H         3.14595981893779    8.30767420446783   -1.17051504280500
H         2.74979498586938    9.72697064986125   -2.18022176915164
C         4.29502472393496    8.54746101207687   -2.87370348879683
N         5.28366197714543    8.43920853730649   -3.43512152674334
C        -0.22756529789807    9.59098309771747   -2.24239005010596
H        -1.29127009953050    9.59560642269043   -2.49371973183775
H         0.32254934345007   10.10077041472382   -3.03912963148519
C        -0.02012533952396   10.29015790824420   -0.88769686506588
H         1.02638524579831   10.21947395444333   -0.56112982408924
H        -0.66041635957990    9.80852039252709   -0.13062576941155
C        -0.37990901555530   11.68352569023219   -0.97153243646134
N        -0.66369475514433   12.78549828580099   -1.06787304756728
C        -0.69200328336700    6.86251385155796   -3.25043517129988
H        -0.33373620843351    6.97134967854670   -4.27818061215806
H        -1.72367581330137    7.22120045264969   -3.19255891658654
C        -0.63411595706817    5.39483027031896   -2.79457445071798
H        -1.01375121043213    5.32423184007407   -1.75481539945987
H         0.39577071290736    5.01629098793747   -2.82327386541682
C        -1.45543483025214    4.55992318162061   -3.63470817642616
N        -2.11474668042288    3.91694728735093   -4.31004093756216
Cl        2.19549886768809    6.40936269884380    0.28810634141196

