52
CSD_code = ACACEM | q = 1 | S = 0 | Stoichiometry = C16H26F7OPRh(1+) | MND = 8
Rh        3.75150031144131    3.08042860147601    3.71057043765424
C         5.59866060364866    2.06018616663071    2.91710017415019
C         5.30265370061181    1.69217743211631    4.30012153850895
C         4.07308275295995    0.92607023686159    4.30702471039037
C         3.53057610391007    1.00233120174128    3.01137228506222
C         4.49838753392007    1.68763346217572    2.14071382456065
C         6.93749254839092    2.51889260798718    2.44229640162267
H         7.61352577102335    1.66216462329498    2.44419332055587
H         7.36630884469236    3.27568286246259    3.09486434584602
H         6.89227382116725    2.90696623985865    1.42865548374490
C         6.29676954459883    1.71372128461587    5.40430528572853
H         6.80279706403242    0.74629333387101    5.42035615216057
H         5.82610451876559    1.85557535126366    6.37252871742252
H         7.04826255176258    2.48351844036269    5.25672488076300
C         3.55062048580388    0.10880554701619    5.43677150706354
H         3.84452210410291   -0.92935478543583    5.27452732781670
H         2.46511736692782    0.14113491986136    5.49124053629736
H         3.95891479363713    0.43292623991318    6.38870686765134
C         2.30734018660087    0.30146213913176    2.53247074860902
H         2.55391813625651   -0.74355947430037    2.33664395453253
H         1.93328734585257    0.73653023213614    1.60903681128993
H         1.52419379656433    0.31790425619095    3.28811785147602
C         4.32520496563658    1.81806521642780    0.66861362182923
H         4.26446496812573    0.82535952501727    0.22217851750000
H         5.15411521984834    2.35370013408146    0.21522978058483
H         3.40012859846610    2.34539829610757    0.43378325433606
C         5.34038367674800    5.73631218170873    2.27049115909610
H         5.66689804148190    6.77333552099097    2.32706225634493
H         4.60851544174300    5.63434815024763    1.47072727388570
H         6.19534979185064    5.10654068627539    2.04562639245455
C         5.90331848613629    5.55856695800205    5.07655421068794
H         6.25711739147848    6.58282419048768    4.96794520122535
H         6.73257718326606    4.87394278671508    4.91758772058932
H         5.51896018079846    5.41827951653899    6.08420456051157
C         3.48048620598383    6.69047005480722    4.13659663243964
H         4.08206105195547    7.59398969465761    4.04325191424812
H         3.03284474069333    6.66462871383024    5.12533016260857
H         2.68661876365426    6.71537532232635    3.39310071774284
C         2.32077713310081    3.50619467533806    5.09655857318351
C         2.68140464909402    3.67667760541420    6.58579324914591
C         1.55452940915528    3.28289142633879    7.58310602189015
P         4.57358539102907    5.25003285502764    3.86308862821184
F         1.42541645539419    2.45990884746435    4.99007607573420
F         1.55946221392585    4.59703079829728    4.74908446129281
F         3.77532257298177    2.92753623767870    6.87555964076695
F         3.04968768747264    4.95461841736679    6.80948602419498
F         1.85736055148863    3.67535973488127    8.81390027881302
F         1.40453735149777    1.95925493603232    7.59822931484038
F         0.39615674615538    3.83233033964060    7.24161435548278
O         1.96087606664369    3.70942569911690    2.18257307975655
H         1.64098623654753    4.61182137714833    2.28912298844052
H         1.20454294098694    3.13798918279362    2.36758076925826

