59
CSD_code = ACAFUI | q = 1 | S = 0 | Stoichiometry = C23H23N6O6Zn(1+) | MND = 7
Zn        4.61634927691178   13.68836862721046   15.44208964216977
C         4.34592281480420   10.70485241555241   15.72222179963450
C         4.22289508135926    9.37695260365610   15.31523139458709
H         3.83302659688756    8.62426407021195   15.98027001576301
C         4.58849590583333    9.04298034592009   14.02075735770799
H         4.49507754369649    8.02448919177108   13.67666151567361
C         5.07503321371407   10.02343082992611   13.17256409633513
H         5.35862949953248    9.78259054349863   12.16138972293139
C         5.15781300518674   11.33242053054362   13.64852222777609
C         4.03627150726568   11.19192209662216   17.07208169184433
C         4.00775041468875   10.28704173077819   18.26073403553990
H         4.71643667059238   10.65053893860699   19.00624519436032
H         4.29089055514082    9.27373075793376   18.00071551582797
H         3.01433243957118   10.27028614934777   18.71004485711767
C         3.82004971049657   14.51936295034097   18.10634395947635
C         3.75718514178747   15.33969925104796   19.32240995863257
C         3.53714634347445   16.71049940978681   19.15411726417412
H         3.41534162019748   17.09160412577650   18.15194294130173
C         3.47207816265607   17.54927036475087   20.24850092526617
H         3.29661475424930   18.60459710640945   20.10914546221446
C         3.63760328336428   17.03424378813353   21.52501474680210
H         3.59138180947442   17.68759832646955   22.38243547422138
C         3.87500226407818   15.67938334741108   21.70134388894096
H         4.02054047946186   15.28336636445527   22.69448905128761
C         3.93493652649315   14.83180380665344   20.61140146770461
H         4.15453523779534   13.78811952844505   20.78037543291680
C         5.64294627359588   12.46534486281834   12.85158002537507
C         6.54752684059955   12.25550772537536   11.67962656677791
H         7.31872506394023   13.02469988883602   11.64902055597494
H         5.98167063443230   12.30593055329069   10.74859573595697
H         7.03949305469921   11.28971159188516   11.73576287363413
C         5.10155123203573   15.87853854279491   13.45823197632559
C         5.62854066074447   17.18317687905333   13.04206281406900
C         6.11032796604200   17.43819787061987   11.75673917452099
H         6.06492928295499   16.68081424614381   10.98750155783432
C         6.60518787828554   18.69010547417755   11.44408102792642
H         6.96933768036046   18.88861927805059   10.44781032379909
C         6.63480758984654   19.69063931305041   12.40419695158384
H         7.03126245376379   20.66250548557262   12.15393579767589
C         6.15053760140911   19.44582527590930   13.67978706061867
H         6.17023094289633   20.22613226918754   14.42454341911446
C         5.64184638820014   18.20166258211140   13.99714849547529
H         5.26622714644491   17.98432339367741   14.98483167741079
N         4.79537313061455   11.63955586844037   14.88897036765677
N         3.87102428958215   12.45649105606951   17.12267250059254
N         3.67999433152270   13.15986144431304   18.23869094063017
H         3.75470591620424   12.71914817311944   19.15108835919322
N         5.22476721803148   13.59416863000023   13.27809945141065
N         5.56072572817013   14.77679100635232   12.77102779387361
H         6.34325014857398   14.86677148310081   12.12715195517188
N         6.99561232787838   14.06122171326263   16.56994426775486
O         3.93967931715108   15.00508454364612   16.98593453494567
O         4.28280885439607   15.72753558762293   14.35228420713699
O         6.51674770471200   14.38693779636783   15.44532686514829
O         6.28591309326185   13.35721553693854   17.28593485842639
O         8.08879987212554   14.42645957623611   16.88390275359345
O         2.49947961368625   13.68670932607525   14.76120674601447
H         1.88346850342902   13.83344987389848   15.48480761403174
H         2.56286140169865   14.53584595074244   14.30565111012773

