85
CSD_code = ACALOI | q = 0 | S = 0 | Stoichiometry = C36H45ClN2Pd | MND = 5
Pd        0.28144674296096   13.98127846468261    2.49226216332870
Cl       -0.73952728606845   15.98271487902280    1.97700704391643
N         1.99606645999316   14.61780497903801    4.83871385635603
N         2.36069506123328   16.11871499843448    3.34905056592257
C         2.78612482912893   16.46023984432253    0.97090330038775
C         2.79158303516720   17.32080559132302   -0.11927054165892
H         3.15066369501833   16.96925621689158   -1.07410274126762
C         2.33895859300207   18.61895426209657   -0.00322830862247
H         2.35181244362277   19.27461270764549   -0.86127016787274
C         1.84989295321621   19.07180500251109    1.20559878625715
H         1.47338479186429   20.07977890326144    1.27967700707697
C         1.82104078386222   18.24865875269847    2.32226529776814
C         2.30918317621748   16.94332101098394    2.19165940751276
C         3.24608563396822   15.03232442647536    0.78447382046535
H         3.23136156191420   14.50855826518808    1.74994731526294
C         2.24928060693296   14.32584210047029   -0.14157220316349
H         1.23618144656413   14.43220087975704    0.28204191821340
H         2.50567722633067   13.27162002815693   -0.24516172373038
H         2.25153768371622   14.77893869771202   -1.13026005139629
C         4.67155301415408   14.95929902458855    0.23468172716035
H         4.73476017431200   15.39614094503250   -0.75824467485385
H         4.99226649130672   13.92158144535474    0.17009670266730
H         5.35983303953305   15.49270179962647    0.88738538963331
C         1.22546498591477   18.77597583326093    3.60725944230271
H         1.23830536460186   17.99029974135342    4.36737825024631
C         2.02785975304381   19.96712027027219    4.13826835321812
H         3.07281326345811   19.70131406554247    4.28940581851701
H         1.61641844141611   20.29812509585547    5.08930410665096
H         1.98898176454566   20.80050868071026    3.44177755698274
C        -0.23961223935642   19.15762920969505    3.38478667271882
H        -0.32865727727167   20.00015813899515    2.70476442800200
H        -0.70059603362656   19.42922745187238    4.33213390944635
H        -0.77158886358374   18.30977519902279    2.95967956137042
C         3.10326994098126   16.45659482135927    4.45471203152311
H         3.73206531485855   17.32229047945155    4.47200432069956
C         2.87512136896358   15.51240615987652    5.39399491759563
H         3.24486115365857   15.40953684755708    6.39312860345365
C         1.68023079522851   14.97889151954288    3.57547421436155
C         1.47122367687922   13.45823809838567    5.46787180835925
C         2.32311640281802   12.38181379621171    5.73738104458479
C         1.77344110828315   11.24045867275894    6.30657252879621
H         2.40676357132106   10.39498716579230    6.52695070792453
C         0.42215715869237   11.16775528799528    6.58555568343251
H         0.01008152503822   10.26600710469540    7.01411564373408
C        -0.39910272239523   12.24976024400688    6.33444658442873
H        -1.44690721786145   12.18710858257777    6.58462389539934
C         0.10477658183869   13.41994397005565    5.77682015077680
C         3.80521039346328   12.43899935792122    5.44041407372605
H         4.03568805009703   13.37778126526863    4.92827115550308
C         4.24321722257530   11.30087182133503    4.51659754972227
H         4.06042639980412   10.32977695373536    4.96884512735208
H         5.30768343206086   11.38479328161097    4.30870296416029
H         3.70518032618414   11.35020100134537    3.57323346993306
C         4.59954026741637   12.40418278163356    6.74934005252624
H         4.28504749579747   13.20675889785509    7.41333193732493
H         5.66174139300873   12.52041829782483    6.54640792780951
H         4.45006980004493   11.45939669945840    7.26565731558199
C        -0.78952267449971   14.63556105122245    5.64360604837259
H        -0.26156006887507   15.43510574786576    5.10959076918984
C        -2.05969229667367   14.33536278253122    4.84442406385916
H        -1.79541759409056   14.04890461938310    3.81708462288066
H        -2.67228134750023   15.23198769015632    4.78552692445411
H        -2.64960559768367   13.54373247318151    5.30053292667546
C        -1.13448242132178   15.14970186114282    7.04560914354811
H        -1.71012462934386   14.41103925222090    7.59852581113740
H        -1.72396564919287   16.06000062072842    6.96973205867272
H        -0.22942111023622   15.36994970473904    7.60917526712658
C        -2.44924516172637   12.95031166927850    1.13936476038684
C        -2.88203314145817   13.70277610574989    0.04226036373747
H        -2.14908020740773   14.08798025063049   -0.65344260358980
C        -4.21854418487785   13.98752867212076   -0.14471106971895
H        -4.52654930342748   14.58105536875121   -0.99339700470595
C        -5.16384538499047   13.51776619492956    0.75256310079310
H        -6.21093939657123   13.74005183884635    0.60801574712047
C        -4.75455152403605   12.76230094886488    1.83823219426358
H        -5.48524945171102   12.38896443632728    2.54215498195319
C        -3.41659633637907   12.48125808768048    2.03289204735619
H        -3.12845702814088   11.88534752720975    2.88734036273792
C        -1.01689852199121   12.70923160054274    1.29810254774326
H        -0.45168934388141   12.77276977694901    0.35969733307081
C        -0.43317134100450   12.00102530633299    2.35590405905432
H        -1.03890401581240   11.64671014862273    3.18849791622673
C         0.96653757429997   11.98549558816928    2.49771134174997
H         1.58086472581227   11.91564183042594    1.59973953918580
H         1.37347067685421   11.45597882520109    3.35060104919278

