51
CSD_code = ACAPNI | q = 0 | S = 0 | Stoichiometry = C20H24N2NiO4 | MND = 6
C         2.38593955013114   -0.09063552250020    3.48391282969918
C         1.15027364201951   -3.09200591180445   -0.14621387920439
C         1.94101372809706    0.24952333669284    2.07273830463699
C         2.78190015454171    1.06933295870299    1.31744989287353
C         2.45818803113132    1.43942791362827    0.01065593026038
C         3.44374524574338    2.33041972277476   -0.72418910161691
C         1.62834855938009   -1.98641160954785   -2.07938529203582
C         2.15240252822062   -3.12925589322313   -2.66473798815814
C         2.16442573603896   -4.30417909205104   -1.93049201050678
C         1.65250484681115   -4.28538245165892   -0.64313444597838
H         1.65808115827266   -0.75127657368277    3.94670154221308
H         2.56492458074224   -5.21535973203775   -2.35252557180827
H         1.64339042188224   -5.17815227291479   -0.03644064609409
H         0.73967140470693   -3.02527259981143    0.85252172487953
H         2.47422527369204    0.81936152716728    4.07336008004577
H         3.35712834747587   -0.57940189645290    3.46022048153211
H         3.70258794827939    1.42346630152797    1.75262476701391
H         4.40317349888577    1.82587568171624   -0.81378867896246
H         3.59288682617248    3.25520942142006   -0.17173369230098
H         3.06119962041352    2.55743181596620   -1.71537474144530
H         1.59594879409797   -1.04465073152054   -2.61095780703742
H         2.54202633735591   -3.09965959128934   -3.67098312241717
Ni        0.00000658092815    0.00007468224334   -0.00000492627057
N         1.13746609425340   -1.96721436124862   -0.84796161500712
O         0.84639923699592   -0.23052629666658    1.69274707990830
O         1.42536302403208    1.10114871513042   -0.61546010883209
N        -1.13747948665330    1.96728449564428    0.84807763734143
O        -0.84634453344172    0.23062948149923   -1.69278441929173
O        -1.42534769542913   -1.10100424173253    0.61543136834032
C        -1.15035595467102    3.09211111006957    0.14638690812698
C        -1.62841510479127    1.98637377005032    2.07948216758981
C        -1.94088239824938   -0.24952531494209   -2.07284139308365
C        -2.45818978915546   -1.43923398026591   -0.01068484301995
C        -1.65271767191915    4.28541663439262    0.64334633533003
H        -0.73973150076949    3.02545663949108   -0.85234492492185
C        -2.15258661980883    3.12914445304175    2.66487477904171
H        -1.59593942348834    1.04459424701653    2.61101708689258
C        -2.38575689921522    0.09059730368700   -3.48407623797591
C        -2.78184345332562   -1.06921320931027   -1.31751511293888
C        -3.44362867798791   -2.33044322660634    0.72405638354972
C        -2.16468698360206    4.30410284387033    1.93068603263286
H        -1.64367369759417    5.17821169146874    0.03668967032732
H        -2.54222950012242    3.09946784687593    3.67111122179766
H        -1.65840535836058    0.75197910318970   -3.94654954452845
H        -2.47290156042698   -0.81936997584569   -4.07370135787094
H        -3.35742850202845    0.57836019901620   -3.46070031638828
H        -3.70251062432619   -1.42337571994006   -1.75271341693236
H        -4.40306360450744   -1.82594675153538    0.81376742689440
H        -3.59277443112018   -3.25516994525516    0.17148168334712
H        -3.06104250162350   -2.55756076385067    1.71520518940203
H        -2.56528519768316    5.21522576941101    2.35274867095064

