23
CSD_code = ACAQUS | q = 0 | S = 0 | Stoichiometry = C6H10Cl4N2Pt | MND = 6
Pt        0.00019227641557    0.00020375659790   -0.00020791806341
Cl        1.18511491373312    1.50410449399085   -1.43744698291770
Cl       -1.52095375311619    1.75726290127257    0.57712437050856
N         1.11284125451615    0.46020715526399    1.45278928733931
C         1.77698458431903    0.68681840029926    2.35993391171942
C         2.60164393649542    0.89505278557510    3.50487134583597
H         2.12506454776515    1.64584509002948    4.14231783334497
H         3.56750769419226    1.28383692104761    3.16889411519069
C         2.78251590677676   -0.42583970877000    4.26387804526130
H         1.82156591073880   -0.80598306173897    4.60078605424576
H         3.41982474769425   -0.26187558831719    5.12883830784518
H         3.24359418697686   -1.17346212490008    3.62329634200577
Cl       -1.18487018915674   -1.50361837551748    1.43719365232697
Cl        1.52079558775141   -1.75748099942693   -0.57695837165405
N        -1.11299982283491   -0.46091816435518   -1.45250251805653
C        -1.77708634316832   -0.68664570060928   -2.35989893534737
C        -2.60165561573982   -0.89502232918859   -3.50485767597433
H        -2.12502569535728   -1.64581945990251   -4.14225424098245
H        -3.56751240413350   -1.28383211695166   -3.16889565498093
C        -2.78252639636978    0.42584445371075   -4.26389944528504
H        -1.82157954140750    0.80600215831599   -4.60079176853723
H        -3.41980616833753    0.26185705562854   -5.12886487955151
H        -3.24362961775277    1.17346245794849   -3.62334487426743

