19
CSD_code = ACAQAW | q = 0 | S = 0 | Stoichiometry = C2H8I2N4O2Zn | MND = 4
Zn        6.34241486837592    3.84781170938653    9.05598019544706
I         8.22936118720873    3.39247845167213    7.46618343997525
I         4.46449631034321    5.40903572852187    9.60837205569109
O         7.08249193973251    3.07523469578674   10.81064006108912
O         5.22824204725370    2.00990375725190    8.56766412045350
C         7.71402713422071    2.02076300943591   10.92779362242296
C         4.12647120223828    1.72685809615633    8.08363650967762
N         7.42090736434840    0.92876498857602   10.20526340444069
N         8.70322616456228    1.91763973107575   11.84093533985333
N         4.03148889607335    0.77496897539955    7.12625174749742
N         2.98397659477002    2.27763745644307    8.51897980734338
H         6.71330217903332    1.02758086829851    9.49006776658922
H         8.00404847028286    0.11213989465953   10.20627614169841
H         9.28279141564185    1.10175866973502   11.91265915609223
H         8.95870730945493    2.74052768954886   12.35795332884890
H         3.17216386846046    0.60565343039528    6.63629273962871
H         4.88340085066439    0.43034432147347    6.71750065432697
H         2.10679456328027    2.11137734711445    8.05926194209549
H         3.04028763402409    3.05862117907175    9.15938796681285

