37
CSD_code = ACARAZ | q = 0 | S = 0 | Stoichiometry = C12H12Cl4N4O4Pt | MND = 6
Pt        4.80926584472026    0.00092067269498   -0.00019186376727
Cl        6.53414090087517   -1.61068395787134    0.24217147177007
Cl        3.70124553005794   -0.83727807380564    1.93638579035102
O         7.02335977900327   -0.08537805275078    3.12052075869774
O         8.95139461637802   -0.84679580536237    2.56967034244125
N         5.70594349023576    1.33062980444491    1.34555273142366
N         8.02340706614102   -0.09540993884032    2.42069314861140
H         5.07550509627628    2.14106659899461    1.35739922015779
H         5.70374871629206    0.83158393609751    2.25919468544547
C         7.02838898116314    1.67126177601239    0.96969316685177
C         7.24097096588962    2.71390324017459    0.07095275119739
H         6.39376958665253    3.28953258552939   -0.27081642018846
C         8.50913788830304    2.98696434756883   -0.40779465059559
H         8.64922373752306    3.79215620895384   -1.11150043103186
C         9.59099120660463    2.21776772862358   -0.00405642683933
H        10.57596375485378    2.41620482256844   -0.39499461212444
C         9.40437022128006    1.19747779075989    0.90695252122984
H        10.22940687551652    0.59325538231212    1.25272845269242
C         8.13468051595268    0.92667589719627    1.40742382800593
Cl        3.08410609067696    1.61214485802760   -0.24198829221024
Cl        5.91700014988243    0.83930756624330   -1.93668473563293
O         2.59373181753997    0.08522654593641   -3.12119341517729
O         0.66528449422258    0.84531061035552   -2.56989890436667
N         3.91273497532732   -1.32898299339791   -1.34586671518002
N         1.59389118034067    0.09465795679926   -2.42104283766027
H         4.54374411281911   -2.13898055867945   -1.35794423476640
H         3.91438506670959   -0.82990599528566   -2.25946111968428
C         2.59066848266126   -1.67071651065586   -0.96974314154709
C         2.37927517691138   -2.71317338072376   -0.07052934159042
H         3.22710975121035   -3.28781245099586    0.27136991149327
C         1.11143464674616   -2.98736321061697    0.40840512096474
H         0.97226023090425   -3.79239591388833    1.11247084584314
C         0.02873413630457   -2.21950623939426    0.00435939630392
H        -0.95600797636837   -2.41885619359008    0.39540292570414
C         0.21423723835869   -1.19934689382284   -0.90702664189249
H        -0.61142932356494   -0.59609753756480   -1.25299559273652
C         1.48362497559811   -0.92736462204498   -1.40761769219299

