55
CSD_code = ACARON | q = 0 | S = 0 | Stoichiometry = C18H22Cl4N6O4Pt | MND = 6
Pt        4.11371161060981    1.49488927890460    5.71461688943526
Cl        5.24452727966897    3.56855814616688    5.49510807843639
Cl        5.19190905040417    1.12064223519967    7.79747795355642
N         2.50930927355204    2.30520436695060    6.64856901064664
H         1.61926819258327    1.90466099916460    6.35969298960643
C         3.31436364032911    4.00043063420585   10.45240338931462
H         2.79112662897532    3.05765881714977   10.49302991323113
N         3.53108518323319    3.80022649189570    8.03024677106602
H         4.33444502562885    3.74558583930698    7.38484901454027
C         4.30842032946895    5.87049529949249   11.58664451136253
H         4.53443968340930    6.42455329501257   12.48392802151926
C         1.09545573299686    3.46718607516766    8.23372367595652
H         1.21448157676462    4.07203632553201    9.13091287386189
H         0.57794822764403    2.54269099261118    8.49706623799002
C         0.26555387649673    4.25241308774725    7.21227430212121
H         0.11117973432663    3.68075988314408    6.30084336056200
H         0.76796141172173    5.18083891197424    6.95215591341473
H        -0.70559307445334    4.49216552957434    7.63651997765715
C         3.58579386436342    4.69197495912277   11.62081124248931
H         3.24240126811300    4.29968170599172   12.56503908418656
C         3.75528971553943    4.49016693834381    9.22196085062290
C         2.44050307700923    3.14130441854256    7.63694859860429
C         4.76750539495927    6.33733183311589   10.36128750667947
C         4.50574888709719    5.66024216360965    9.18041709846379
H         4.88706785376544    6.04146749396187    8.24519490164028
O         5.77931447470477    8.10985069865269   11.36614784300965
O         5.88329124415384    7.96430467740772    9.22614285567714
N         5.53645729551798    7.56213641775415   10.31363349731605
Cl        2.98289047213045   -0.57864294443619    5.93250640135972
Cl        3.03753687550766    1.87191156790585    3.63117141593005
N         5.71824328713606    0.68563802689602    4.77958648536965
H         6.60839064356594    1.08616499230395    5.06815696727463
C         4.91146538030570   -1.01207651283389    0.97649920415358
H         5.43571339361565   -0.06992358436176    0.93459606991089
N         4.69581945431155   -0.80961645813146    3.39872562641780
H         3.89284239634805   -0.75465326589568    4.04453172063378
C         3.91444998601457   -2.88196566268629   -0.15551762880270
H         3.68724314935295   -3.43654149928813   -1.05218533063062
C         7.13157008604940   -0.47757005933667    3.19474019965848
H         7.01233460586383   -1.07974298769665    2.29578112073838
H         7.65137286142841    0.44652000800476    2.93456063986544
C         7.95847083358229   -1.26747583013450    4.21503227627450
H         8.11299918328440   -0.69860228263144    5.12816743945249
H         7.45365597057322   -2.19545957524956    4.47202195572103
H         8.92956526293230   -1.50828926434191    3.79126003575306
C         4.63860445728797   -1.70441954711038   -0.19110869037943
H         4.98201999586105   -1.31341745310528   -1.13586463442891
C         4.47050841126400   -1.50011082112512    2.20760961676518
C         5.78671126886005   -0.15082121215425    3.79144408984574
C         3.45513853279394   -3.34693437621857    1.07046097721681
C         3.71844815474689   -2.66911946022193    2.25054429907525
H         3.33693635277139   -3.04884696461948    3.18629723080635
O         2.44029872826286   -5.11893222665049    0.06774721040398
O         2.33873307218443   -4.97194304252967    2.20778028095596
N         2.68397072532113   -4.57028708003854    1.11960865779265

