39
CSD_code = ACARII | q = 0 | S = 0 | Stoichiometry = C14H18Cl2N2ORuS | MND = 9
Ru        4.68495315108736    5.26592166764108   12.55722570581604
Cl        4.81112188576510    3.12977370583958   11.58791052026481
Cl        5.32570815503486    4.28150453737212   14.60256322558623
N         1.38648524415931    3.29509892017842   15.13477071532597
H         0.85923225499016    4.13156314253540   15.34360090918931
C         2.31049182198863    3.38323610511334   14.14562029931812
S         2.40676247285259    4.85302819286516   13.32708005506863
N         3.02410610191072    2.29774120841475   13.85381304992200
H         3.74334326285901    2.37814681207567   13.09313328404921
C         2.94051609898499    1.06300625978761   14.52148386013625
O         3.61956420871519    0.13295201580633   14.18027481499029
C         1.95480544703283    1.05609965394910   15.59997504926313
H         1.84458341485506    0.14545770421103   16.16240228630138
C         1.22282358482105    2.14986870807730   15.86186434199383
H         0.48037156204389    2.18958930462174   16.64453244081738
C         6.55841581616081    6.09236541081515   11.57545462102404
H         7.51653353590649    5.62792533681390   11.36451427373601
C         6.35935220302937    6.76782695892468   12.79377216640203
H         7.16686064988753    6.80478024942984   13.51879346414130
C         5.14701416221378    7.44320759494560   13.07410411639896
C         4.12699158337271    7.37475313114589   12.09970324254328
H         3.18955640281635    7.89480611137922   12.26738893395173
C         4.33979839823263    6.75171270315223   10.84327764290797
H         3.57119076195137    6.80800399559554   10.08109823536692
C         5.55432323165239    6.10762400020763   10.56551167731015
C         4.96671308572491    8.21911179147696   14.35647545908692
H         5.89385003133286    8.13636887305845   14.93434504855884
C         3.83551580945516    7.61789437361576   15.19337353163460
H         2.88164339690295    7.70002779193978   14.67647600173997
H         3.76030396183160    8.13403355388735   16.14724236247034
H         4.04073749734679    6.56429702033407   15.38071950959784
C         4.71396851687960    9.69961415380946   14.05829223912628
H         5.51617077676404   10.11156011570695   13.44883206940591
H         4.66602267981627   10.25997561743289   14.98862285422209
H         3.77340221320750    9.83597415392748   13.52949742322400
C         5.81112843378213    5.45589684607247    9.24355475023684
H         5.77754601426420    4.37001318087636    9.35425606860565
H         6.79967705084031    5.72219026136852    8.87214520852703
H         5.05951511951679    5.74434883559657    8.51239854173874

