44
CSD_code = ACAXUA | q = 0 | S = 0 | Stoichiometry = C13H21ClF3IrN2O2S | MND = 8
Ir       -1.32945255556458    1.03166870281965   12.00707873509129
Cl       -3.09204311893521   -0.29146526130182   11.29688957816326
S        -2.08057306329635   -1.20712504539071   13.93234319667798
F        -0.01604098462661   -0.99967514984674   15.64723879680765
F        -1.05849885221569   -2.87939619043991   15.81855291491012
F        -1.92481730383595   -1.07990885166250   16.63790734895794
O        -1.19545857394006   -1.85338025573254   13.01295240383655
O        -3.40973819468509   -1.68203255638425   14.15014862741498
N        -3.00809547436739    2.41040280229986   12.54266935964498
N        -1.87036521687393    0.37302753589904   13.91639685194255
C         0.26659338107081    0.12134845543502   10.78344165186293
C         0.86122340065089    0.51029302906918   12.02726799048542
C         0.72698844560695    1.92517788232619   12.16664441167343
C         0.07808731000922    2.41844171575094   10.98282090594348
C        -0.21695364754282    1.30622426130493   10.12752132013735
C         0.29432562870431   -1.25793450324142   10.22437944568070
C         1.60810882671995   -0.41030253166576   12.92480747374177
C         1.34058646707704    2.74474900269723   13.25460255269459
C        -0.10831576981764    3.86050166900809   10.63011221463513
C        -0.73699334108936    1.35650714784937    8.72531885553030
C        -3.82748372365841    1.78667140823244   13.59980827082992
C        -2.87943364699203    1.14220244637958   14.61448790945366
C        -1.22983150554433   -1.57437296886070   15.60116986267527
H        -2.65250387042844    3.30698435587385   12.86839434302993
H        -3.58624454231945    2.56465691986056   11.71880846652994
H        -0.31576367703227   -1.32714082224034    9.32898885178731
H         1.31950748647483   -1.54303692859780    9.98537410040102
H        -0.09155454090433   -1.95616283664349   10.96533241645669
H         2.57301371621361   -0.65134713290640   12.47593968067149
H         1.77358950648938    0.03177740049512   13.90218010189305
H         1.04936916825689   -1.33449658511212   13.04997216009344
H         0.88713140958554    3.73089510349908   13.31235898625579
H         1.21808766739323    2.25050648928542   14.21529995590516
H         2.40848123411517    2.87137589034629   13.07045582075038
H         0.76180801728773    4.20862342685225   10.07163536222133
H        -0.98838611221200    4.00501197836612   10.00807064437549
H        -0.20342712616829    4.47760821562190   11.52017898765334
H        -1.55591206258978    0.65069710594631    8.60395123309680
H        -1.09760084118122    2.34978391474889    8.47417776643030
H         0.05583240238174    1.08843680313140    8.02661501603377
H        -4.48411361649901    2.51850489751493   14.08277553595277
H        -4.42848143612777    1.00055476256824   13.13950546726187
H        -3.44429171646051    0.49088058044976   15.28463163932082
H        -2.36725955314835    1.91206371639891   15.20289278508095

