47
CSD_code = ACEDUH | q = 0 | S = 0 | Stoichiometry = C26H2F15MnO3 | MND = 8
Mn        0.21159768797907    2.90610713597307    4.62921991031866
F         3.67184224126510   -0.30975824604423    3.50258599089428
F         4.59643950220764   -2.33084835884721    5.01837663415814
F         4.16719993431663   -2.34400796905053    7.71540766090556
F         2.78625971907593   -0.29175916393242    8.87135209957007
F         1.81359592616844    1.72093974724125    7.33683836237078
F         2.19132489279343    1.62676497524507    0.54095844009158
F         1.80445639143000   -0.60272666538945   -0.92744188530950
F         0.73488313863741   -2.83604628984955    0.21779394213481
F         0.02365979743066   -2.79229181013720    2.85673005024200
F         0.37177532832325   -0.53763277574636    4.31673147903592
F         4.21523199910174    5.41987060437155    4.63002600941161
F         4.50400843863593    8.08812815717574    4.30109180659818
F         2.51246979116362    9.55148986401976    3.14795415668754
F         0.21113632113663    8.31833523761650    2.35302163138544
F        -0.08901421443243    5.64007318519970    2.72727406602226
O        -0.96499311612526    0.96677514214692    6.49781188965004
O        -2.18612619220448    2.95285005302445    2.94540271705472
O        -0.51558884810734    5.23270668289621    6.25455515589795
C         2.15841130248952    1.85738691625790    4.57718856265458
C         1.54525853802100    1.80019721677218    3.28022670155128
C         1.38994247525537    3.13682126277842    2.82544731912479
C         1.89739081289609    4.01481335677510    3.81478894698819
C         2.35096859377445    3.22066138010028    4.90548736343511
C        -0.52366541851033    1.72836623068253    5.77125062463971
C        -1.28075287435792    2.94454676677999    3.64179659797352
C        -0.28708229051602    4.29419024154790    5.64181523104467
C         2.68563125779175    0.74608109923009    5.37878752895898
C         3.41418618549192   -0.30335738641026    4.81944107185772
C         3.91022226147060   -1.34525174903547    5.59360965214869
C         3.69456811163360   -1.35143255143902    6.96877948958401
C         2.98841505032692   -0.30426957456927    7.55698982154694
C         2.50095762233531    0.72571306314291    6.76372463245031
C         1.30559001937726    0.59787310243627    2.47382454747426
C         1.64944991893025    0.55139400525580    1.12152128160056
C         1.46006236465660   -0.59434899357628    0.35830707950779
C         0.91400317029123   -1.73500994039395    0.94074288594690
C         0.55310285037313   -1.71242240428728    2.28583443863679
C         0.74847482480060   -0.55627804880138    3.02744167352183
C         2.06325418880010    5.46376954545411    3.66017427338745
C         3.22262583025219    6.12154066276574    4.07170496223180
C         3.38167303454395    7.49214087085304    3.90329282111291
C         2.36564212573301    8.24046880996085    3.31442285083527
C         1.19248976351813    7.60929437026162    2.90510965383283
C         1.05610931816123    6.23918989703574    3.08107366210169
H         1.07836053335978    3.42633494703815    1.83246035670276
H         2.91995169030460    3.57811739747103    5.75126585202962

