63
CSD_code = ACEGAT | q = 0 | S = 0 | Stoichiometry = C35H23AuN4 | MND = 2
Au       -0.53613176545629   15.66701195738546    9.26011616383181
N         0.77706621363164   14.46656572486252   10.32138303385337
N         3.49292187247925   13.85499610659434   12.52798092939125
C         1.27150189461241   13.31604292240928    9.78816738809551
C         5.41930680882515   12.90496405328097   13.56635169726172
H         6.16249213206266   12.12564788242870   13.59191235860665
C        -8.48213706850335   23.28261329781006    5.38962908375355
H        -8.41379943516501   23.35848895571877    6.46440040006102
C         2.42723681074147   15.89001114844343   13.34608640561262
N        -5.80031537551187   21.07881981853235    4.93499008451297
C         4.45493059010891   12.89397710836896   12.60800240130864
H         4.40413429835440   12.12278727933644   11.85791803875333
C        -3.31991759049261   18.46743268332258    7.01975279845493
C         0.67525165104650   12.65974838375296    8.63166438617718
C        -5.02287548110146   20.23224469007320    5.67522413013873
C        -9.44588849528511   23.93998573174888    3.29327794728333
H       -10.15399102902916   24.53758279907033    2.73787998815548
N        -6.80024040496648   21.62197250035484    5.50377071774627
C        -4.47893117941744   18.95725501430118    7.64544061910925
H        -4.69888954558039   18.63864466507484    8.65524511647111
C        -1.25570670501766   11.90507017701393    7.40695427671479
H        -2.32866958207461   11.81853929271408    7.31939354040799
C        -9.37647382180943   24.05144760977143    4.67441418628889
H       -10.02910741329844   24.73967921179370    5.19232844973997
C        -0.70739193358273   12.53810121060888    8.50614794344178
H        -1.34840063173123   12.92382557525729    9.28433093134635
C        -1.71862272024821   16.82637744447111    8.28799131926625
C        -7.70367421651176   22.29100347046259    3.32803677875239
H        -7.04921382182239   21.59174668135831    2.82914268952641
C        -3.86782823526547   19.73837623641219    5.04711594784398
H        -3.65568377114318   20.05955508309137    4.03800298641884
C        -2.46024138377604   17.58800654046493    7.70146482262063
C        -5.31479982618883   19.82224909107585    6.98963559950372
H        -6.20991749931407   20.20507041920874    7.45787059766750
C        -8.60997481744416   23.05627037746430    2.62585690765757
H        -8.66997123440576   22.96772601955296    1.55005174598796
C        -3.03122761261331   18.87513916438080    5.70815290174952
H        -2.13947696681274   18.49613011940592    5.22901695740973
C        -7.62640952796074   22.39882749440569    4.72317492971779
C         2.37714775975439   12.86558156686093   10.49660863672480
H         2.92833138106723   11.97179404837305   10.28213195899371
C         1.49361579212835   12.11616985350960    7.64344904210365
H         2.56664833744452   12.21011799809427    7.73118704016723
C        -0.43489388851874   11.38315011541082    6.42084668921846
H        -0.86562888469625   10.89333981220291    5.56006848328796
C         0.94070729177215   11.48649928883178    6.54443212722573
H         1.58494511333940   11.07699376163990    5.77970498067167
C         1.54252414599084   14.77351125085159   11.38279038561449
C         3.45701908901470   14.89135212018635   13.43869477095252
C         1.45162096373797   15.84283789382721   12.31024994265057
C         0.44895009953331   16.82332931752878   12.25705553837857
H        -0.27829558019039   16.76260172129087   11.45908957943703
C         2.56277857695383   13.79009457204478   11.53050927506985
C         2.34023235252401   16.94502431766055   14.27626207602255
H         3.05538395420799   17.02319753843696   15.07875070192037
C         1.35317737118535   17.89339130263309   14.19640855184941
H         1.31475454676618   18.68913249343610   14.92485766515178
C         4.45258035922773   14.90866570572973   14.42771657704477
H         4.45554782461640   15.70812331042204   15.14767790845628
C         5.42495612364067   13.94413775735136   14.50713283986058
H         6.17860265787893   13.98357946107763   15.27610569424253
C         0.39705323719593   17.83345994503183   13.18021380021913
H        -0.37949180493978   18.58068090578800   13.12357853409731

