25
CSD_code = ACEHOI | q = 0 | S = 0 | Stoichiometry = C12H8I2N2Zn | MND = 4
I         5.90560652168125   -0.01980710379813    1.22023651045909
I         9.58649603005904    1.72773299353014    3.62651112895153
Zn        7.40472187581670    1.61181308784683    2.38718165514165
N         7.40929375742713    3.39959649733633    1.17224303656290
C         6.72126340595999    4.40198137479526    1.74198075245303
C         6.65713275893380    5.68906099039899    1.16429775710791
C         7.34438275153288    5.89460558403769   -0.04371911613038
H         7.31728012901727    6.86785831666402   -0.51153160501809
C         8.03849353600092    4.85266984734096   -0.60818856490923
H         8.57733182576803    4.97140445122303   -1.53422797174355
C         8.04203940797812    3.61598523816870    0.04092370852785
H         8.58012378215429    2.77589095151705   -0.37808879356065
C         5.91384233472668    6.71610570341598    1.81213273172667
H         5.88392577980140    7.69096289099036    1.34881381081427
N         6.10078423756008    2.91989070633887    3.51040844496879
C         6.03148849864987    4.14910414695300    2.97472713582497
C         5.30198227705517    5.19221212738139    3.58637918077395
C         4.63925309785791    4.90278670450390    4.79086363065773
H         4.07444905912131    5.67884403178615    5.28628113441843
C         4.72188788787776    3.63667741203075    5.31648674925882
H         4.22635897935281    3.37616120331733    6.23765664901133
C         5.46912657443214    2.67269477604078    4.63601176606719
H         5.55347267128546    1.66631240907155    5.02452327114809
C         5.26310608018981    6.47754273258016    2.97528193528530
H         4.69935673976014    7.25671292652840    3.46621506220241

