62
CSD_code = ACEKAU | q = 0 | S = 0 | Stoichiometry = C21H37NNiP2 | MND = 4
Ni        4.74580940724774    4.58104500494915    4.89472667832358
P         2.73976918896626    4.07857529126520    4.22674612442143
P         4.00928294663851    6.19417688251112    6.19283217063235
N         6.59803591776800    4.41671186090049    4.95213462214809
C         6.17377688762192    3.48644327140010    4.32169215937940
C         6.52110753339367    2.28249517285608    3.61194658941819
C         7.83718503622047    1.82188655653748    3.68769771707240
C         8.20109344657624    0.66933149546981    3.01908720591058
C         7.26700752768489   -0.03022288155201    2.27051672106083
C         5.96010923411149    0.42359848547648    2.19344992709668
C         5.58648149090710    1.57230185867244    2.86319679161163
C         1.90175388281220    2.41175721662365    4.09127732913529
C         2.32917158863778    1.56957026520083    5.29166066974795
C         0.38663039437195    2.43496118318913    3.92976193515380
C         2.31443209632489    4.92030765519218    2.61478474619154
C         3.00946690367623    6.28065669605141    2.64030060656049
C         2.82689186031748    4.10882550536692    1.42907328606087
C         4.32367485476313    8.03315157582295    6.10055938326501
C         5.80461512548979    8.28389248756108    5.82473201857144
C         3.81231397950799    8.84261970928814    7.28541743304544
C         4.25873828608456    5.69959222221791    7.97170119273953
C         3.85265697327822    4.22955367867693    8.05718262344229
C         5.73361533709281    5.84253997659284    8.33196103768944
C         1.57736946810163    4.93069146223918    5.41278104085918
C         2.14366028052691    6.19431117694679    6.06845220851283
H         8.55785021624875    2.37480779749851    4.27175857206284
H         9.21949753808010    0.31360291196895    3.07915986955520
H         7.55832203067684   -0.92978042894869    1.74801820384017
H         5.23163890352193   -0.12219083221219    1.61094068757320
H         4.56882617319754    1.93497557963929    2.81580968160611
H         2.33304907556334    1.94860329548529    3.19532977221591
H         2.04967770602356    0.52640661436738    5.15336459996847
H         1.86157166348121    1.92653038771078    6.20738100869946
H         3.41142483704639    1.62402842715284    5.41930223088519
H         0.02378614765749    1.42444111656979    3.74435881598363
H         0.08895316200376    3.05890751865532    3.09007125195985
H        -0.10098605137517    2.80347953527588    4.82859110295505
H         1.22966734230384    5.05598312304929    2.53068992851192
H         2.99852435666715    6.74571075012694    1.65538566765232
H         4.05357968287731    6.14951041315939    2.95018352226701
H         2.52764611316082    6.95565064611126    3.34298475234913
H         2.68178130503538    4.66425596548199    0.50316544150379
H         2.30571914324713    3.15860936313711    1.33412463348601
H         3.89368038660972    3.91899678493259    1.54514283872678
H         3.76918309440310    8.34034604496395    5.20225016037173
H         5.95845942878086    9.28786959343733    5.43188170064767
H         6.17052821327804    7.56129725626663    5.09489240859341
H         6.39849483219092    8.17846457632585    6.72797455250898
H         3.94069145185850    9.90636465378275    7.08797717704894
H         4.36419921511299    8.60112055252723    8.19011501205270
H         2.75517185909693    8.65583186682881    7.46319781085811
H         3.63469946142583    6.30331215618541    8.64051264457353
H         4.16703437942076    3.78991653101561    9.00273513509394
H         4.33807369986740    3.67828151811848    7.24168642600046
H         2.77592232743342    4.10671865753860    7.96558968781158
H         5.94906761238918    5.33139711585193    9.26974940634057
H         6.01889772117906    6.88515649979377    8.44433231321556
H         6.34109874927976    5.39546510209755    7.54429012322962
H         0.63722691389780    5.15746124469360    4.90238340369751
H         1.36804323691016    4.18685216452922    6.18545967324079
H         1.70833165585478    6.32609574159608    7.06291480373271
H         1.87131676747063    7.06884594583363    5.47302276112535

