79
CSD_code = ACEMIG | q = 0 | S = 0 | Stoichiometry = C31H40CrO6Si | MND = 9
Cr       13.49472415061201    8.54546825109017   11.15078640723643
Si       10.86754961215400    5.38607719345534   10.58173344449121
O        11.96098323795264    5.59518438243874   11.79849448887244
O        15.98324191110681    4.30313473731209    8.96138856459465
O        16.04523109631544    8.98405450541268   13.36493143794615
O        10.88290735593261    9.55787500176906   10.16535732758538
O        13.98030608865031   11.41780501576132   10.55829848027696
O        13.92077103581270    8.69599541892512    8.21160149693327
C        12.92689410323725    6.50331944357800   12.06868172139872
C        12.66859363326326    7.53676567779241   13.00558343603862
C        13.72174853075235    8.36358286528441   13.43378599140272
C        15.01384349577766    8.19867496531912   12.86569294364472
C        15.25169292516730    7.25696640739042   11.85630873337488
C        16.62763876627584    6.99904226500161   11.27115484952304
H        17.10334099284564    6.21271807453076   11.88042514646198
C        16.48864562650571    6.45504023985377    9.84155541616293
H        16.07375110350557    7.23563091992508    9.19647072220856
H        17.46517615785113    6.17311911740386    9.44685503600853
C        15.57652813639184    5.26700915645092    9.81834040712859
C        14.47955699431687    5.25848602490150   10.58792807858228
H        13.76495699199463    4.45409195660811   10.58153542720934
C        14.19715369515251    6.37525309408162   11.47100200482453
C        15.16398845778142    3.17028435824093    8.79224960227955
H        15.03717714252672    2.62415730621939    9.73181991759556
H        15.67455787978259    2.53709461461357    8.06904965918116
H        14.18129125075148    3.44990197638900    8.40160973342967
C        16.83233624582541    8.34530953258628   14.34976234803195
H        16.23680113171457    8.08172732352356   15.23251389258908
H        17.60104843343164    9.06313953026800   14.62767024675982
H        17.30862813401762    7.43888600349385   13.96607428257989
C        13.52653075566833    9.40022985344078   14.51296417398540
H        14.48480837786847    9.60947535100177   14.99051341033185
H        12.84704374856709    9.02082936868266   15.27922075335441
C        12.98921153578060   10.71859033701198   13.95095646362594
H        13.72403384141259   11.16008329849502   13.28343637484341
H        12.79402001246209   11.41672477898683   14.76212211258361
H        12.06947944223375   10.56485575785547   13.39030175602387
C        11.31194239562268    7.56711403233206   13.66054372475759
H        10.55551034573366    7.33475766590437   12.91271500851436
H        11.09501551189360    8.55761248321628   14.05769469515385
C        11.23376575480717    6.52626362951306   14.78109489739196
H        11.40390149226078    5.53114492773314   14.37781088861524
H        10.25158629401040    6.54660317449885   15.24686461796663
H        11.98338715447229    6.71992850788651   15.54673448878744
C         9.32256136996799    6.48493355913257   10.78998202285010
H         8.83279071625710    6.35016009806616   11.75067409473693
H         8.59137190704672    6.24833725139393   10.02366240763428
H         9.56318178619897    7.53792394758777   10.67915137541684
C        11.61579424001934    5.77387310633940    8.87617099005404
H        12.13129104306986    6.73185530181476    8.91240855616157
H        10.84330885514129    5.85083524992873    8.11874631518840
H        12.33088550180623    5.03154614806084    8.53584729745866
C        10.38658414234606    3.53442048986466   10.82479561357468
C        11.58231037193684    2.59682029118728   10.63756893303835
H        12.35636701660011    2.81075005402041   11.37154170455321
H        12.00230304560275    2.69549695345570    9.63872961985313
H        11.27362161113150    1.55986514378581   10.76998700067477
C         9.31951533578245    3.16417052031136    9.79480622140560
H         9.03268213344858    2.11847214548778    9.90147448184092
H         9.68931061735136    3.31451252289745    8.78361250678335
H         8.42958499240600    3.77341564143370    9.92573680895470
C         9.81509864051022    3.30375187509344   12.22633972070650
H         8.92875673414935    3.91143963516575   12.38886228956482
H        10.55077485330938    3.55784881912326   12.98552045507151
H         9.53779312173687    2.25791327650100   12.35628991433400
C        17.54182442117843    8.20097221613223   11.23286662284315
C        17.13187888467654    9.38900490998238   10.64028556094862
H        16.13261968712817    9.47293430199407   10.23595717328548
C        17.98611435122885   10.47411810898003   10.58600909305511
H        17.64603881263888   11.39447824899974   10.13629274060880
C        19.26722350236068   10.38239938010137   11.10449543847943
H        19.93313924862182   11.23163407012322   11.06348554680764
C        19.69185712757026    9.19468291592101   11.67232838704932
H        20.69259456615104    9.10943849575863   12.07092102424855
C        18.83383258305498    8.11025415925862   11.73298773986371
H        19.17713282262890    7.18427082808919   12.17621626459022
C        11.87950627303337    9.12602482412488   10.57683153181462
C        13.82900861145900   10.30876374755615   10.85723391429957
C        13.78284009224810    8.57597323613907    9.35894602196524

