36
CSD_code = ACEPUT | q = 0 | S = 0 | Stoichiometry = C19H8BrCl2N2O3Re | MND = 6
Re       12.98973643152748   14.50612280138209    6.54295313137719
Br       11.33284525196579   16.37284543741474    6.97820180750216
Cl       10.58669394955921   10.28519297608251   10.97194985533163
N        11.65742619357646   13.20338318914463    7.72936815548671
C        11.28132368240164   14.59458886241267    4.04942083059952
H        11.43425376163345   15.64934115329238    4.24509269430750
O        14.69180346366763   15.44996115060828    8.94763479311784
Cl       10.24921699252440   12.32577023688703    0.97805384764629
N        11.56905529038190   13.75455635065014    5.02705493131117
O        14.54917147810365   16.34430611750528    4.60402659870364
C        10.80553981470450   14.20854747184693    2.80199334740738
H        10.58191889837497   14.94839729004060    2.05216981756512
C        10.69681568541619   12.86332176303025    2.54886510049032
O        14.76093700973640   12.04130328960328    5.97802207044338
C        10.94052488732916   11.93594379585137    3.58674659346080
C        11.30276051896087   12.43341308399723    4.87062547771673
C        10.84674714966382   10.54223704731844    3.35960995365301
H        10.64469842793502   10.19537143310150    2.35921337467779
C        11.00348316942877    9.67511608889423    4.38541172527302
H        10.94253771867554    8.61002106895672    4.22272991532426
C        11.16898528700768   10.14285804504163    5.71246402067409
C        11.33688506649861   11.51623918433793    5.98706959949844
C        11.08742263204211    9.19043119051996    6.75820597198369
H        11.02511598598692    8.14584207272033    6.49446642876198
C        11.01014577725349    9.58426968600792    8.04958363121102
H        10.87194944419049    8.87041828797369    8.84535242670955
C        11.10364284865692   10.95707195851504    8.38040024760107
C        11.38689422668342   11.92249529388240    7.37308598045079
C        10.93721023678220   11.40105566596160    9.71148152575047
C        11.04267820528433   12.73981022645584    9.99807546943966
H        10.87495583742042   13.12427104497155   10.98986404071489
C        11.44165858307354   13.59001637575703    8.97360937310190
H        11.59289417512788   14.63957299091403    9.19667086327387
C        14.10216880578636   15.09782264212065    8.03068544674908
C        14.01413971677751   15.65041900507756    5.34205314243855
C        14.11376339586177   12.96486572172358    6.18958781024548

