31
CSD_code = ACEQAA | q = 0 | S = 0 | Stoichiometry = C16H8Cl4N2Pt | MND = 4
Pt        6.37536202029426   10.19259268182754    7.55937924599855
Cl        8.35018652140373    5.05249208693749    4.39117664740967
C         7.68768125169232    7.66535402813297    7.28830791984399
H         7.57544668623416    7.67395772177109    8.36341790148560
N         7.47580770312554    8.81329521148219    6.65934628215213
Cl        5.05897907710790    8.59764534841693    8.42455529751349
C         8.00901166304259    6.48794469894981    6.62667919762985
H         8.16758243461614    5.57776372598900    7.18013649799083
C         8.05946810877567    6.51097241312738    5.25205507114859
C         7.89019954745231    7.73162424135087    4.55902778674296
C         7.65168115346389    8.91249209245975    5.31832055151381
C         7.93826604253476    7.78920025468392    3.14619254046635
H         8.05944467116070    6.87058421304899    2.59547956442048
C         7.83938111381444    8.98027055328532    2.51080038634451
H         7.86985346390303    9.03271802098445    1.43331971463375
C         7.75552545879535   10.19250111217355    3.23781885389896
C         7.64594722726034   10.19250206274019    4.64789728471822
C         7.65173825367586   11.47250993796101    5.31831200848702
N         7.47595805250493   11.57169542113540    6.65934893576125
Cl        5.05856064715612   11.78717701115725    8.42466750508141
C         7.68778607646940   12.71964679055536    7.28830453072298
H         7.57555957056579   12.71103989292216    8.36341521324930
C         8.00903689471046   13.89707806123852    6.62666097763286
H         8.16759618211147   14.80726547017185    7.18011298866226
C         8.05946965398467   13.87404562534048    5.25203618868135
Cl        8.35018094296832   15.33252224121915    4.39114860304569
C         7.89021507527274   12.65338479344989    4.55901622448982
C         7.93827546665073   12.59580139749904    3.14618392498721
H         8.05945399920522   13.51441540746578    2.59546867414347
C         7.83938779576577   11.40472871618585    2.51079693582888
H         7.86985724428139   11.35227876633664    1.43331654531483

