41
CSD_code = ACETUX | q = 0 | S = 0 | Stoichiometry = C10H22Cl2N2O4Zn | MND = 4
Zn       -2.28220593450455    4.47213216303743    9.86614625805765
Cl       -0.43623460559616    5.09016319965055   10.89450360708694
N        -5.20255577244870    4.20072941268982   13.91277661189791
H        -6.11503789211635    4.09109375251850   14.33977043238764
H        -4.32084701766265    5.40085982680858   12.69015324083594
H        -4.50390097414601    4.11788952196972   14.64389085961859
O        -3.69212171208342    5.02268237656928   12.03143928368270
O        -3.23557329850190    3.02925747783279   11.22398955064046
C        -4.98957608844063    3.19850325157169   12.87151667590359
H        -4.67353367655337    2.21682634468711   13.25519084559994
C        -6.28132624464954    2.99586649076840   12.03981388085943
H        -7.05668530440427    2.68758251503177   12.75409551873738
C        -3.88851158332744    3.72629507358773   11.96646192123214
C        -6.09738739351401    1.88478926311599   11.01265199962807
H        -7.03039578901388    1.72066014586442   10.48000794768675
H        -5.80330371391477    0.95353452948632   11.49179821740005
H        -5.33399036922448    2.15645153151219   10.28884352023683
C        -6.72181429961280    4.29148686189118   11.36278901743788
H        -6.80405227588591    5.10280762919223   12.08259177433098
H        -7.69558330987622    4.14674421332568   10.90181243210795
H        -6.02318888554989    4.57897999830211   10.57984438413690
Cl       -4.13124092826610    5.07746053444136    8.83536902728152
O        -0.87699380146413    5.01696326659068    7.69951985487546
C        -0.67474189084800    3.72169129102531    7.76860045874266
O        -1.32331021483651    3.02449165334886    8.51472082008539
C         0.42712186418289    3.19600991466440    6.86303733807139
N         0.63668339681886    4.19830906962837    5.82105947412664
H         1.55093604010042    4.09405897130476    5.39657209084565
H        -0.25067305859723    5.39534220425900    7.03841864201868
H        -0.05959692819348    4.11069405159400    5.08828205227181
H         0.11327561337338    2.21347606567571    6.47987190587103
C         1.71990420447362    2.99680320034785    7.69386655028749
H         2.49616958368183    2.69223723640174    6.97894743834623
C         1.54035474572174    1.88360010165519    8.71950256965419
H         2.47256540903512    1.72601096887335    9.25548710763880
H         1.25509493796517    0.95058616765487    8.23844338147330
H         0.77220448647553    2.14892214294867    9.44061287526188
C         2.15566387376799    4.29327804553730    8.37232426203567
H         2.23317393470197    5.10612025906858    7.65370630290035
H         3.13081349845151    4.15220144582171    8.83150999795288
H         1.45692137467174    4.57670782963709    9.15665987066650

