85
CSD_code = ACEWIO | q = 0 | S = 0 | Stoichiometry = C30H44N6NiS4 | MND = 4
Ni        0.00001594150663    0.00015990386161   -0.00002678634611
S         0.31413170402086   -1.65705360027965    1.46057780412391
S        -1.24820258937694   -2.16886910356207    3.87003392849727
N        -1.74155727854188    0.19402001450010    0.82508427080991
N        -1.97328149220079   -0.42560328789169    2.01354626170479
N        -8.05273144688063    1.89116306690934    1.86830317775215
C        -1.08111513580567   -1.28224819121089    2.38025330178869
C        -2.83026215268554   -1.55112702254959    4.51413114019133
H        -2.97781731044965   -2.03882238398785    5.47219328250774
H        -3.62467337867582   -1.81885368090730    3.82497906650685
H        -2.76690898240736   -0.47524885491408    4.64037722675234
C        -2.73654903099240    0.85126225239675    0.29280730562055
H        -2.53214293586179    1.31748485957948   -0.66378572754757
C        -4.07401415564039    1.06160500677883    0.76028027783321
C        -4.58319517764728    0.67727659608883    2.00783038572501
H        -3.93237682070873    0.16563749192405    2.69378492371518
C        -5.87970667271008    0.94619137546028    2.36960348924828
H        -6.21071252037989    0.61404800288679    3.34026742722534
C        -6.76532285856339    1.62070784632707    1.50840833097167
C        -6.25177386232707    2.00703425183845    0.25450870686129
H        -6.87047200159857    2.54047134681411   -0.44792386579484
C        -4.95568327667363    1.73908446952751   -0.10016814901279
H        -4.59901776431359    2.06131485151305   -1.06803485786997
C        -8.53674054186405    1.67477075286347    3.21270855339624
H        -9.33037475547584    2.40166370668982    3.40845944887899
H        -7.73611490462768    1.87229827111273    3.92973858519490
C        -9.09174022529494    0.26001024157387    3.42361403213494
H        -8.31023306088059   -0.47060953587290    3.20857206875001
H        -9.90569431161546    0.08686581811734    2.71633173175892
C        -9.60065918571152    0.07166223549029    4.84647655518110
H        -9.99827497891033   -0.93119706433712    4.97906159154587
H       -10.39083722070903    0.78600651117626    5.06851765782992
H        -8.79602267317081    0.21903538706292    5.56356182359380
C        -9.01731217201022    2.41796618412938    0.92956673894106
H       -10.01010031042644    2.07486411401454    1.23491442103660
H        -8.82701545629117    2.00646706361955   -0.06478386494783
C        -9.01410065063416    3.95121570165386    0.87164740106984
H        -8.01908370113325    4.30029567801807    0.59165454665856
H        -9.23220483882527    4.34683826680821    1.86596462625095
C       -10.04332215323011    4.46880235897789   -0.12415824615682
H       -10.03719304324563    5.55544288599241   -0.14762266539237
H       -11.04255902407227    4.13706988283734    0.15020305496069
H        -9.82507611001656    4.10329261293932   -1.12523328070514
S        -0.31388076140456    1.65778452356585   -1.46020173067359
C         1.08137075117372    1.28307125273312   -2.37991459795121
S         1.24864555369170    2.17005611151940   -3.86945998935656
C         2.83080163207964    1.55246958871702   -4.51346374398168
H         2.97857596601948    2.04051535599501   -5.47131258395211
H         3.62507866380147    1.81989503294758   -3.82404215095972
H         2.76741977053002    0.47664156090291   -4.64012774509244
N         1.97354603996403    0.42641403129042   -2.01327005521284
N         1.74173053354390   -0.19340194570664   -0.82492812161518
C         2.73662646135502   -0.85090174630380   -0.29279104865633
H         2.53214964625048   -1.31731701512904    0.66369235925835
C         4.07404561051374   -1.06140102364940   -0.76032039154365
C         4.58325226920156   -0.67709154007749   -2.00786535145416
H         3.93249513261708   -0.16532228208195   -2.69378245550238
C         5.87971532516044   -0.94619480782273   -2.36968107245080
H         6.21075173934173   -0.61406735241395   -3.34034037499054
C         6.76524897133633   -1.62088276426862   -1.50853392835849
N         8.05261375812190   -1.89151284274824   -1.86845675107148
C         8.53663784182622   -1.67513195884715   -3.21285816606740
H         9.33018175968148   -2.40211468355956   -3.40864066676510
H         7.73598072121335   -1.87253773416747   -3.92988675187258
C         9.09180940660802   -0.26043277447646   -3.42372176377669
H         8.31039356670102    0.47027644413810   -3.20865207414552
H         9.90578826696127   -0.08741118159501   -2.71643823608521
C         9.60074259411805   -0.07210271763353   -4.84658155591247
H         9.99846511551394    0.93071688490795   -4.97914422655904
H        10.39084243846685   -0.78652652331140   -5.06864417101642
H         8.79608667337159   -0.21937218871199   -5.56366594708371
C         9.01713328148125   -2.41847350260974   -0.92974449097345
H        10.00996505051196   -2.07549445827319   -1.23508851535043
H         8.82689879215253   -2.00697821822291    0.06461974553191
C         9.01371931600633   -3.95172442013659   -0.87186785945078
H         8.01865460057668   -4.30068069393119   -0.59189064959896
H         9.23177631822315   -4.34734768831391   -1.86619484498122
C        10.04286469210580   -4.46947828838021    0.12393070475900
H        10.03659466548127   -5.55611929549351    0.14735682901924
H        11.04214777543678   -4.13786505611975   -0.15040791850412
H         9.82465557835152   -4.10397630963020    1.12501660463394
C         6.25166551124004   -2.00720407517535   -0.25464714219246
H         6.87029453726489   -2.54077657316802    0.44774298294266
C         4.95562182585784   -1.73908074733182    0.10006496116980
H         4.59892112460543   -2.06131466139146    1.06791718459215

