44
CSD_code = ACEWEK | q = 0 | S = 0 | Stoichiometry = C14H27ClPRh | MND = 8
Rh        1.18442684023811    0.53723120925957    9.71444352162171
P         2.30537392517542    1.96377534096868   11.06443159065745
Cl        3.32669344046761   -0.10945007858367    9.10481165324101
C         0.48551547200587    1.02220678733389    7.57712245419844
C         0.06261830959515   -0.29398306391097    8.02310311133250
C        -0.85646186871630   -0.11809490203255    9.09492424706198
C        -0.87000260369716    1.27181562584065    9.42739061607039
C        -0.08896189285754    1.97828115269300    8.42728409363578
C         1.36600872339562    3.06353912890899   12.20301998295202
H         0.68037535778332    3.68637167713622   11.63345405186147
H         2.04837339697786    3.70042307997878   12.76352952008464
H         0.78958871637353    2.45214317681982   12.89403586614177
C         3.58031440056650    1.32227760641998   12.20709851923543
H         3.10877861775008    0.73823564261008   12.99422502567674
H         4.13248375272734    2.15240085429277   12.64652318879737
H         4.25645153156204    0.68457177848788   11.64175856214402
C         3.28892400995681    3.18654239514392   10.11846440168789
H         2.63368385964125    3.76906234774462    9.47358724333399
H         3.99566767596332    2.63572036202260    9.49998313270356
H         3.82412871392787    3.85202710687314   10.79484947904089
C         1.26002845332033   -0.92359065240228   11.21235068024365
H         2.26325856211986   -1.09185321194659   11.59802101837465
H         0.91532167144568   -1.85843628884421   10.76364273407454
H         0.60137033017595   -0.66118482357649   12.04438322846815
C         1.30155057950746    1.25394907518644    6.34485299343699
H         2.23486435607643    0.69291834808360    6.39203225229178
H         1.54021960681350    2.30765998535154    6.22009152435054
H         0.74645499877207    0.91534289520282    5.46797319970218
C         0.30827414624536   -1.54868925263219    7.24210043031319
H         1.35223103124729   -1.61417955324828    6.94045428865638
H        -0.30946061687781   -1.54995023136433    6.34097153939348
H         0.06519785612697   -2.43220222731956    7.82797762022594
C        -1.76205738791346   -1.15437468316102    9.68385701917463
H        -1.89963509437574   -1.00215431124307   10.75225778929366
H        -1.37423798855097   -2.15752602185229    9.52511436402524
H        -2.74022943378247   -1.08708941829370    9.20282850580292
C        -1.84688679776116    1.91300680021584   10.36530306171381
H        -1.97850454734627    1.31416342523134   11.26409808816860
H        -2.81845838117823    2.00479971265730    9.87443565444238
H        -1.52185077614278    2.90828884411874   10.65867346723827
C        -0.09002334712228    3.46531770484589    8.24237590102222
H         0.76175249680093    3.79113858469310    7.64933935425360
H        -0.06618388584292    3.98795907841925    9.19726010788312
H        -1.00207621059530    3.76408899386990    7.72066491597024

