45
CSD_code = ACIFOJ | q = -1 | S = 0 | Stoichiometry = C20H16AuS8(1-) | MND = 4
Au        5.91873745736048    2.87059155812033    0.00057956299713
S         6.23587868827894    1.19701454587695    1.58514192868929
S         7.13110170212078    4.34640117047896    1.32811855549745
S         7.73672435839007    1.02485615940831    4.12132029954100
S         8.60724839549426    4.08694440739282    3.87150667437725
C         7.26198927319322    2.01415630295327    2.73470350048335
C         7.62656401101612    3.29695040804885    2.63011141971850
C         6.46082206732758    1.58433552811872    5.34505356357610
C         7.28099795876319    4.46835384256385    5.11029033997339
C         7.08634722795034    2.33649561068633    6.47156999434437
C         7.46800914104251    3.67872047384378    6.36232868959257
C         8.07645579327520    4.29665387555184    7.44955127818648
C         8.30956496570681    3.61543650350717    8.62907599630225
C         7.93254001617719    2.28869547254392    8.73694626484634
C         7.32768383907685    1.66243857690115    7.66383141581046
H         5.74132936298113    2.17353144444460    4.77984604699043
H         5.98023005730413    0.67483642652790    5.70336976906240
H         7.36339914311647    5.53646623804586    5.30769022836298
H         6.33617949281067    4.26622649548550    4.60965879993557
H         8.37674680238642    5.33097789665914    7.36015877193955
H         8.78718777720675    4.11727604980974    9.45827308449928
H         8.11233495997980    1.74162181501020    9.65121210480163
H         7.03872658874927    0.62405464038945    7.74288490832744
S         5.60089857231958    4.54309041946047   -1.58502906797584
S         4.70610401413161    1.39438047016189   -1.32813977345015
S         4.10019201870204    4.71568526192591   -4.12142355391046
S         3.22969336611466    1.65343236340145   -3.87157195951312
C         4.57496240733320    3.72628328151579   -2.73489462029693
C         4.21044507308387    2.44350774322986   -2.63029635490132
C         5.37616906588679    4.15616408071718   -5.34506406146615
C         4.55599939092864    1.27211349060340   -5.11031707094119
C         4.75065599118396    3.40399477949607   -6.47157837565067
C         4.36899087883771    2.06176880070335   -6.36234087798261
C         3.76054455793426    1.44384177774672   -7.44956460923660
C         3.52742364738881    2.12506933297211   -8.62908009352185
C         3.90445536039429    3.45180887873639   -8.73694747542822
C         4.50932582247094    4.07805628520552   -7.66383632776956
H         6.09564186148844    3.56696803644596   -4.77982235089401
H         5.85678067832225    5.06565263403975   -5.70337787647618
H         4.47363023099367    0.20400502395756   -5.30773400221986
H         5.50080373381215    1.47425937885502   -4.60965924567111
H         3.46025382311918    0.40951711028835   -7.36017684807680
H         3.04978809525920    1.62323785991356   -9.45827436020334
H         3.72465226110636    3.99888866748509   -9.65120740851462
H         4.79829006948097    5.11643888077041   -7.74288688375578

