34
CSD_code = ACIFEA | q = 1 | S = 0 | Stoichiometry = C10H14N3O6Zn(1+) | MND = 6
Zn        6.22372548385658    6.98453126375454    5.28970904223866
N         7.77051824336603    7.27505121297970    6.55706149016988
C         8.81303292506274    6.48659861012864    6.26041867436777
C        10.02683686278809    6.62437863780168    6.93070547675651
H        10.85418788710359    5.97079726676850    6.71165797355487
C        10.16464094553393    7.60931970706426    7.89460059032439
H        11.10167467614690    7.73544904135224    8.41434239450745
C         9.08072274478308    8.42546830233362    8.17718385765517
H         9.14515480445694    9.20807738340388    8.91502165416994
C         7.90013057325907    8.21432954129888    7.48486482423649
H         7.02418273362096    8.81393905798753    7.68024570727330
N         7.32259504279206    5.31393876710040    4.81658933727336
C         8.59268790903298    5.48704140244803    5.20151875998570
C         9.62967002046667    4.77480955139118    4.60510406041988
H        10.65402072796524    4.94025488612611    4.89299574537091
C         9.33650620223929    3.86744476392994    3.59989422921410
H        10.12866019811304    3.31837715048555    3.11503147829853
C         8.01532418708186    3.68653395877468    3.22520949173019
H         7.74368622185378    2.99125688571223    2.44803871424029
C         7.04268680272072    4.44041347362824    3.86177078080837
H         6.00074403414485    4.34815945262756    3.59408260761097
N         6.87011325648416    8.85382805311512    3.75825759050675
O         5.89422328282245    8.89368299999042    4.55412029873746
O         7.17485646874884    9.80186121979732    3.11013814243115
O         7.47279110015613    7.77224675532626    3.70874684752072
O         4.81614628284983    8.09167163381612    6.82947262475648
O         4.59448849550261    6.51229064393918    3.98360069802463
O         5.01946870027907    5.42118050813028    6.56301359409233
H         4.89789137395035    8.99124157599029    6.49071259268394
H         3.87959897300273    7.87955580483731    6.78607535474530
H         3.82293753082213    6.07601792155482    4.35901058159837
H         4.28470268597155    7.26025532127038    3.45959322981805
H         5.36501134921176    4.52518428718013    6.58839122777211
H         4.96548127380539    5.73331295795810    7.47092032710605

