63
CSD_code = ACIFEY | q = 0 | S = 0 | Stoichiometry = C24H32Br2N4Zn | MND = 4
Zn        2.66621679631101    7.18559127311842   11.29931653861409
N         1.19036549665497    5.57830968976758   11.40233756268311
C         0.23386972014452    5.45993972381585   10.46148227908169
H         0.24752078723261    6.18637787400714    9.66231707211632
C        -0.72896692856922    4.47339021862418   10.51680706110586
H        -1.48817613482865    4.39318447058515    9.75295226801050
N        -0.79348630721487    3.57455546143340   11.50446255316305
C         0.14685786504692    3.68220113161630   12.40881076316365
C         1.15092258662426    4.67610756222427   12.36110275759149
C         1.97934846585385    4.50093842677188   13.58535876612178
H         2.96336391206734    4.95674469100641   13.58361578412055
C         1.04678254307155    4.99701569328677   14.71551679933716
H         0.65080203967337    5.98624895971981   14.49010294259696
H         1.60414981413309    5.07653195739089   15.64579950906575
C        -0.04946864725732    3.91829555009111   14.77013473866934
H        -0.08909695530276    3.42230711791711   15.73828566922930
H        -1.04049803940548    4.32265369926849   14.56425676373398
C         0.36568507725792    2.90250052271032   13.67125794835602
C         1.92097883756429    2.96237683120990   13.75332361634351
C         2.52079170359131    2.45872032649015   15.05982659244915
H         3.58625693688574    2.67829044328346   15.07720102035602
H         2.39643429244196    1.38050429735756   15.13084241370258
H         2.06910305214661    2.91207980609264   15.93411133797682
C         2.61244887741055    2.22965267730876   12.60329478696410
H         3.66807068568305    2.49717117901693   12.57456774164502
H         2.16923494279012    2.47520930445771   11.64038022241462
H         2.54092651928533    1.15350564383756   12.74251838272883
C        -0.32068302414346    1.55761252489765   13.74997020571643
H        -1.39408867772254    1.68789302787180   13.63918259468026
H        -0.12039663417950    1.08372377293744   14.70765152816891
H         0.02652509563126    0.90616808455554   12.95210273344731
N         4.26858885400751    5.78636429480905   10.80277709990533
C         5.22892605662398    5.49473013336641   11.70103932570934
H         5.15850075632108    5.98305193821475   12.66185216557133
C         6.26424772448432    4.63030998490404   11.41101925342624
H         7.02434848533088    4.40622459827667   12.14473512374907
N         6.40112076224763    4.03208622478862   10.22318747931824
C         5.45887477344099    4.30667773440256    9.35693444846391
C         4.38022159343964    5.17500532858807    9.64155170629813
C         3.57279153855020    5.27110175089748    8.39472949413682
H         2.55598615299980    5.63522942526023    8.49285277407251
C         4.46844772358018    6.11914135215279    7.46105862701966
H         3.91088175157398    6.40180002182844    6.57133933186375
H         4.78414567583379    7.03911329874237    7.95124715021687
C         5.64673452641123    5.17919211730498    7.15001471694153
H         6.60167113039628    5.58653237477911    7.48202548381893
H         5.73063198656310    4.96467215899551    6.08614885895027
C         5.30733845407660    3.87835631413981    7.92763417129461
C         3.75264524548638    3.84228519465864    7.82484133368459
C         3.20030362376242    3.66348343897950    6.41653175754937
H         2.12190792169972    3.80686326062841    6.42976919586989
H         3.40317125891056    2.65380283098274    6.06663215906272
H         3.62425232768455    4.36202214734366    5.70503995828056
C         3.11499810402025    2.77988694932970    8.72044167470481
H         2.04156008686226    2.95078488386287    8.79193080268757
H         3.53264986763695    2.79191917965693    9.72505326187351
H         3.27160447010454    1.78835369739761    8.30226375670981
C         6.09737533779278    2.65835219030429    7.51122344315250
H         5.79712683990262    1.79291257759593    8.09637151676011
H         7.15655092669291    2.83285746442567    7.68193786106692
H         5.94086741812825    2.44546602352000    6.45671153555711
Br        2.07308108367460    8.36133960377862    9.34144526701320
Br        3.17615284288905    7.85597956342160   13.50376831191083

