58
CSD_code = ACIHAV | q = 0 | S = 0 | Stoichiometry = C19H36BrOsP | MND = 7
Os       11.25613879526721    2.01490095748358    1.89562368553373
Br       12.69876517284924    0.41089785318102    2.92912193665551
P         9.82865992529374    2.21018937860704    3.67249634093835
C        11.56912592547243    1.71709120510169   -0.32816028275220
C        10.34038536731524    2.44204421694013   -0.12298716756694
C        10.67384061338120    3.69565841442622    0.49157685746302
C        12.09299945877045    3.71145950765573    0.70653230662320
C        12.63781398535756    2.49000373464586    0.17517376919391
C        11.69559249569453    0.42023426413968   -1.06284723573020
C         9.03721532089018    2.09843154268472   -0.77996796490121
C         9.78767176255546    4.90374091439441    0.56424459650920
C        12.90793364723582    4.89788437415618    1.12413919507908
C        14.09348685117338    2.17374698687176    0.03498352886630
C         8.14904870690485    2.96860705805381    3.30171639647855
C         7.31139016560675    1.97998002453016    2.49507352432429
C         7.33217819093384    3.54805387597234    4.45348557830878
C        10.43443631343344    3.32074364093166    5.05832477031482
C        11.70024445983613    2.76202439265704    5.70113115796274
C        10.73331699085943    4.69059985751195    4.45532357547362
C         9.54988863210084    0.58553245588818    4.58648556890891
C         8.57579295418236    0.58363510778328    5.75826877857124
C         9.22257601209930   -0.53819051811264    3.60128290609396
H        10.79939606216828   -0.18810627258399   -0.94924883541733
H        11.84087316950710    0.61136285683103   -2.12820154871044
H        12.54951764688748   -0.15196574121431   -0.70395294837429
H         9.09021582385531    2.34143596502566   -1.84368889510025
H         8.81406414092427    1.03560787364481   -0.69410939843456
H         8.21375314340111    2.65941349794821   -0.34549566547207
H         8.73677183238308    4.62688886864351    0.53210643936114
H         9.99104030354935    5.54999243577310   -0.29247952894170
H         9.96839172540390    5.48141653310057    1.46896391032104
H        12.28990397775257    5.65239246733175    1.60559386653181
H        13.70576976445033    4.61253443229856    1.80997628830746
H        13.37280595639612    5.34938324456234    0.24516255381443
H        14.68712874926069    2.73544769759836    0.75320664718926
H        14.28381473070516    1.11337439755829    0.19503594005961
H        14.43616710961059    2.43165145988020   -0.96932657169834
H         8.41649557629960    3.79565923647058    2.63454581673780
H         7.94054099024791    1.44934738980659    1.78301738608492
H         6.52649094121108    2.50016108133708    1.94705237407997
H         6.83417017800356    1.25535813268785    3.14950826307498
H         6.39137532526873    3.93011927503786    4.05656990606603
H         7.84378336821947    4.37467613294862    4.93845319375004
H         7.09720619231178    2.79828094652472    5.20170383109677
H         9.65307144587569    3.41182853738236    5.81884851468234
H        11.50079425798881    1.85835417923155    6.27088476361528
H        12.12818274402366    3.49857909388681    6.37973682049128
H        12.44330832528727    2.53337931884543    4.93736549319711
H        11.47809092950830    4.57735567317123    3.66771191379078
H        11.13039003382507    5.36502105732055    5.21258367151075
H         9.84256687649274    5.14374412790987    4.02655508019281
H        10.55637073974627    0.37680869015453    4.97547189800822
H         8.77767491701119    1.39733326287032    6.45037646986682
H         7.54679915416816    0.65572055410888    5.41484175279679
H         8.67572598672666   -0.35374748937350    6.30462184390272
H         9.46521765208260   -1.50295772332339    4.04306228799944
H         8.17061275962085   -0.54375988035614    3.33088997529729
H         9.81361572261341   -0.42666055854075    2.68743466797216

