50
CSD_code = ACIHUP | q = 0 | S = 0 | Stoichiometry = C15H27MoO4P3 | MND = 6
Mo        8.77892482922852    3.14621469638506   -0.16489690498118
P         7.17285754768242    3.73547300465049   -1.81537595395008
P        10.41791896407881    4.50150152611039   -1.17676331301777
H        11.16974877929024    5.33510803094152   -0.34107950516324
P         9.43681095531590    1.28749033074168   -1.45172074718567
H         9.65369726851072    0.06029298975011   -0.81181030692678
O        10.90383595142358    2.41887219785648    1.94740266264703
O         7.85247859178086    5.48500580650732    1.61783532340486
O         6.94587058731301    1.22099657934245    1.38686734715289
O         4.72948641200273    2.45198358891774   -0.52749206504763
C        10.11855977551503    2.68631834977359    1.15811670132898
C         8.20384036942596    4.63105515161104    0.93804800301933
C         7.56369363267625    1.95570598387629    0.76376266330749
C         7.65732089903357    5.03390078599815   -3.03913767398417
H         8.19682955480423    4.55504901729264   -3.86264803645272
H         6.73381673986672    5.45854489904912   -3.45011726540359
C         8.52317697388351    6.13460671927436   -2.42809520161853
H         8.37406728816036    7.06599464456170   -2.98294552432296
H         8.21631718707497    6.31179091667017   -1.38991014738723
C        10.00614605707016    5.77047156231319   -2.45521044841847
H        10.61866247163113    6.65838021675793   -2.26674962505366
H        10.27202539403608    5.38070546337240   -3.44435850132537
C        11.86364029950531    3.67190045842373   -1.94574261108398
H        12.49225178602821    4.43469170330200   -2.42028623933241
H        12.43860107133881    3.20693381874207   -1.13769558714285
C        11.43556395063679    2.61826437756399   -2.96901063011842
H        12.25459113110935    2.44881296840150   -3.67562086545108
H        10.58313963423833    2.99881719897097   -3.54355900448288
C        11.06016107226492    1.28357063073060   -2.32528596654112
H        11.81035489992540    1.02236664816942   -1.56966565212804
H        11.04930948575638    0.48913370545522   -3.08078714701256
C         8.25092091551855    0.59681728376279   -2.67383321132246
H         8.75389846288254   -0.19773926436984   -3.23813505604038
H         7.44658525766872    0.14209636571748   -2.08314520789254
C         7.66277431527266    1.63614721323903   -3.62791638591288
H         7.25427051253818    1.11953814415175   -4.50283845696973
H         8.46291304001292    2.29302840405495   -3.98594077624016
C         6.55007621289573    2.46706457402767   -2.99099347080879
H         5.86770809462830    1.82189913136552   -2.43361534228831
H         5.97742556433646    2.98778138401802   -3.76874005626516
C         5.60605586910732    4.52376661740518   -1.25681760773063
H         5.85284407316379    5.53944699745725   -0.93137431051712
H         4.91500513001378    4.57250063694581   -2.10538332927549
C         4.95345447483720    3.77748946567013   -0.10866128682303
H         5.60661201832864    3.79236187373371    0.77803120714568
H         3.99634687149049    4.25453604137075    0.16271046294341
C         4.00759372936844    1.69000719518764    0.40797675453222
H         3.91393544609751    0.68915529315436   -0.00898989878109
H         3.00849003293272    2.11482403957688    0.56999396241286
H         4.52919041830499    1.63622463201693    1.36880423251457

