151
CSD_code = ACIPAG | q = 1 | S = 0 | Stoichiometry = C54H92AgN4(1+) | MND = 2
Ag       25.54847131710840    3.09880051541402    9.21270050070775
N        26.01118476779918    6.00559057768199   10.35548026063798
N        25.75068600804362    4.58864320284759   11.97423684524853
C        25.74570083793841    4.71293520150457   10.63189453400564
C        26.17963390412914    6.72084509413970   11.52044173823534
C        26.46797827837006    8.05587810559800   11.77009482874206
H        26.59385272636685    8.76815672025159   10.97046738453167
C        26.59071251064020    8.43488250341762   13.09129056507817
H        26.81467423450844    9.46319624839747   13.32683133842650
C        26.43697372525356    7.51924691036954   14.13389564161524
H        26.54831363449948    7.86114659199917   15.15065890806239
C        26.14917818188765    6.19087473065966   13.89552645485621
H        26.04078286989233    5.48855516690702   14.70626037080326
C        26.01594907298252    5.80139109899830   12.56949928671451
C        26.02208547530557    6.59087911959829    9.03977674676793
H        26.24474230092338    5.79932242651354    8.31343606024506
H        26.81975862749724    7.33644893014727    8.99944856106983
C        24.67108388005992    7.23710264231006    8.71338114342486
H        24.36580569882425    7.85482229680490    9.56112874932437
H        24.79204341195972    7.89357611330158    7.85118882544925
C        23.58816381413030    6.20087977870155    8.42050478940996
H        23.63451161631818    5.39664308465591    9.16697330165655
H        23.77119918176267    5.75498934771962    7.43905854208345
C        22.18899438629760    6.80965088213258    8.44823036880346
H        22.01340265030925    7.25913372227505    9.42851300137877
H        22.12637480435383    7.60692519206627    7.70492855992567
C        21.10220030588075    5.77384837886734    8.17320362931429
H        21.19141517397312    4.95600646276181    8.89388763623150
H        21.24463364217274    5.35460753299645    7.17461128387989
C        19.70561313989453    6.38301048567268    8.27073009021846
H        19.56180376523348    6.79525137880638    9.27210559789808
H        19.62303389152977    7.20860643435781    7.56052411323058
C        18.60783313900537    5.36230901705858    7.98581800000134
H        18.68484943903939    4.54271909301395    8.70488009052892
H        18.75403109072768    4.94448085586810    6.98724490104254
C        17.21483339252638    5.98033021178581    8.07277369156201
H        17.06393064082459    6.39313999178817    9.07251982791052
H        17.14087924982991    6.80458136997905    7.35972233774338
C        16.11694229025155    4.96198371170147    7.77935726300775
H        16.27693951269287    4.53663068599982    6.78656790419533
H        16.18395919275035    4.14690675533654    8.50417155431064
C        14.72742815167127    5.58165312202798    7.84447586837133
H        13.96593239454437    4.83381488548969    7.63626468471934
H        14.63188231854088    6.38116979618285    7.11321306634941
H        14.53924087124757    5.99679218400848    8.83180188818595
C        25.42003164424124    3.38036473835536   12.68212540507552
H        26.16683052582147    3.20492952117022   13.46175828897233
H        25.46436397681792    2.55565635192415   11.95741096924945
C        24.02095104936908    3.44879816874347   13.30020772231908
H        23.81161961894308    2.48668921668910   13.77045099415783
H        24.00572738497047    4.21078777563598   14.08141882153009
C        22.93128868997596    3.76821494846960   12.27877220375988
H        22.98047682404304    3.05656497498226   11.44599931479009
H        23.09267594712686    4.76925587662020   11.87130027870693
C        21.55061226467574    3.71839394615761   12.92900654747111
H        21.35266658523302    2.70346780414899   13.28100099566038
H        21.55275246470671    4.37249149717060   13.80412496298958
C        20.42546621263964    4.15493499606469   11.99410326059070
H        20.36430461544454    3.46938018869701   11.14579132049056
H        20.64231440962931    5.15195151323424   11.60329568896739
C        19.08708160910817    4.18199221140173   12.72940213464497
H        18.87982386062331    3.18816369593892   13.13345681578247
H        19.15953067074889    4.86907293357979   13.57577417229258
C        17.92625249034180    4.61073759921645   11.83681655996089
H        17.83227825740248    3.91052030660690   11.00425315547951
H        18.13417674277757    5.59853379795282   11.41938959657200
C        16.61018700437567    4.65331299639361   12.60952136157812
H        16.42203893777143    3.67248112574898   13.05280324013078
H        16.69439664476690    5.37125767810067   13.42873860195373
C        15.42765612780207    5.03572099484976   11.72392591440348
H        15.35942135603019    4.33275468237708   10.89160222268116
H        15.59702213810647    6.03134658420151   11.30714556456620
C        14.11492454724170    5.02626564076382   12.49635671352177
H        13.28626285320174    5.29823661965336   11.84693052422999
H        14.15040864691230    5.73384466738339   13.32174418439120
H        13.92031115580671    4.03635612366614   12.90339697015908
N        26.01118340496154    0.19201054935921    8.06992050037453
N        25.75068467939582    1.60895837264108    6.45116417119267
C        25.74569851015079    1.48466582142091    7.79350648268141
C        26.17963383794083   -0.52324334518275    6.90495876608764
C        26.46797942616501   -1.85827610187451    6.65530539648945
H        26.59385368223748   -2.57055489582938    7.45493262573802
C        26.59071491795154   -2.23727995626151    5.33410955157587
H        26.81467747308981   -3.26559347577350    5.09856850031791
C        26.43697618473713   -1.32164417217992    4.29150477169894
H        26.54831700157589   -1.66354347702210    3.27474145370341
C        26.14917946932096    0.00672776013103    4.52987425149879
H        26.04078420696781    0.70904746629814    3.71914053591432
C        26.01594916097237    0.39621084261480    5.85590154785128
C        26.02208340379478   -0.39327862374285    9.38562370360239
H        26.24473940861996    0.39827780539026   10.11196492713776
H        26.81975685933321   -1.13884810683206    9.42595202060415
C        24.67108183840340   -1.03950285054271    9.71201808774039
H        24.36580428366766   -1.65722192903334    8.86426984081263
H        24.79204108319128   -1.69597696880304   10.57420995759625
C        23.58816144560313   -0.00328043382290   10.00489472126755
H        23.63450877932775    0.80095629517314    9.25842629075734
H        23.77119685263239    0.44260996403785   10.98634098588940
C        22.18899217827172   -0.61205192391043    9.97716939801619
H        22.01340050202892   -1.06153517094751    8.99688694104517
H        22.12637278585051   -1.40932595046830   10.72047152305788
C        21.10219800612251    0.42375057586579   10.25219576329247
H        21.19141280702735    1.24159220025664    9.53151141875384
H        21.24463138031518    0.84299185706465   11.25078792415558
C        19.70561081223729   -0.18541153455470   10.15466960621647
H        19.56180134759294   -0.59765281467601    9.15329427012577
H        19.62303154905210   -1.01100719178606   10.86487591705231
C        18.60783097311808    0.83529018884986   10.43958138073641
H        18.68484737051186    1.65487983337668    9.72051898335380
H        18.75402907833800    1.25311870629368   11.43815431138231
C        17.21483107518244    0.21726927769124   10.35262603956660
H        17.06392801248610   -0.19554055823820    9.35287997333427
H        17.14087688608900   -0.60698179417779   11.06567748590161
C        16.11694032068858    1.23561611158207   10.64604262040806
H        16.27693785771139    1.66096913271273   11.63883193259628
H        16.18395733641389    2.05069302228855    9.92122829129670
C        14.72742597066628    0.61594714938648   10.58092430436315
H        13.96593051240382    1.36378563148467   10.78913570632831
H        14.63188003994310   -0.18356953026411   11.31218708818353
H        14.53923831983857    0.20080820386918    9.59359830632406
C        25.42002943408249    2.81723661880986    5.74327575762628
H        26.16682848200410    2.99267271544751    4.96364321762721
H        25.46436063582923    3.64194490301974    6.46799036778926
C        24.02094915451399    2.74880187463746    5.12519279932291
H        23.81161720762872    3.71091044483639    4.65494896283710
H        24.00572644988027    1.98681188940041    4.34398205285976
C        22.93128661491396    2.42938477051489    6.14662800679776
H        22.98047403839854    3.14103502170203    6.97940067165235
H        23.09267432841564    1.42834407439617    6.55410030462725
C        21.55061042835847    2.47920480779376    5.49639315515050
H        21.35266441075443    3.49413067911712    5.14439811428976
H        21.55275115697182    1.82510677746895    4.62127509987758
C        20.42546430950145    2.04266381676877    6.43129642845091
H        20.36430254934626    2.72821889226827    7.27960814211812
H        20.64231263597128    1.04564745584233    6.82210432802742
C        19.08707984556093    2.01560622962785    5.69599740624122
H        18.87982216364284    3.00943453896928    5.29194217007512
H        19.15952896524939    1.32852504997581    4.84962574389217
C        17.92625060708972    1.58686140812673    6.58858312098089
H        17.83227663649477    2.28707896314847    7.42114633418897
H        18.13417457096806    0.59906525692057    7.00601033893120
C        16.61018508579119    1.54428624427513    5.81587837387791
H        16.42203726516754    2.52511808069520    5.37259631019434
H        16.69439447707266    0.82634137370055    4.99666127268767
C        15.42765417248511    1.16187876762923    6.70147398909413
H        15.35941970564193    1.86484524488506    7.53379757013806
H        15.59701991123580    0.16625319784714    7.11825449275509
C        14.11492250150043    1.17133437852302    5.92904333867108
H        13.28626081157176    0.89936377917180    6.57846969087758
H        14.15040628714724    0.46375517715529    5.10365600834731
H        13.92030934945929    2.16124387209475    5.52200290996532

