42
CSD_code = ACISOV | q = -1 | S = 0 | Stoichiometry = C13H16N4O7ReS(1-) | MND = 6
Re        3.33525065300376    3.99826376021876    8.87658243652792
N         2.79338922507687    4.60132257097764   11.08714972903195
N         2.97725175038532    3.59772336353441   11.94149780431731
H         5.64042942432642    1.89372054779912    9.63936848489573
N         5.36114241596825    3.96633273613171    9.79611007875574
N         6.03442897344319    2.81763245306642    9.90135838695980
H         3.18035178593931    2.67919557679342   11.54440927625257
C         3.46083210776449    5.71263929860054    8.04100477652119
O         3.51544097197763    6.77964044564065    7.55600179619437
C         4.05527564267994    2.89834137996128    7.27642760311223
O         4.51574842884442    3.18057794367987    6.20307282492027
C         1.53809338284662    3.85833600212144    8.22084086437012
O         0.44867905733693    3.72570523404283    7.84575001216943
C         2.72282363925317    3.96696325734349   13.20914315249552
C         2.37038049455543    5.30150198773888   13.15556850513479
H         2.10414690049881    5.93392116717884   13.97899044839486
C         2.42355925102656    5.65510120011203   11.79577691788177
C         2.85444733942455    3.02457153772984   14.35148553364828
H         2.39885557580213    3.44999106991169   15.24229714428065
H         3.90532248645143    2.82062573093658   14.56261160770566
H         2.36751598817660    2.07813791115245   14.12007857098715
C         2.11299925229401    6.95920417643100   11.15544110952902
H         2.13903483431327    6.82582032058468   10.07516465204131
H         2.84105984534425    7.71665219049369   11.44303100429404
H         1.12507317434939    7.30296231782487   11.45728345917252
C         7.21560193425319    2.98574475479193   10.51563454592675
C         7.31345501075311    4.33028496773056   10.81652523753628
H         8.12443429279936    4.83432386391206   11.30390890309346
C         6.12483774266604    4.90637135120899   10.34472805555232
C         8.13139699701168    1.83768465032486   10.74140284717546
H         7.59174200333027    0.91093088293490   10.55796136204353
H         8.51330274411800    1.84184368317074   11.76178060556768
H         8.98146049597901    1.88755845064093   10.06014256164561
C         5.73229700112392    6.33759194027969   10.44427084533729
H         5.42052657958663    6.57267219980065   11.46302725268340
H         4.90635240020779    6.53908783419258    9.76788316583439
H         6.57757845575741    6.97457370801279   10.18952074071346
S         3.74319168745830    0.90534407116307    9.01168151381895
O         3.28343116094471    1.99464795857131    9.87827805759686
O         5.02791129146473    0.41296167903427    9.50803157928656
O         4.06541504558849    1.51749955502838    7.57598921789554
O         2.76643255587153   -0.12740573080193    8.84858732869595

