49
CSD_code = ACISUC | q = 1 | S = 0 | Stoichiometry = C25H16CoN4O3(1+) | MND = 6
Co        6.49240024819071    3.07374992649899    7.60992633554439
C         7.97404348635882    5.63013117484743    7.08702242529189
C         9.19393631505194    2.17396156827325    6.99241875841219
C         8.28166891424781    6.94899146265636    7.42909441498810
C        10.09878439271294    1.49240347563041    6.17284604751799
C         7.52402446137416    7.61120457408285    8.36788829532197
C         9.72777986566893    1.10933174745236    4.90450548324947
C         6.44543173552427    6.93563137845633    8.96178780753365
C         8.43437477017999    1.42299787633558    4.45219943580792
C         6.21848520343322    5.60734970149002    8.55109368928078
C         7.59449012399527    2.11120431054648    5.34780112744302
C         5.15831934742471    4.85675237540307    9.12890708639306
C         6.26215792616003    2.44326325628119    4.97895848358128
C         4.07443633001053    2.83555863737676    9.21489514071932
C         4.28251896817357    3.40025319199122    5.60495250232296
C         3.20045393906389    3.31798530369483   10.19379318014175
C         3.70803199492001    3.09319240153156    4.36922153079664
C         3.32047408375544    4.61065935448849   10.64970944869336
C         4.44505765271953    2.43263933606721    3.41293001952985
C         4.32745456843889    5.42957937253993   10.11013575989108
C         5.77450164991229    2.08738061391392    3.70606764767033
C         4.57320196543072    6.77966095960981   10.49931898424582
C         6.64580261518636    1.39666157191137    2.81262065118766
C         5.58534417725091    7.49825155726485    9.95100790396503
C         7.91599834307147    1.07830154731445    3.16884597532753
N         6.96873660239823    4.96470915561256    7.62904521252775
N         7.97311651954981    2.47702392619748    6.59010747790132
C         6.92610308553083    1.38976164956725    9.09326935410439
N         5.02747568619934    3.58654430177000    8.69351921550766
N         5.52877636120880    3.08636081005383    5.91413803021110
O         6.19166791870195    1.31519964907279    7.99199616339676
O         7.35420617875865    2.64268093895848    9.15842693145747
O         7.15639885061058    0.50847245084743    9.86671288661001
H         8.56858070439146    5.11159620078253    6.34778991479076
H         9.46102539627197    2.46059896752256    8.00066614299264
H         9.11883732374499    7.43326190251643    6.95274174051016
H        11.07955221285984    1.26275881691653    6.55689639294768
H         7.74858327889546    8.62766515479163    8.65231384805274
H        10.40679270986786    0.56847571705493    4.26308511657311
H         4.00918455838907    1.81488145194721    8.86222954289476
H         3.70214485019463    3.91767019584951    6.35598813384757
H         2.44565322119410    2.65794085239102   10.58993264949044
H         2.68434995105900    3.37499201934990    4.18150894893405
H         2.66462738881669    4.99621671712558   11.41522254338839
H         4.01846130615256    2.17800870918371    2.45494611157812
H         3.93471491767133    7.21527162052547   11.25249913591960
H         6.26285132850261    1.12389149833110    1.84126447563202
H         5.76682792664554    8.51602508499178   10.26063158011676
H         8.56175864413221    0.54739553298306    2.48632031575722

