49
CSD_code = ACITEN | q = 1 | S = 0 | Stoichiometry = C25H16CoN4O3(1+) | MND = 6
Co       -0.30276567489343   -1.81162570291853    3.76856851142261
C        -1.52196604279835    0.10162982247797    4.04639337075407
C         0.56981811620128   -0.70318128163269    6.31678195871981
H         0.88526709288749    0.17223228498892    5.76498033473039
C        -1.99794004239364   -1.62775202632107    1.40680335778640
H        -2.84430757655815   -1.66517807041073    2.07957966065042
C         0.59952256124502   -0.72422787786915    7.71448649287004
H         0.95344982045956    0.14702411528956    8.24173297157934
C        -2.17227235906998   -1.38351557073993    0.04118420091883
H        -3.17073024035898   -1.24109360468703   -0.33979297260675
C         0.16541613860698   -1.83712947441995    8.39734661209438
H         0.16577466241284   -1.86599897109042    9.47630016376886
C        -1.07962712615172   -1.31085648103560   -0.79197633587064
H        -1.19320866917202   -1.10779618918527   -1.84595074996322
C        -0.29645623338079   -2.94483872958232    7.66552900645784
C         0.20292337938505   -1.49311523002618   -0.24631509515536
C        -0.28909291592527   -2.83079095854175    6.26262863749312
C         0.27892302259561   -1.73345490631384    1.13849525368609
C        -0.76537021845537   -3.89451520794142    5.44836091232600
C         1.53913753441984   -1.90054293731576    1.77510228608615
C        -1.18291648770396   -4.64756465742887    3.33053155071478
H        -1.15269997973919   -4.47255834972286    2.26406801479706
C         2.66485895570611   -2.25293082845624    3.73343666489374
H         2.63322832762306   -2.42129529282902    4.80091187593302
C        -1.67704251343200   -5.85689798974413    3.82513693345030
H        -2.02966738805748   -6.60310832106350    3.13138427961210
C         3.89396012701242   -2.20096895978666    3.07171875132078
H         4.80184953947081   -2.32487541492183    3.63991780089354
C        -1.71612652530813   -6.08067390284980    5.18249758041889
H        -2.10256523432377   -7.00384022307049    5.58642892457006
C         3.93551086907477   -1.98675362538631    1.71289196636359
H         4.87435754201813   -1.93393747194119    1.18327828994518
C        -1.24576258991675   -5.07690323239038    6.04493200998785
C         2.72508493697975   -1.83024541979708    1.01793976190509
C        -1.23658249270558   -5.17314044217403    7.46812665267826
H        -1.60927050212051   -6.08100276729811    7.91703863052580
C         2.62337908115423   -1.59435736377283   -0.38521933942960
H         3.53678223707859   -1.53934244801487   -0.95732345775512
C        -0.78400544509991   -4.15481681307530    8.24264263837747
H        -0.79047768324623   -4.23757854045269    9.31861187978905
C         1.41903842847415   -1.43253415561029   -0.98942979164903
H         1.35690349310985   -1.24617125310629   -2.05056248292583
N         0.13781509812778   -1.73070460822698    5.60848053344451
N        -0.80293733945698   -1.80010980472118    1.94192280352552
N        -0.73576414875343   -3.68162341888668    4.11426800383900
N         1.50833496594128   -2.10681523771047    3.11021946500583
O        -0.25911892630874    0.00844472701219    3.65391151334764
O        -1.93235116489470   -1.14336202378646    4.24375122524325
O        -2.15911040975834    1.10199483648981    4.19234874342844

