77
CSD_code = ACIVOA | q = 0 | S = 0 | Stoichiometry = C30H40Cl2N4Pd | MND = 4
Pd        0.05142024547228   12.98970496957354   10.18985836545119
Cl        1.42219764819891   12.97869689653179   11.98327686699917
Cl       -1.38980521634975   13.00191205053711    8.40106117895562
N         2.36439015057356   11.91155641907937    8.70355066651730
N        -1.60467256621584   12.99041584565458   11.44331350927541
N        -2.83262158693453   12.99271892172715   10.92448519765285
H        -2.90862104425889   12.99589599362560    9.89971835312887
C         1.65111952323625   12.98840329352537    9.07651112389366
C         3.52617984457514   12.31128564820503    8.09554776484022
H         4.24792336170323   11.61343120278876    7.72427535425923
C         1.89885684361838   10.56968004798506    8.86082582447841
C         2.32628109306460    9.81623374023812    9.95867214546037
C         1.84985431587784    8.51635164295462   10.07810025173349
H         2.16290020337776    7.90927345771974   10.91201865848810
C         0.98425863315932    7.98785578294785    9.14151799609882
H         0.61954137407943    6.97759470690514    9.25544980763894
C         0.59685390522464    8.73805597153668    8.04764052780041
H        -0.06028397316415    8.30155058870563    7.31349614838936
C         1.04736763712904   10.04035580619587    7.88094328855327
C         3.33381664694373   10.35573736710524   10.94573453130804
H         3.34872187880169   11.44694701296872   10.87983289891185
C         2.98025760131203    9.99923209578476   12.38888300441275
H         1.95436824697619   10.28682178418900   12.59967379951004
H         3.62835645890477   10.54961220490203   13.06580204476216
H         3.10359591213649    8.93717272595523   12.58507767028567
C         4.72396765879497    9.81932135529325   10.58926967455613
H         4.73708659618596    8.73277069836707   10.64692055757694
H         5.46287654982289   10.21194438767883   11.28359654132845
H         5.01061606257892   10.10991931897754    9.58076012951809
C         0.70784586221513   10.82285610149482    6.63252109828304
H         0.75572752476342   11.89133359509925    6.86249657237127
C         1.74912910383022   10.51181121525707    5.55173134798435
H         2.75051379470964   10.78228116096667    5.87947212020979
H         1.52274248305816   11.06819732765507    4.64496067749852
H         1.74022211252879    9.44917952115817    5.31764539645374
C        -0.69802146579783   10.54017884089825    6.10673965153267
H        -0.77714441293414    9.53971213615666    5.68873875250375
H        -0.93950394764406   11.25344516264782    5.32190199284101
H        -1.42733991553089   10.65762278388058    6.90314802132496
C        -1.74419723154527   12.98796795359600   12.76140680168134
H        -0.88979382845065   12.98585966070037   13.41239700566912
C        -3.76579531575721   12.99143258056445   11.88515523342850
H        -4.81260712151315   12.99277067583166   11.65846068519701
C        -3.10161473346531   12.98836270561137   13.09280593495638
H        -3.52806455708629   12.98669147158138   14.07415609548945
N         2.36355346712948   14.06488168851168    8.70089728362280
C         3.52580333757213   13.66464382024137    8.09410596006672
H         4.24729597362284   14.36214689215024    7.72164063120056
C         1.89748925236488   15.40681136246374    8.85626650972763
C         2.31837481614493   16.15860194069304    9.95778161811575
C         1.84182818063186   17.45854418362418   10.07603274706032
H         2.15004029177136   18.06441049647601   10.91263837316164
C         0.98221302691018   17.98856940858198    9.13480619092913
H         0.61713343524670   18.99880586504417    9.24785129114207
C         0.60121247006814   17.23993887373551    8.03761706266889
H        -0.05139666637928   17.67760308336654    7.30013415202959
C         1.05222083692118   15.93768031969570    7.87191782422302
C         3.32019601653524   15.61732770909755   10.94968275498334
H         3.33501257068884   14.52616059563800   10.88269529920552
C         2.95892575742025   15.97218671764407   12.39127644546998
H         1.93152473548743   15.68531506412546   12.59585505730703
H         3.60265869528826   15.42018814856474   13.07100667992569
H         3.08212357732165   17.03386926440193   12.58963560038403
C         4.71248778615250   16.15325885548515   10.60091655606678
H         4.72594113890769   17.23976407496351   10.65938070926692
H         5.44757515840340   15.75968482767232   11.29873699376684
H         5.00410010556683   15.86313868878868    9.59368067145244
C         0.71931243897265   15.15675896771015    6.62075306317812
H         0.76775842991045   14.08797036997753    6.84920800429095
C         1.76469925217622   15.47096988588909    5.54485075513941
H         2.76507529586778   15.20150356770910    5.87640310364723
H         1.54297960919298   14.91560682718486    4.63628201408397
H         1.75519372748652   16.53394333706808    5.31235295085803
C        -0.68459666194055   15.43866311823478    6.08924100701886
H        -0.76303650202973   16.43985069206402    5.67283554945484
H        -0.92163760345425   14.72667769997831    5.30184222818304
H        -1.41736430616858   15.31886882245731    6.88212364315157

