54
CSD_code = ACIZAQ | q = 0 | S = 0 | Stoichiometry = C18H30ClIrN2OS | MND = 6
Ir        3.24955736793544    5.07405846310602    3.33038679724306
N         3.19979230693701    3.55809216447643    1.34454222819589
N         2.44096564372976    3.44081118461868    4.87707245554189
O         3.06645694878855    5.09673966750317   -1.11652660524753
S         1.02325342048345    5.94002629254656    2.92903986967459
Cl        5.37018034941224    4.24622936413239    3.67728161925261
C         1.99265275897577    3.66216043447912    0.51812088947291
H         1.09995427451521    3.61155797572250    1.14442874364674
H         1.96320506910991    2.82933561125579   -0.20491777311117
C         1.95739982622405    4.97448475603128   -0.26560638308577
H         1.07025031503489    5.00263875609770   -0.90171989503553
H         1.92984411022518    5.81942293586486    0.43753020368695
C         4.25101331118885    5.06156020114524   -0.35091372492962
H         4.28463982667872    5.92541635406681    0.32485071257576
H         5.07879359312167    5.12148313856936   -1.05916189474981
C         4.35792515852377    3.77290316128532    0.45751299682055
H         4.43377866334249    2.93083608176502   -0.24934070511084
H         5.26063274818806    3.80915659161917    1.06834860866418
C         3.33355789395196    2.19444108176353    1.86560874679107
H         3.24849281164278    1.48022829064451    1.02700668788484
H         4.34239180002455    2.10411719226739    2.27534500967526
C         2.32603106418187    1.79692858112527    2.94376032762564
H         1.35776765151595    2.25299276986309    2.73678142376076
H         2.18659366988033    0.71556691390783    2.87734490639429
C         2.79070068548756    2.10822979250557    4.36691169392706
H         2.37857310470967    1.34734454184718    5.05229000250981
H         3.87917074578518    2.02660456159066    4.39821784913231
C         3.18699101915038    3.61114017731226    6.12701967017228
H         2.96678861942998    2.79285496703371    6.82668196592777
H         2.92891326586917    4.55314745293281    6.60268466247719
H         4.25262812637728    3.61679984546885    5.91213932210857
C         1.00963078670545    3.45966918783998    5.19771784379755
H         0.83587173632622    2.81748958189389    6.07749450963461
H         0.45206741617460    3.01634684148048    4.36820273614887
C         0.43077332532588    4.85021195913792    5.47087077305719
H        -0.35566773973494    4.76354309022776    6.22526453112976
H         1.19749992078519    5.51615005547392    5.86745078199347
C        -0.18251748346752    5.47316101282504    4.22941076243847
H        -0.72393404363496    6.38552139702512    4.47741218780239
H        -0.87583356587793    4.78012509951003    3.74908875523316
C         1.43485932052814    7.62270766580117    3.50969253351522
H         1.92234119410665    8.09236370984553    2.65223088696983
H         0.50554262209980    8.15116109465204    3.72679616190505
C         2.37357945798500    7.56805671354050    4.67604599078595
C         2.28121880410178    8.52758094689189    5.67359235160748
H         1.50549117963795    9.28013946377261    5.61988210384832
C         3.18448956836527    8.53502959599552    6.72103744962687
H         3.11042647548643    9.28348095072092    7.49606821265769
C         4.19108466696352    7.58687067183906    6.74916961209054
H         4.92176197501007    7.59814983410488    7.54507581779137
C         4.27121985498604    6.61777739922305    5.76201094709448
H         5.07873669129374    5.90398229798130    5.80556070578956
C         3.34896975847736    6.55753431130354    4.71994818940513
H         3.84289192793740    6.12073781636609    2.41345574378545

