35
CSD_code = ACMYCR | q = 0 | S = 0 | Stoichiometry = C13H19O2Rh | MND = 6
C         4.97646755937147   -0.46678395830688    1.25192067162444
C         4.50390693950148   -1.34264979809641    0.10959092112335
C         5.93087977678947   -0.45911799135143    3.53152716540933
C         6.46276320906525   -1.32531405681217    4.65496372314770
C         5.47624313215639   -1.11351390228479    2.38452759833038
C         5.10667703062288    3.69488636641049    0.89095293079754
C         5.50228505976773    3.67122373907236    3.99183277508174
C         3.89717568008053    3.38958109547546    1.48608782921055
C         6.73041855148775    3.47098794510673    3.39028950005386
C         2.72846382581242    4.03356409770297    2.11504676392347
C         7.84603594124758    4.21558775729441    2.77603749650189
C         2.55452549672927    2.88596504386198    1.13776918524668
C         8.10775364498909    3.06107273321491    3.72525034354081
H         3.70855368159351   -2.00177405195326    0.44947263250739
H         4.13531767074406   -0.71891929309497   -0.70018924843767
H         5.32487729906157   -1.95704388861927   -0.25250775448540
H         6.80253007822382   -0.69469743544339    5.47237826894339
H         5.67987552590516   -1.99007041065174    5.01353538024941
H         7.29051328140923   -1.93399307138919    4.29810660746380
H         5.51347338168018   -2.19186166337412    2.37252808927638
H         5.58344155965908    4.64599908897658    1.10287615781551
H         5.35140063596224    3.25160406013729   -0.06960522901581
H         4.95625144807427    4.58932726006608    3.80284465173713
H         5.29213465922665    3.18795247335321    4.94123503657349
H         2.49889749820926    3.83195469265929    3.15281516051235
H         2.46587587886210    5.03451129950513    1.79807617446668
H         8.08727351352853    4.05654320509489    1.73354298974897
H         8.03397265665117    5.22544760735124    3.11684218758669
H         2.21696128512812    1.94168673129327    1.54317031400563
H         2.17428780968902    3.09215251928634    0.14617376981215
H         8.51379803102865    2.15466967612963    3.29682423916088
H         8.47443007986150    3.27120904556719    4.72113512099596
O         4.88271022429883    0.77845058012941    1.07709978051358
O         5.93814596561848    0.78546631525488    3.73457431198065
Rh        5.35768198796354    2.23599618843363    2.42367445459769

