29
CSD_code = ACNCFE | q = 0 | S = 0 | Stoichiometry = C16H8FeO4 | MND = 6
C         1.37585140814116    3.48236115230917    0.75856487303374
C        -0.54679243979797    4.09307446270208   -0.43358713489782
C         0.24390567489133    3.25564401081060   -1.25031806506135
C        -0.09269218077915    2.87242073440050   -2.54841811288237
C         1.03722810373659    1.14618379506908    2.62021011493943
C        -1.58813984047435    2.78241341536601    2.79939937331985
C        -0.68580199801477    1.50164377796444    0.91062592357076
C         0.67734681261121    3.40148796697607    3.54571896709760
C         0.17399082927599    4.23732742224792    0.84702706121830
C        -1.72169623634715    4.57781401109474   -0.94880090381361
C        -2.08063705529474    4.21373603088113   -2.26202450230334
C        -1.31025690060826    3.39048397665350   -3.04614657459948
C         0.84068244451876    2.03757380538900   -3.20444645449826
C         1.99167931914726    1.65256732224688   -2.56175205500718
C         2.30339563757730    2.04701153711728   -1.24523458676545
C         1.42004099435752    2.85693290190038   -0.57846585091191
Fe        0.04660039764969    2.54369516469401    2.13764813002659
H         2.30876314725068    3.79572947395435    1.21968553381565
H         0.10387301234032    5.18057435779630    1.38231669549319
H        -2.37501609181956    5.21843430039913   -0.37419612474429
H        -3.00664080418482    4.60261476978574   -2.66154900165327
H        -1.62720545846802    3.14039919500474   -4.04824700101989
H         0.64621647782845    1.71013532020229   -4.21546395060777
H         2.69464863329029    1.01659387551360   -3.08108519805327
H         3.21848943282724    1.70151330696059   -0.78623391456606
O         1.63590061708340    0.22999918004636    2.95270179682366
O        -2.63709681680897    2.89147744908538    3.24209922754670
O        -1.18398346152356    0.77991432930411    0.18027725517608
O         1.05224634159423    3.89994295412472    4.50399447932385

