53
CSD_code = ACOBOM | q = 0 | S = 0 | Stoichiometry = C12H30Cl2O6P2Pt | MND = 4
Pt        1.52183065222686    5.91961361350176   10.12571548057217
Cl       -0.74667091686383    6.07063148577298   10.39552204888679
Cl        1.25818673750299    4.25939461961684    8.58064480393783
P         3.77098270690020    5.67127966109083    9.97023622869732
O         4.53254523444658    6.71929026534012    9.05003223199154
C         3.87225049104253    7.27440020526568    7.90952842059288
H         2.83250201262881    6.91806834061352    7.87137424491108
H         4.39753127921940    6.91912545886846    7.01845263151732
C         3.90427751329750    8.79068900959802    7.99700350260867
H         3.40140254426314    9.22010151494554    7.13509745036378
H         4.93247138643344    9.14207822295694    8.02305380793810
H         3.40187241042538    9.11084674177396    8.90629235795100
O         4.49634632563340    4.34374623373255    9.43998672411047
C         4.09320563192258    3.04584544825192    9.88327623093210
H         3.12695389351226    3.11383058230809   10.39517103723809
H         4.84657553316016    2.68625667652326   10.59306124944482
C         3.98575706162507    2.12013775549641    8.68553335090956
H         3.75622731909799    1.11273297795922    9.02045463866967
H         4.92133920229892    2.11287965308593    8.13291227312964
H         3.18927633835153    2.47024751890636    8.03509236026679
P         1.71641118839615    7.63841151259996   11.59942896358116
O         4.41220443279182    5.91638847418261   11.41381882784504
C         5.82942775631794    5.93803217639792   11.60205273803978
H         6.18104487177081    6.96038670520481   11.43669417605420
H         6.30788139240864    5.28606000715457   10.86446569190895
C         6.13424614780084    5.47926355886044   13.01752103170539
H         7.20335111258076    5.53595601982860   13.20354099212279
H         5.80283329937168    4.45377638107378   13.15964164727476
H         5.61283057445816    6.11279340383433   13.72993634263671
O         0.58249071234305    8.77065495228206   11.69755939278106
C        -0.04595507126042    9.30341720768851   10.53113502328406
H         0.40154119974033   10.28208361031115   10.32410136297286
H         0.14098033626325    8.64020974574545    9.67727463985365
C        -1.53758559947806    9.42546824730898   10.78303083128315
H        -2.01605253938092    9.89830411232895    9.93039604675929
H        -1.71910943896448   10.02028015185707   11.67422977963091
H        -1.95777868497468    8.43354316243816   10.92359952189194
O         3.06974900241140    8.46511294924571   11.38293503948104
C         3.41266149044350    9.56208887955066   12.23418782592983
H         2.50188392185456    9.98018700252732   12.67344075471284
H         3.87623235518397   10.31131156865145   11.58420857776341
C         4.37594313439782    9.13328296385342   13.32629481285373
H         4.64195020506878    9.99199431946225   13.93769015321508
H         5.27629302708095    8.71630030877711   12.88435042474564
H         3.90722998362990    8.37713934943721   13.94828440976660
O         1.80213971461234    7.26530966678981   13.14420678750584
C         0.89944457282056    6.29228936066772   13.67731065606077
H         0.91197851015283    6.45778453119758   14.75841215340730
H        -0.10870977855575    6.47391776287498   13.29518688952052
C         1.34684401372413    4.87969082358258   13.34075416514032
H         0.71717205286483    4.16063837625786   13.85731695873606
H         2.38377000471273    4.73475144757729   13.63325429566415
H         1.25799274229053    4.70477527484262   12.26039801120059

