67
CSD_code = ACOBIE | q = 0 | S = 0 | Stoichiometry = C22H40Si4Zr | MND = 12
Zr        1.08810886239958    4.65055274277423    7.25493956515233
Si        0.72536483501077    7.48275142833456   10.09694452231148
Si        1.55379917176508    6.11933251435451    4.52845486756105
Si       -1.50699878045410    3.18529575842023    8.21619796544108
Si        3.81143545429919    1.81631720595171    6.37098776589982
C         1.51257252944218    6.82872793844203    8.52709132430514
C         2.78228840771940    6.19649827125458    8.40628211602551
H         3.44685349862350    5.98342317181033    9.23690928715589
C         3.10004059315678    6.08038941597341    7.04465676985198
H         4.04622403215496    5.73511381342652    6.64428537412413
C         2.05510078445225    6.67454800435230    6.27780672449698
C         1.08357141852097    7.11405994687591    7.20393286331536
H         0.19451684650196    7.67768753571321    6.94702251779926
C         0.30360119171159    2.62544481792739    8.38268006634957
C         1.03368481526328    2.18793347461730    7.25555476254978
H         0.61626549100166    1.62669576919435    6.42796229654938
C         2.41370541347604    2.47116565449453    7.43357937983634
C         2.53019597488339    3.09987718036249    8.70545345155504
H         3.46949802278470    3.31043281751418    9.20574647987382
C         1.25088107631111    3.21652979191867    9.26924869356992
H         1.03264164059130    3.55923725438899   10.27400437809206
C         1.99970337735629    8.48325323362349   11.11406493315898
H         2.40282348390450    9.31009140086420   10.53816314012806
H         2.83557264594479    7.86484520487581   11.42562984334599
H         1.54625843931939    8.89512426163900   12.01011721875216
C        -0.73747697165355    8.62758949037159    9.64537514191466
H        -1.50716751953813    8.10290527660312    9.08730585178299
H        -1.20100010764955    9.03029533388085   10.54023000539590
H        -0.40780416002236    9.46738238545285    9.04235946447905
C         0.06191312033639    6.07016536875381   11.21167726809596
H         0.87422984102738    5.50162711336196   11.65602442327271
H        -0.57067409940581    5.38162868622982   10.65527129385280
H        -0.52900318620505    6.47226698859710   12.02907949792671
C         2.98824369595266    6.33788011139847    3.27580557934742
H         3.88287169518595    5.81064673721856    3.58962605087983
H         2.70472101787118    5.95231190448488    2.30244647141655
H         3.25050609928185    7.38356314514952    3.15349985270302
C         0.08913962772716    7.21637796702306    3.96017020523377
H        -0.78498936136750    7.03615064843840    4.57979969525778
H        -0.18286158632458    6.99794079932347    2.93348301205367
H         0.32984311029944    8.27231710428610    4.01853276237966
C         0.98340259800623    4.38535753263995    5.01473239285545
H        -0.02206701350135    4.14318441027490    4.64249813957432
H         1.66620188762502    3.59996894266208    4.66509255525961
C        -1.13146050378089    4.92049917042178    7.57105337899306
H        -1.68491137048181    5.16901404594707    6.65449743932280
H        -1.34393054648842    5.70268049295131    8.31150836678973
C        -2.47176007436255    2.96883832527219    9.85845166205427
H        -1.97463834607463    3.46262370084722   10.68673124882371
H        -3.46687590855616    3.39215288294182    9.77337154645244
H        -2.57950641101649    1.92108042902570   10.11885641288016
C        -2.34047899679430    2.09417724827933    6.87963419813664
H        -1.89365600914117    2.27630509400390    5.90613093762401
H        -3.39939518754595    2.31493958301753    6.80373447497811
H        -2.24050839951285    1.03740718000450    7.10214464220206
C         5.05860924716706    0.83946832716331    7.44345111512670
H         5.52066394872724    1.47270054489535    8.19436105128463
H         4.57484831671229    0.01821499572702    7.96246908806988
H         5.85388369133713    0.42204308049843    6.83399246888802
C         3.09980372017351    0.64980274598132    5.03417033967013
H         2.41107081958324    1.16470430424453    4.37118341699355
H         2.56648031870641   -0.18252443980427    5.48170081772817
H         3.89467120542216    0.23668493474514    4.42148311248686
C         4.76999559097559    3.22559806750798    5.49107210436744
H         5.44972765437148    2.82049865908037    4.74755398700879
H         5.37077099593819    3.79573659010513    6.19445007842046
H         4.09735833086278    3.91346548189102    4.98277214081224

