71
CSD_code = ACOBEA | q = 0 | S = 0 | Stoichiometry = C32H30N4O4Pd | MND = 4
Pd        3.22274870206203    4.65078747236007    9.78176156195640
N         1.95027427864141    4.33642455262407   11.26469301273941
C         0.79895604940709    5.06889659640529   11.16241506053628
O        -0.26834735798056    4.85734356278590   11.67350622128097
O         1.08578065100226    6.20220228355907   10.44198589884366
C         0.06286151080761    7.19341365662048   10.38659638251398
H        -0.90984755349719    6.68999226816552   10.36897488407114
H         0.22267494121249    7.72999442798642    9.44835018908274
C         0.14148022890589    8.13433636952346   11.58119729659336
H        -0.65037701437847    8.87539010539463   11.51663758233486
H         1.10204646356122    8.64453285283330   11.60312691420820
H         0.01923906376198    7.56779585670871   12.50112908230103
N         2.06220067596708    3.23224353217677   10.51199061581452
C         3.31662169450572    2.68428262175374   10.74873388549295
O         4.05601562073882    2.89778723780377   11.69460212594552
O         3.60756463391928    1.76988012777414    9.78391334505131
C         4.89881078534129    1.18073974963851    9.89947242559936
H         4.89054081680594    0.47033816686388   10.73477976241764
H         5.62965385590446    1.96735702249974   10.12947776407097
C         5.23440510055914    0.48234056819487    8.59310462412432
H         6.19340818097658   -0.02002467671233    8.68434181911862
H         5.28875013159332    1.20286896808155    7.78013860840872
H         4.46947516359791   -0.25323866367506    8.35932518909084
N         4.34541649898615    4.44398463551958    7.94357315807502
C         3.98464754371960    3.65060397451209    6.94923367354942
C         2.61241323832604    3.06825266436274    7.02885064652112
H         2.65894216914721    2.09369883901798    7.51982558808581
H         2.17167264808966    2.94728622445233    6.04222662506090
H         1.97943954010232    3.71915830026380    7.65624352577423
C         4.86924119291213    3.36946328400942    5.90082849669325
H         4.56612819447006    2.68962262538913    5.11840351245843
C         6.14187946190732    3.91143607707604    5.88261239372077
C         7.07831551779318    3.53348645362693    4.81284484420481
C         8.32932151813641    3.00269318022254    5.11723067159698
H         8.61311270520124    2.86615667300058    6.15087787708409
C         9.19063311258790    2.62288255182548    4.10433756111893
H        10.15629916264440    2.20675522904947    4.35057867136533
C         8.81732018760104    2.77319274692228    2.77909863932490
H         9.49340334785260    2.48035076062261    1.98995743869151
C         7.57248757236310    3.29512251155560    2.46896860480144
H         7.27620692705619    3.41098147455109    1.43699464358853
C         6.70417868237612    3.66660067924580    3.47870659333534
H         5.73589400554798    4.08104899708870    3.23796307747821
C         7.75295599926455    5.48708337304203    7.00013872047493
H         8.47622985437960    5.33114317826831    6.21411394723024
C         8.04663498402160    6.30524772506486    8.04286615359016
H         9.01649875195887    6.77558558629451    8.10299429124026
C         7.36068974347226    7.36795823442971   10.21590063401679
C         8.60536967602951    8.13697030740762   10.36379617298093
C         9.36583350913049    8.01881564268091   11.52398728622957
H         9.05224925952917    7.33122075860368   12.29583516513452
C        10.52584354695617    8.75520283197705   11.67742652481176
H        11.11314230128088    8.64957450192638   12.57748880019324
C        10.93296777231306    9.62788030598744   10.68193955590891
H        11.83696171776227   10.20538977329824   10.80439775332659
C        10.17459235974192    9.76151955149163    9.53069585683661
H        10.48315170805357   10.44824570463054    8.75625419127724
C         9.01917723168518    9.01938765999692    9.36872338795388
H         8.41702514829977    9.13991861230415    8.47944585606361
C         6.39565806565854    7.42412435251235   11.20592703131680
H         6.57793055053258    8.00656956172276   12.09646949149826
C         5.16614796253093    6.77594473931315   11.04625172684752
C         4.09424727826933    6.77208604089670   12.08014359137835
H         3.15177915604364    7.08715929732538   11.62362636674361
H         4.33449451597419    7.40762583245537   12.92759024765987
H         3.95274323498672    5.73618559110503   12.41975941882623
N         4.89104306392983    6.10092890596776    9.94118482177235
C         5.54807547860640    5.04279592109745    7.92608593422792
C         6.50342269929230    4.81110622443115    6.91544120582441
C         7.10882184750329    6.55359733987145    9.08437161684524
C         5.84732273209256    5.92746990434057    9.01353375548663

