57
CSD_code = ACOCUQ | q = 1 | S = 0 | Stoichiometry = C20H24CuN10O2(1+) | MND = 4
Cu       20.45155038037135    5.30677698359513    0.00001745549918
N        20.76651769871919    4.57611902230073   -1.75060503397462
N        21.92729570030015    4.02853972674992   -2.22227494955104
N        21.41954905280801    4.75722644010449   -4.37184435528096
N        20.24081142783598    5.23653434656444   -3.94738588890917
N        18.79433627656307    6.09246937796141   -0.84160934254008
O        23.43613339760912    3.80369220085673   -3.90856155096516
C        22.68836934621100    3.22413968607138   -1.30090703792948
H        22.87294892614239    3.78575124847277   -0.38375588238434
H        23.62976343969486    2.96657115085395   -1.78208472014659
H        22.13959124945351    2.31268225961355   -1.05616142788948
C        22.35269071574088    4.17149458090623   -3.53120192257241
C        21.68402820844482    4.83298792325007   -5.78682217568449
H        21.17409121490866    5.70595127841701   -6.18660560638584
H        21.31739404763382    3.93727957671718   -6.29248218364430
H        22.75975268932753    4.90735546957717   -5.93578212940653
C        19.98937899854243    5.17531360873117   -2.67076428994331
C        18.78660605158084    5.82920294487877   -2.15651993706538
C        17.72682868341250    6.18271337833694   -2.97889055197727
H        17.77701683681138    5.95662340867232   -4.03020010114254
C        16.63801369183259    6.82007957206924   -2.40564901054364
H        15.79111444205381    7.10601434144497   -3.00952503151866
C        16.65686699395602    7.09283010158947   -1.04871348018998
H        15.83072398946615    7.59771427256026   -0.57431673766377
C        17.76114290479514    6.72181294911049   -0.28423667265045
C        17.82031565449234    7.02629723064921    1.17451275665919
H        18.84583090169000    6.95505729431367    1.53310283599650
H        17.19723781298070    6.32501845594247    1.73031410357514
H        17.44228854819896    8.02733908916381    1.36795466453931
N        20.13666993134060    4.57629335677895    1.75070055184250
N        18.97600981086266    4.02859871757242    2.22253880741344
C        18.21479593918767    3.22428967469647    1.30118751890167
H        18.02845496851607    3.78665320628197    0.38480101856890
H        17.27424916374029    2.96512724267536    1.78323463088904
H        18.76444206029759    2.31375388599728    1.05484689438345
C        18.55096685033797    4.17120047881148    3.53161024190252
N        19.48415315559665    4.75713262605943    4.37208011582937
N        20.66275911426138    5.23656944642822    3.94743283394250
C        20.91397436020830    5.17541694275714    2.67076557614307
C        22.11675612538883    5.82917399030580    2.15637860871321
N        22.10895742734089    6.09236408486453    0.84145021278609
C        23.14223113102805    6.72146241387201    0.28394901745844
C        24.24665241292583    7.09230091898072    1.04830146470689
C        24.26556868349876    6.81963523452381    2.40525167843024
C        23.17667874734683    6.18252145788346    2.97863005707669
H        23.12654743300147    5.95650711489071    4.02995795278844
H        25.11257932311933    7.10542738399712    3.00903298203322
H        25.07285998098146    7.59697386381923    0.57379110781037
C        23.08302846301050    7.02584165097457   -1.17482154360302
H        22.05750937787161    6.95456958558873   -1.53339035144343
H        23.70612187794673    6.32454046048590   -1.73057541536387
H        23.46103189094118    8.02687766073153   -1.36833638175960
C        19.21995152118216    4.83269864302581    5.78711807033151
H        19.73021407160216    5.70545058924448    6.18695664844702
H        19.58641999285554    3.93678691544948    6.29254401666416
H        18.14427272445965    4.90733565539127    5.93630939207820
O        17.46775417957451    3.80300887842418    3.90925249671956

