55
CSD_code = ACOJUX | q = 0 | S = 0 | Stoichiometry = C18H20B2N12S2Ti | MND = 7
Ti       10.10027576511728    0.64113569567676   21.58505099827117
S         9.00950248507311    2.54470697985284   20.52527515499560
S         8.69286333716611    0.77222686456058   19.66131266321862
B        12.74961081782893   -1.20551240531791   21.27493950728546
H        13.73620795527269   -1.84380278020256   21.16035784649056
B         8.30386089887272    2.62428028384945   23.84632231393904
H         7.65669306829615    3.57652984156837   23.56485122973054
N        11.80186026209109    0.96608821271551   20.47276973033096
N        12.83996431311076    0.12249885074090   20.50522328549836
N        11.25153712477946   -0.32974638189003   23.05443546394003
N        12.42394281384329   -0.89247096628078   22.73740742612212
N        10.30381392816576   -1.36191538782381   20.77800153242073
N        11.51562460611862   -1.92914888215158   20.72406952450357
N        10.63940184864944    2.20886565462509   22.81576266347936
N         9.80697863503475    2.87672422810400   23.60689816402417
N         8.17576267733443    2.28082103580990   25.33389517268927
N         8.80869771300137    1.20711177417033   25.82250939099535
N         8.51762270311392    0.29695978614894   22.79385741563809
N         7.78259874363026    1.36623118799846   23.11344192680311
C        12.13109714401169    1.97875866706892   19.67468564522578
H        11.44570856473860    2.79170816783829   19.49473674498334
C        13.41469767365361    1.78122099212764   19.17007348475384
H        13.95865807825502    2.41456517215373   18.50052607513519
C        13.82610243763833    0.58610614803186   19.72577421838478
H        14.74699460883310    0.04971959978801   19.61500136773914
C        11.16842768416302   -0.28160867686738   24.38047156455057
H        10.30846899768209    0.14133283744995   24.88471361015769
C        12.32210878629504   -0.83509816207845   24.93707206348563
H        12.55695274579412   -0.94373065706575   25.97554834943186
C        13.09115834528282   -1.21179613491233   23.85522585447377
H        14.05413348888231   -1.67991724044122   23.81346918881444
C         9.45380918771574   -2.20278624889225   20.19492990981248
H         8.41433834295488   -1.95548720284099   20.07219953714853
C        10.12791907154405   -3.34176099569029   19.76008077925326
H         9.71721999864022   -4.19244953284813   19.25729596340881
C        11.44134443588550   -3.12113083892065   20.11706720924629
H        12.31269663297011   -3.72814793229365   19.97588572500509
C        11.85816335020705    2.72120009413351   22.98873952260130
H        12.71882829581319    2.34802642705058   22.45826601200026
C        11.80679170648449    3.75598829447682   23.91559190179747
H        12.61410216255579    4.36674661408060   24.26340799970857
C        10.47757950309427    3.81721815577153   24.28178015650222
H         9.98207906696828    4.46565649830332   24.97562349712868
C         7.47174629073632    2.88884342797714   26.30608475889118
H         6.89555109086655    3.76935255299023   26.10341831651681
C         7.65791804071187    2.18398513139785   27.47366230945758
H         7.24664735737901    2.38914233685801   28.44090662688684
C         8.50868458216473    1.13628086393872   27.10600799908040
H         8.90698093407733    0.34742348155588   27.71488627500255
C         7.68013933252986   -0.72944532835385   22.62616441619594
H         8.04771158618151   -1.71599412852388   22.39741408117350
C         6.37217304595545   -0.31214145222435   22.83515196895349
H         5.47574381773491   -0.89375344655077   22.76796501987612
C         6.48844603760279    1.03123196581804   23.14401628677770
H         5.73175787749342    1.75065695754433   23.38447415005886

