101
CSD_code = ACOJOS | q = 0 | S = 0 | Stoichiometry = C37H47BCuN11S4 | MND = 3
Cu        1.14862032341953    3.14616907567774    5.58334747065800
S         3.20305034746633    3.77093425941438    6.46057163918364
S         0.85279881959076    0.91870471264091    4.84875020462435
S        -0.70645018965087    4.48793808577181    5.42101337953955
S         1.27261462118229    0.67820443816246   10.06870681836629
N        -0.99101834471159    1.90228587881372    9.17375097908002
N        -2.17360771643689    2.31597073244057    9.67930734975209
N        -0.39870831962824    0.48303191356628    7.25837880130681
N         0.19766073155748   -1.30704129597422    6.19388762846112
N        -1.83501258532157    2.44136611511823    6.88300146815381
N        -0.80114934510790   -0.57502756270978    7.99477944419914
C        -0.26220586036545    1.31243344546525   10.13529850044518
N         3.44689739866736    2.93861722742770    8.93853019291657
H         3.21823869256109    2.28763775692013    9.67852966641129
H         3.55695036931402    3.91461629400826    9.15373366670402
N         2.96137415201110    1.30728611296536    7.41028460968055
H         2.62393045631068    0.72649520855042    8.17510892885715
H         2.64462245920580    1.07838917495469    6.47476938079325
N        -1.02132896657164    1.35483801285493   11.27284875526279
N        -3.13299296416686    3.37190071841129    5.41681700635105
C        -0.43909868117023   -1.64223232925897    7.35934505892869
N        -3.02911593819756    1.80566813131110    6.93756546330754
B        -0.64717289292795    1.94087371708982    7.69609299757017
H         0.32248966630993    2.60898435492270    7.47787706597327
C         0.20451616160379    0.05711351326076    6.14271176366890
C         3.17232729814261    2.60139943872456    7.67452234150629
C        -0.05858260298117    1.47822957506619   13.49795357903592
C        -0.65831534433687   -3.03865264008627    7.79580112606507
H        -1.41251026638159   -3.05547576008488    8.57675537071598
H         0.26629417899716   -3.46089979839717    8.18943113388433
H        -0.97848274642494   -3.64983065211429    6.95357951081092
C        -4.37067744755862    5.87792436330512    5.93711352907230
H        -3.38277877263084    6.08333660452664    6.34924873864945
H        -4.85518833638393    5.15017301667396    6.58726374031222
H        -4.94989249012694    6.79714195140547    5.94565627911846
C        -2.18933019715535    1.98217617697612   10.92834473326811
C        -3.58758444551175    4.13765190217460    4.31487543263563
C         0.75157933964861   -2.18725053978059    5.23178268359285
C        -0.00860364115008   -2.51627654941943    4.10922477936898
C        -3.29149606882345    2.23313864333277   11.88402004790248
H        -4.14868969265342    2.61604117452303   11.33926859047578
H        -2.98989017145090    2.96244074840154   12.63568480868725
H        -3.56212598871209    1.31287279762690   12.39995280618161
C        -3.80034447278425    2.36816672856951    6.06653766043592
C        -0.69954330843902    0.73958405373113   12.50663574300279
C        -1.87235081353531    3.39772458589195    5.93983080830484
C         2.53575417029866   -3.57422212586986    4.47543966998548
H         3.52924173374625   -3.97604176518112    4.61214090810732
C         2.03221330216080   -2.69738101116393    5.42660487911156
C        -1.01994445729802   -0.60596192573087   12.68214752439112
C        -4.22540307394602    5.35477507249091    4.54210518838561
C         0.22888405752529    0.84975735760211   14.69932110460205
H         0.72591894052148    1.40847018672036   15.47932546453061
C        -0.09736708748491   -0.48185344528867   14.91571062573533
C        -4.99212998056552    6.40156483836917    0.98577404777865
H        -4.66558783702021    7.43676114385596    1.06374469944170
H        -6.08199471275361    6.39632094644593    0.97164781059336
H        -4.63325114961856    5.99102297726847    0.04582199331525
C        -0.71342485939532   -1.19670992052591   13.89780406601775
H        -0.95444732348252   -2.23894499803914   14.05139100558021
C         0.33047162524993    2.90240548574152   13.24374861972578
H         0.82325305355503    3.32804043803193   14.11351533160754
H        -0.53951084961053    3.51244552075238   13.00124810429106
H         1.01516523311944    2.95172138063131   12.39707293447757
C        -5.20614310638742    2.00581602498327    5.77867991432863
H        -5.47222740063526    1.12991542115002    6.36199298842470
H        -5.33602351648743    1.79759624757879    4.71730499247499
H        -5.87046543436319    2.82828457081854    6.04134454602752
C        -1.66313640697874   -1.37719509609453   11.57043932478444
H        -1.76449528415762   -2.42496166196398   11.84106389142920
H        -1.06440752665575   -1.30363654303218   10.66221769836996
H        -2.65182078721638   -0.97893024875004   11.33940871263928
C        -4.48646550431288    5.60449699783334    2.14916936388180
C         1.80094429088137   -3.93367630282237    3.35640316036606
C        -4.67381231394920    6.07049786085359    3.44444502086935
H        -5.16880579289406    7.01835489569434    3.59934421014021
C         0.53270325667977   -3.39341800268442    3.18499113870522
H        -0.04242692888393   -3.65662478986583    2.30909654534456
C         2.37265947914235   -4.86202500937291    2.32964851360038
H         3.15429589099645   -5.48411809076475    2.75823704061046
H         2.80778575947274   -4.28475352202095    1.51367588109687
H         1.59877488527299   -5.50168185468336    1.91125694743207
C         2.87534610784059   -2.28712969414833    6.59576217674957
H         3.52037394675056   -3.10574205748872    6.90607918021013
H         2.27717059630464   -1.97153756825189    7.44710874341227
H         3.51196280345666   -1.45004714055375    6.30751440334369
C         0.24490036488255   -1.14682117765175   16.21386721804346
H         1.24760645850090   -1.57148381519128   16.15768140455030
H        -0.45048468715756   -1.95363117176422   16.43298097449691
H         0.22830538067210   -0.43173009027697   17.03295756507859
C        -2.61075905591432    2.37216361581326    2.82310967219781
H        -1.58185464130506    2.48781111128314    3.16665047678715
H        -2.59095170030900    2.10174524528348    1.77094319222980
H        -3.05771458587133    1.55242839621209    3.38668980314468
C        -3.36250486910894    3.65149034773405    3.02886240527858
C        -1.35948407899700   -1.90219300417073    3.90819181696152
H        -1.98486086750017   -2.01752249927880    4.79356026381178
H        -1.86523782250736   -2.35366427475670    3.05910462080158
H        -1.24464055799391   -0.83494446053276    3.71675067185601
C        -3.82602310945395    4.40023545993515    1.95741971154594
H        -3.65634043130608    4.03898821239366    0.95339014866106

