82
CSD_code = ACOMUA | q = 1 | S = 0 | Stoichiometry = C36H39FeP6(1+) | MND = 8
Fe        3.61059804635129    3.26618880689079    4.24522169136158
P         5.73989521862703    3.20484484149159    4.73745935572102
P         3.83882375237430    1.16797726981742    3.62442071548270
P         3.16287069980356    2.79822488540983    6.32409429432983
P         3.31593388312851    3.71467000905628    8.27779812033647
P         1.58945029091646    2.42637956574191    7.76255992083481
P         3.58477149314490    1.53824411093918    8.02579324582868
C         1.77845744618159    4.39787158700033    4.25114087285631
C         2.92336701824653    5.24949710441570    4.42940064583326
C         3.70882686253963    5.18111045141827    3.24583715780058
C         3.12184291998698    4.20787141667347    2.38815952012239
C         1.92005631942511    3.73240865192628    3.01194074819092
C         0.56712708472213    4.37095959907553    5.11523989354317
H         0.77881665046993    4.73975846592704    6.11732740973145
H         0.14946672518939    3.36849005900145    5.19646901017027
H        -0.19559822169638    5.01645525660248    4.67713226580004
C         3.11953697249328    6.21576902633550    5.54613998471659
H         2.58535876854489    5.89820476010606    6.44000307831979
H         2.74607956439483    7.20020886280163    5.26301620703795
H         4.17365942354592    6.30512769261819    5.80042490140576
C         4.79227960507477    6.12850741998250    2.86031525361143
H         5.69779489693299    5.61542933364426    2.54393171901762
H         5.02918841818083    6.79789921825784    3.68132929428868
H         4.44449460187236    6.73327899784727    2.02182507722473
C         3.42885070353883    3.99876378796038    0.94396540459288
H         3.42987389485041    2.94153487520557    0.68392898413933
H         4.38067989798757    4.44243965797647    0.66791613062924
H         2.64871845670375    4.47764377486697    0.34945351819217
C         0.88145548620456    2.92946399849149    2.30586601068195
H         1.31199434344314    2.04925972532495    1.83240699393799
H         0.43537897169188    3.54136910186364    1.52029849898017
H         0.08575973918902    2.61963815268610    2.97719014491288
C         6.13447630107025    1.42459252245640    5.06259942780319
H         7.21273620580985    1.29043082798407    5.19401687608023
H         5.61642673063114    1.10270091247956    5.97328838554142
C         5.59822749895267    0.65161596359967    3.86529944491188
H         5.68160496790637   -0.43133193813891    3.98462614680885
H         6.15945644791181    0.93012712660693    2.96908321628338
C         6.34385764522222    4.08774915438566    6.20064108399263
C         6.60518955443754    5.45030753607553    6.05762076217817
H         6.53593844012417    5.89630262273712    5.07516977712593
C         6.98300311964842    6.21029355916928    7.14784835127866
H         7.19012648827580    7.26284882484285    7.02605069656146
C         7.09607285019092    5.61903075237097    8.39665224934006
H         7.38702253463785    6.21158555793811    9.24994020383651
C         6.84516578049958    4.26542466185724    8.54592842966027
H         6.94544734621211    3.80021437392729    9.51474410907118
C         6.46589684300259    3.49972690668120    7.45604793498050
H         6.29222671370862    2.44066026079488    7.58824990858223
C         7.01845512106719    3.53512303950493    3.49063391923738
C         8.33294073172922    3.84698632734743    3.82031375775536
H         8.61787785980149    3.97492646590893    4.85480914005796
C         9.27112147358508    3.99403960955465    2.81382306042341
H        10.29119426930612    4.23951127799413    3.06671001599991
C         8.90944508475384    3.82427985658999    1.48632863192548
H         9.64788669096974    3.94159742321797    0.70849849704890
C         7.60184905599031    3.50457082214729    1.15611169003349
H         7.32037869465384    3.37050417751553    0.12203285444198
C         6.66007775163496    3.36279621702088    2.15842302576844
H         5.62755623340741    3.12747407321264    1.93839281819739
C         2.90840153355421    0.11459194606102    4.78961638379473
C         1.58642008100072    0.50721602349600    5.00483189336278
H         1.21212478847352    1.36433353079945    4.46120805730375
C         0.77279948043832   -0.18630991128077    5.88075163483903
H        -0.25372349747180    0.11679569391471    6.02487614175430
C         1.28375668780101   -1.27072190902550    6.57775189652213
H         0.65936156725904   -1.80883008475520    7.27367161279049
C         2.59803611231556   -1.65829178678545    6.38141894819153
H         2.99889475623956   -2.49924746855013    6.92658104838395
C         3.40902992199207   -0.97839722513519    5.48608705576515
H         4.42515655188066   -1.31370018412969    5.34568801412628
C         3.43541333891138    0.39814511174187    2.02278057057321
C         2.26358514447246   -0.33721937243166    1.85594997535117
H         1.59735362693500   -0.49097300097491    2.69208945381524
C         1.95594696358679   -0.89051169814751    0.62574325458983
H         1.04987816173866   -1.46574080799160    0.51173840774957
C         2.80494626640175   -0.70998665747838   -0.45345244122319
H         2.56304103268193   -1.14280064640756   -1.41151264142767
C         3.96823550676824    0.02603217698644   -0.29764288394814
H         4.63494647696111    0.16839698529912   -1.13464932088101
C         4.28055587852592    0.58250536032954    0.92936612036608
H         5.19347125034439    1.15013454120873    1.03321633365728

