43
CSD_code = ACONPB | q = 0 | S = 0 | Stoichiometry = C15H21CoO6 | MND = 6
Co        0.26282129524123    1.87268688364480    9.74084968363265
O        -0.02416111641317    1.99899856835028   11.58683441352601
O         1.03995046720335    3.56890806715770    9.59554605325554
O        -1.41864307039828    2.66104389310620    9.50706582067576
O        -0.39911463744110    0.12216404190890    9.78681546651557
O         0.39910582650950    1.68859363056084    7.88301701670383
O         1.97625289460974    1.20089049058884   10.08216427471399
C         0.26703845422918    2.98943861860468   12.31199069998897
C         0.85824362897774    4.17397883311094   11.87389107890422
C         1.20571924995934    4.38810362129231   10.54061322524031
C        -0.06489243518662    2.86745163382127   13.78372282147563
C         1.84067638987474    5.71344896856026   10.17856797800972
C        -1.61090109989498   -0.21098417602979    9.67649092980629
C        -2.68263489229321    0.66286331350220    9.49651938752136
C        -2.51652426773891    2.04522361823720    9.42180854697552
C        -1.91096341946220   -1.69307105275333    9.74189203207250
C        -3.75286254771543    2.89656768194330    9.22781873699721
C         1.40258234925965    1.24950951476062    7.25689795454589
C         2.59180570376375    0.80534568299014    7.83366553961226
C         2.80087776375586    0.80705288459492    9.21238771535617
C         1.28662015678798    1.20189551725263    5.74851898860848
C         4.13105012137685    0.29964140280934    9.72635620504041
H         1.05394665230507    4.95307514445508   12.59292229604237
H         0.84274431919813    2.96079780792714   14.37537498676378
H        -0.52360256892607    1.90155045068703   13.97420292934719
H        -0.74911258318809    3.66035048160350   14.07690919707216
H         2.73000320625170    5.87991369835554   10.78199110510842
H         1.13760697282875    6.52077929282643   10.37225163095960
H         2.10702607913859    5.71313945985405    9.12539983074103
H        -3.67681294367454    0.25440673135221    9.41217159523930
H        -2.58535961256655   -1.89678337877398   10.57026569761667
H        -0.98653546698647   -2.24552296808162    9.88279170128090
H        -2.39123809665562   -2.01515077666217    8.82076543733006
H        -4.25379811001010    2.61496966161118    8.30466994831156
H        -3.46951320730982    3.94406251190614    9.18182940144078
H        -4.44290338696973    2.74191450109225   10.05416462691430
H         3.37881649097807    0.44703352979791    7.18980397358374
H         1.40410893724106    0.17859292076467    5.39937657108040
H         2.06786540410807    1.81014890231575    5.29890189920385
H         0.31408377032014    1.57983770878429    5.44683730422596
H         4.27705651576318   -0.73247672469641    9.41658138439965
H         4.14821840548455    0.35857775907563   10.81073943146452
H         4.94035240766477    0.89923164779091    9.31601448269575

