59
CSD_code = ACOQOZ | q = 0 | S = 0 | Stoichiometry = C22H25BN5O3ReS2 | MND = 6
Re        5.24214100466219   14.18062672235333   10.06265973966389
S         2.77198223390201   15.05246637402882    9.59118816425432
S         4.78733306742097   12.50094212759964    8.06021995622860
N         5.41189169754988   15.95062706100815    7.46993480202942
N         2.69593612363991   11.04961980385018    9.07171703627238
N         1.32328409226538   12.79082283168221   10.11760740008696
N         1.49185319302243   14.18527550074156   11.79894115486079
O         3.94281770611573   12.05951031961231   11.89383218299698
O         8.10112114619532   13.00433451990895   10.25401480106482
N         4.67200002688295   10.15532676449189    9.38007551387038
C         4.00580061558787   11.22068140093730    8.88064977673740
C         1.85380122582911   13.94803840776872   10.51797048989320
C         5.09914163613310   16.54594540052041    6.23428157253833
C         5.41229826843226   15.53772096722722   11.45130418647450
C         2.53119154763392    9.86494370149433    9.72795989321020
H         1.55868885314295    9.50659074429626    9.99330617679320
C         4.48049175350336   12.85817541385290   11.26467881485881
C         5.55947347650106   15.40804598583381    8.48017617247513
O         5.44702099296427   16.33797215061422   12.27575597640032
C         7.05233064993304   13.47194525491896   10.20544606645472
C         0.63149202721407   12.27275487660841   11.17314386930264
H         0.11151874116393   11.34113297862057   11.09386622106749
C         0.22370302734843   11.30200905293600    8.28745661868320
C         4.00654005293017   17.58653195053714    6.49392988889201
H         3.14777928774064   17.11588518712385    6.96808069467178
H         3.69202921477573   18.03198503779103    5.55398806381647
H         4.37492384654108   18.37145657193283    7.15112282683043
C         0.73013604503590   13.12863795422902   12.21953294673160
H         0.33173546946242   13.07798221069991   13.21146427863813
C         3.74932803556942    9.30364484056797    9.92442025633466
H         4.03450902991315    8.38689274907024   10.39718489837759
B         1.55542369939021   12.06961825023193    8.74893767735512
H         1.94146327964951   12.85441897489515    7.94850952462628
C         4.58976367974501   15.43182800717225    5.31583852697146
H         3.71803661625247   14.95227184101561    5.75542881045320
H         5.35789050570822   14.67465789273597    5.17365600277959
H         4.31575126255700   15.84593964590422    4.34921817998296
C         6.09770343727334    9.99745967866287    9.39999712115872
H         6.35490022477765    8.95131949387335    9.24016916204316
H         6.50639060322794   10.32974226779323   10.35869368968288
H         6.52754309098041   10.61085609806987    8.60720537797543
C         0.27878145578189   10.11983406032617    7.55149392108888
H         1.24319134781509    9.69767499830498    7.29875990454112
C        -1.04278345803375   11.82137523270612    8.54981500831348
H        -1.13037420715699   12.75413610072098    9.09256053134153
C         6.36668433376849   17.19433188910367    5.67533617527868
H         7.14359929886484   16.44688706957209    5.52953520095632
H         6.74002150155705   17.95421622607610    6.35873905294756
H         6.14657286403603   17.66136728876543    4.71915330608567
C         1.89641321472377   15.31151127080460   12.59003280187041
H         1.04310509639548   15.70439999143541   13.14176582698661
H         2.28871507584365   16.07944078899600   11.92268570565007
H         2.68068546736884   15.02231945180923   13.29409154040861
C        -0.86672886309514    9.47029470703424    7.12665141396161
H        -0.78755566085768    8.55142573161567    6.56157276932263
C        -2.11250675873160    9.99577513391781    7.42176154061359
H        -3.01025509814883    9.49025245397573    7.09510509627424
C        -2.19564532796517   11.18177190825992    8.13017164531700
H        -3.16278077024751   11.61074868343194    8.35490404568129

