70
CSD_code = ACORUI | q = 0 | S = 0 | Stoichiometry = C29H36N2O2Pd | MND = 4
Pd        6.91315460060576    6.86497468044208    2.66935466062932
O         7.70165513283915    5.01602908030068    2.17104097875464
O         9.22775569485393    6.48217438861003    1.56139330632003
N         8.51169313340361    7.54681945612444    4.18259799437790
H         9.19933241924713    7.31833607886374    3.45680175546977
N         6.13994435561036    8.54451199719389    3.13836101091084
C         8.90585943318848    6.90139171393975    5.39402545131515
C         7.93979436283597    6.55518310408093    6.35321636131588
C         8.33400008483504    5.87804461838700    7.49730872946661
H         7.59763766545464    5.59581797083836    8.23240736107552
C         9.65665111469032    5.53981098460224    7.70570845427426
H         9.94729754823922    5.00891841958108    8.60004186955038
C        10.60089147750715    5.87012947545488    6.75646369467793
H        11.62954671828894    5.58696500075909    6.91805690752973
C        10.25204548833519    6.55705133457036    5.60049706686587
C         8.28960700234084    9.01877348666422    4.15840359060848
C         8.89373654531483    9.68739936495053    5.39435678702844
H         8.90440148903801   10.76792000729268    5.27922010386017
H         9.92013350294532    9.35311467430820    5.52284016202354
H         8.33648488667499    9.42805152442301    6.29171100375476
C         8.95618865231279    9.56345059903994    2.88105319132821
H         8.62404536747482    8.97999717066249    2.01243983888040
H        10.03963282475074    9.49434657556020    2.95677073497120
H         8.68791094713140   10.60686158009834    2.72416769204488
C         6.80281735692119    9.33904343227798    3.98232457787957
C         6.18233903269644   10.43976413651348    4.55447532287284
H         6.71009734027916   11.08788664577111    5.23264460251865
C         4.84797012081903   10.67515063244144    4.25795971578622
H         4.32998908793374   11.50117762719127    4.72160209975726
C         4.18523048688648    9.85634936498498    3.36300339258081
H         3.14848525660968   10.03918980712168    3.15368126337305
C         4.86088197542081    8.78535284105160    2.77518192509274
C         4.35423752609037    7.80807250170140    1.81191927791587
C         5.22458042363576    6.70286230843411    1.63722611983223
C         4.86293907399013    5.65967192741745    0.80049632635969
H         5.52329082449621    4.80865230995666    0.68661384423979
C         3.66169588563912    5.70997084543866    0.11180695627637
H         3.37229534860607    4.89801615034960   -0.54024342920775
C         2.84029923039959    6.81615375679810    0.23730813248893
H         1.92311980803836    6.85982236804079   -0.33359233999013
C         3.16091561182807    7.87959118193889    1.07095955964558
C        11.34684843057070    6.85698040855745    4.59652489987063
H        10.97356141977116    7.50359629516389    3.79812455243015
C        11.81057183076214    5.55425045128248    3.94017563783194
H        12.23148642436949    4.87502671159848    4.67781990458732
H        12.56689985461534    5.76152730893561    3.18628648738804
H        10.97040212535094    5.06049592843872    3.45783747635787
C        12.52464436538753    7.59214884091566    5.24346002063410
H        12.18450764796426    8.48261709686473    5.77003497380310
H        13.23535427244303    7.89590303859949    4.47752401976730
H        13.04789277587595    6.95830623754282    5.95404043762618
C         6.47035087160466    6.82243839122846    6.11231492825025
H         6.37251268034060    7.68128866055249    5.44539553721282
C         5.84698484553420    5.60196680807143    5.41773552767008
H         6.35826744647819    5.38906636525689    4.46181319164469
H         4.79119506006628    5.78433489114884    5.21665797366095
H         5.93546037795570    4.72301159498296    6.05335708737263
C         5.69585640736155    7.16559563218010    7.38615417391950
H         5.55418287431266    6.29151231309444    8.01629180591078
H         4.71137528962430    7.54633640296621    7.12142363329863
H         6.21553634841989    7.92900268515528    7.96199305539609
C         8.79171302975496    5.31740026092501    1.61089537841957
C         9.58777084634866    4.18001555361722    0.98854277226692
H         9.15657964255621    3.95108719482561    0.01589219049210
H         9.51877075677269    3.29274531525694    1.61270002805473
H        10.62395053957915    4.47719372740513    0.85422052622890
C         2.22421559951980    9.05270254352160    1.09276367925937
H         2.76815120794638    9.99142123973371    1.00737054663801
H         1.63336050831641    9.06523105427795    2.00900755157140
H         1.53111168231659    8.98409592378873    0.25683594793407

