40
CSD_code = ACOSAM | q = 0 | S = 0 | Stoichiometry = C17H18Cl2N2Ru | MND = 8
Ru        2.64817526383078    4.61252523189809    3.08596694434738
Cl        2.55193579503399    4.09630154437348    5.45715095459442
Cl        3.24509769472926    5.53591695361592    0.92041456203905
N         2.77981554981193    6.56134766378222    3.72543532957506
N         4.67963165146940    4.43319868246663    3.33751104192874
C         0.55981109051487    2.72388497067271    3.35236039159666
H         0.15091844239386    2.22173905347212    4.22481653942029
C         0.49309687928632    4.25111041106467    3.35473382559218
H         0.00320429487056    4.81821987004088    4.13847562262191
C         0.69730043016458    4.64492148741615    2.04872388178202
H         0.37034858817524    5.56648187729740    1.58513811311549
C         0.90587731070335    3.36760396928461    1.23906789029424
H         0.81547323726336    3.46117334851020    0.16037366123855
C         2.25916498668011    2.89242940774020    1.76790865879554
H         3.07285426928288    2.59044915131663    1.11783084395548
C         2.04082468111195    2.48725026462416    3.06799963822756
H         2.62373797629434    1.77573341170837    3.63805128000117
C        -0.04511561867959    2.40941785962240    1.97447132644742
H        -1.09324748556693    2.69714628327971    1.88933386898260
H         0.08093721174689    1.36756406715805    1.67892968578554
C         3.51296093326590    6.91617214440063    4.78567851096139
H         4.01002901145044    6.12219831808409    5.32880151406871
C         3.62697374071325    8.22496721055525    5.21843036676047
H         4.22981299678810    8.44573017883475    6.08492808431989
C         2.96504072259502    9.22823815854724    4.52953785473067
H         3.03420162350130   10.25875242489969    4.84209614417263
C         2.21371476546225    8.86409747201904    3.42396005164637
H         1.68083110291715    9.60017521774638    2.84333771325201
C         2.14830929260640    7.53123806478123    3.06013504759164
H         1.59025350411379    7.23960897524163    2.18203705311309
C         5.53506184693355    5.37781904750163    2.93328228201034
H         5.11567493330542    6.23837021524801    2.42733364898372
C         6.90370169920285    5.27830771096585    3.10669765583157
H         7.54150869538997    6.07279378970060    2.75321641914864
C         7.42954195303260    4.15960624371067    3.73222984610224
H         8.49276694205810    4.05229086305231    3.88201294886668
C         6.54389640909025    3.18482312777768    4.16204044114667
H         6.89177696062344    2.29431614880422    4.66090135471639
C         5.18894482305919    3.35999886813919    3.94644382841650
H         4.48685579477745    2.62088031064680    4.30460517382523

