51
CSD_code = ACOWAS | q = 0 | S = 0 | Stoichiometry = C12H30N2NiO4P2 | MND = 4
Ni        3.91928665257770    0.00064478725171    0.00103427453379
P         5.45915126813966   -1.17563558645652    1.15302461513489
O         2.51914435000004   -2.09471213938107   -0.28716323770354
N         2.68679698390498   -1.12637685931650    0.44320422722652
C         4.85369651288323   -2.69981828195968    2.00850280128957
H         4.03740134718311   -2.38230692403800    2.66440973915383
H         4.40980052588072   -3.33166315727348    1.23312235949893
O         2.07709407948604   -0.93266415605850    1.48687734900267
C         5.88135147070228   -3.49301566671619    2.80343790619905
H         6.69667215961214   -3.83668218335375    2.17150305456579
H         5.40197300437724   -4.36951430594866    3.23509644080015
H         6.29503243809797   -2.90437675594293    3.61860662086473
C         6.28922763865486   -0.20034337252373    2.47571718332745
H         6.97738519656391   -0.83459808519412    3.03917036750637
H         6.87101890059423    0.58205446619335    1.98116121747655
C         5.23760070265415    0.43815630196438    3.37638445620061
H         4.54135977756644    1.01756158939951    2.76629930164273
H         5.70038376613735    1.10891663211635    4.09661848847453
H         4.67183082297218   -0.31650505889112    3.91864622372907
C         6.86769769880145   -1.75381008937334    0.11747181263737
H         7.41168078385637   -0.86402970950996   -0.21057128015812
H         7.54684712933945   -2.37089624356572    0.71025161086055
C         6.33510925854968   -2.50329235708919   -1.09882729969705
H         5.82275127784712   -3.41722112691324   -0.80579226118503
H         7.14376643803662   -2.76193811518432   -1.77855349187562
H         5.62634246872159   -1.86816361841836   -1.63441925755107
P         2.37985021369474    1.17564450666702   -1.15294472254421
O         5.32101296060010    2.09501653033047    0.28621077742980
N         5.15230754433891    1.12623047202244   -0.44331374358360
C         2.98526735881697    2.69977195864869   -2.00855236561912
H         3.80156049069330    2.38223775176037   -2.66444035960122
H         3.42915810357630    3.33164335640118   -1.23319493655746
O         5.76107044770673    0.93148326180549   -1.48735740003772
C         1.95765661424165    3.49298910319478   -2.80353170957471
H         1.14234325432393    3.83670431530348   -2.17161633416444
H         2.43707345896266    4.36946356517273   -3.23521046326245
H         1.54396685555023    2.90434680274348   -3.61868954050883
C         1.54974637816284    0.20032744169902   -2.47561357901859
H         0.86159447856415    0.83456929541450   -3.03913210193746
H         0.96792462696137   -0.58203418296345   -1.98104883904770
C         2.60143716007333   -0.43822545381861   -3.37617989924036
H         3.29765870015687   -1.01755425952072   -2.76602307531537
H         2.13868749208232   -1.10903607954976   -4.09638805236572
H         3.16719577339630    0.31642718698318   -3.91847615469764
C         0.97130358038000    1.75388193345124   -0.11746618488027
H         0.42732201615178    0.86412376284764    0.21063688538575
H         0.29218568112914    2.37092523237888   -0.71029516423607
C         1.50383267055674    2.50345686730357    1.09878567425390
H         2.01622930435543    3.41734330234803    0.80570110100993
H         0.69513921475813    2.76214162092595    1.77844901728761
H         2.21257296762550    1.86835172463333    1.63447794887132

