75
CSD_code = ACOWUM | q = 0 | S = 0 | Stoichiometry = C36H30As2N2O4Pd | MND = 4
Pd        2.62548423708517    2.45306754668964    4.62078010592388
As        1.73633744311391    3.80580980858317    6.34019790205666
O         3.68903539251063    4.20648005311183    2.89698182650591
O         4.46877314280150    4.33327616631245    4.91437595920588
N         3.72912449289181    3.83450968317010    4.06653715232356
C         1.57902173860057    5.74410820621633    6.43074696546153
C         2.73772950116856    6.51560778637506    6.45612768783870
H         3.70513560841754    6.02583202365260    6.42816494899552
C         2.65071602851798    7.89521761241607    6.50213802768674
H         3.55245862978931    8.48938122085676    6.52104848692556
C         1.41104598631176    8.51433873839571    6.51873232732693
H         1.34553314608504    9.59181279703997    6.55329915746519
C         0.25529008477262    7.75225619226848    6.48654115298179
H        -0.71186200692799    8.23388881783513    6.49615050675944
C         0.33644760892149    6.37075973651163    6.43927468715446
H        -0.56795065783718    5.76892251426177    6.41148113322922
C         2.97655260944458    3.45067144105829    7.78344533221404
C         2.93292330120599    4.15214161864158    8.98430779489023
H         2.18079713376086    4.92519952684103    9.12354771348754
C         3.85282685679560    3.87849231007137    9.98092525156761
H         3.81668664995690    4.42297550891634   10.91370004772953
C         4.82383385888090    2.91063856967044    9.77965888803336
H         5.54210326686084    2.69956728600105   10.55828637467642
C         4.88200631261421    2.22012529789361    8.58029477881110
H         5.64711793924640    1.47325324968474    8.42485141022205
C         3.96271821338132    2.49008892263853    7.58175391664389
H         4.01534743420359    1.94177020205773    6.62762572191835
C        -0.02238185712141    3.23801737781341    6.93863920330205
C        -0.37220509453517    3.01394491848627    8.26146318680640
H         0.36121251718070    3.17182670101106    9.04435409691257
C        -1.64503570461800    2.56339568289268    8.56975229656397
H        -1.91487239306178    2.37847906864438    9.59943438067158
C        -2.56733961841432    2.33613063045499    7.56212005152652
H        -3.55555561037452    1.97590796524723    7.80731645989011
C        -2.22187618262341    2.55454969854279    6.23797637403918
H        -2.93605963322065    2.36283087334101    5.45063184183187
C        -0.95092993615525    3.00118356680221    5.92869932331977
H        -0.65472532816358    3.15536552690437    4.88782286544500
As        3.51523005574832    1.10033842771417    2.90203710595152
O         1.56168955967776    0.70010883286790    6.34460059160157
O         0.78237096208974    0.57305877666994    4.32704239148783
N         1.52191293228127    1.07180285797522    5.17494606402247
C         3.67329980115154   -0.83790535565334    2.81164619629294
C         2.51483575110947   -1.60977219346882    2.78592337957563
H         1.54728406512136   -1.12026074518976    2.81359105354840
C         2.60229613401905   -2.98934640130503    2.73990403750028
H         1.70076023839420   -3.58380232130749    2.72069358970925
C         3.84217479500862   -3.60807165226836    2.72370239883596
H         3.90803259812679   -4.68552497640091    2.68910697055797
C         4.99767949662897   -2.84563810376194    2.75640181014915
H         5.96497880806607   -3.32698745779002    2.74718504517767
C         4.91607605297983   -1.46416080388378    2.80363711465602
H         5.82026223258706   -0.86202228069251    2.83176407937549
C         2.27528122173516    1.45468236432224    1.45834203484935
C         2.31916444976921    0.75282183808892    0.25771563490662
H         3.07152130968926   -0.02005495679918    0.11872459827714
C         1.39918137625361    1.02583801643729   -0.73901850245971
H         1.43553227234588    0.48105985756083   -1.67161316423634
C         0.42783344678635    1.99340929475851   -0.53807971697512
H        -0.29049940035820    2.20398106357083   -1.31678382149595
C         0.36941936813075    2.68431943774902    0.66105408690005
H        -0.39593946257348    3.43099379779768    0.81621353099284
C         1.28879474759858    2.41502227175781    1.65968455920489
H         1.23599627612419    2.96361556048044    2.61364876824714
C         5.27377014789571    1.66899263438893    2.30379417358389
C         5.62375220714554    1.89291858166484    0.98098325627072
H         4.89079045611537    1.73375990068150    0.19792288330194
C         6.89613790506812    2.34486476040547    0.67288546659397
H         7.16605858307040    2.52970669861439   -0.35678289775458
C         7.81781538582316    2.57374883902431    1.68069935849159
H         8.80559046511950    2.93531012447985    1.43568142433605
C         7.47223617546534    2.35536597805262    3.00481474944240
H         8.18587854158567    2.54845214392948    3.79231677060423
C         6.20177043760391    1.90724246056064    3.31389097205322
H         5.90546549514902    1.75310788166725    4.35473866809160

