53
CSD_code = ACOYIA | q = 0 | S = 0 | Stoichiometry = C21H25CrNO5 | MND = 9
Cr        6.56971316109440    4.43824702319448   10.27405917907955
C         8.85824234138915    2.48187230598703   12.04179753482673
C        10.12579438736937    3.30315367936207   11.82386743585795
C        10.73556934950803    3.02222160265636   10.45490578255816
C         9.79238165452617    3.34747235364203    9.28578937589561
C         7.38115593710122    3.17613406230512    8.58789022029094
C         6.04261876415554    2.80798989072404    8.76132672761094
C         5.61604269292513    2.40772892127754   10.04593745112616
C         6.53956632875125    2.34811851984962   11.11198954290647
C         7.89758404106255    2.69535628544010   10.90068647762867
C         8.33620522685615    3.09317204739699    9.62388924247696
C        10.02857409631498    4.75633000069114    8.67645962476326
C        10.05060866264083    5.88223841777031    9.72216225426292
C        10.15826981090978    7.16442071567398    9.07376023539313
C        11.31908820911626    4.77653126553354    7.85567449091914
C         9.14231504058795    0.98107858256736   12.18995388930881
C         5.19119910964309    2.67457004953013   13.03672507549300
C         4.10419711839657    0.64400658683950   10.44726837587253
C         5.08307410610027    2.80224104481493    7.60764155843832
C         6.70248161080853    6.00407987844000    9.35137756177248
C         4.97762286118871    5.20393593538983   10.70213331590940
C         7.09075587927346    5.45301645734691   11.68743667629323
N        10.27512499666355    8.17034441500560    8.54401743774188
O         6.17268666146320    1.89816962130042   12.36125865987558
O         4.29655216413401    2.03065613339040   10.22234028126593
O         6.71629319215591    7.02384494918762    8.80820118812261
O         3.99942006300734    5.74243411935944   10.99620262894406
O         7.37000778014372    6.12615280061403   12.59007045877785
H         8.37881053849477    2.81583054433939   12.96871245765830
H         9.87582131282022    4.35930280592432   11.92656188656463
H        10.85397679336199    3.05645387547687   12.59906386878253
H        11.66312139249083    3.58450576545903   10.34558252834260
H        11.00587444495195    1.96556362452787   10.40836575272719
H        10.03566988065708    2.65022030697539    8.46988744310992
H         7.71420601737318    3.41005934376893    7.58151852594356
H         9.12176391563145    5.87460594050059   10.30399679116712
H        10.90783945543156    5.77920614756757   10.39163764424277
H         9.19958821394688    4.97404823763689    7.99473897397238
H        11.45178955741999    5.75379222730061    7.39755386657730
H        11.28483939843215    4.03064528827517    7.06407464555735
H        12.18961702264592    4.57452355432177    8.47609732582469
H         8.22975150339634    0.46231579536513   12.47204642127366
H         9.88805521200920    0.81612643623010   12.96394573665635
H         9.50510289319748    0.55315145833303   11.25783150064142
H         5.54736192372941    3.70196652010643   13.17355972552225
H         5.05418328494724    2.19359436507856   14.00337191269339
H         4.24310403828506    2.69743179662598   12.49579508527322
H         4.42932365647034    0.06042176132033    9.57873949713431
H         3.03404542107898    0.51251989636470   10.59251780135671
H         4.64152594522588    0.29782629458068   11.33433872571942
H         5.29548376985571    3.62583105324746    6.92899545443681
H         4.06208831232089    2.89762701252510    7.96956699255904
H         5.16481084854481    1.86781228285682    7.04757675285034

