52
CSD_code = ACPMNA | q = 0 | S = 0 | Stoichiometry = C25H20MnO5P | MND = 6
Mn        0.98728376903918   12.35970790777785   12.65741876434601
P         0.12321882000036   10.33569858183696   11.95764534417005
O         2.08964486200140   11.00577809991338   15.00932506265756
O        -1.57084641845512   13.30312090999943   13.74047353554544
O         0.86506448370275   13.22788824499179    9.85575703261575
O         2.01824181182803   14.96995783563314   13.50362163178060
O         3.93945874658419   13.75372130785706   10.85240156640139
C         1.61578869054617   11.55060805038737   14.11911818807016
C        -0.59216137656425   12.89290646734576   13.29824750220922
C         0.86791336785713   12.92323824355382   10.95421287658869
C         1.64975668310956   13.94155479755166   13.16137327652157
C         3.01405477883324   11.80815048597093   11.84675767871023
C         3.89180998443177   13.00210381806667   11.80537006970606
C         4.78979969066384   13.20306301988238   13.01332211626810
C        -1.43110800662578   10.35275628843440   10.99762670196480
C        -2.09758662887762   11.53567352754983   10.70415456831456
C        -3.27882232712197   11.50829984202181    9.98190875712972
C        -3.80216049277989   10.30206638531380    9.55094561976214
C        -3.14250625771099    9.11786161527339    9.84368388283702
C        -1.96496683538350    9.13946250397609   10.56459157234105
C        -0.35820615487136    9.14456250951057   13.25769934909069
C        -0.95632508644219    9.65370156181079   14.40732254706485
C        -1.39979553530831    8.80339392263776   15.40283227129115
C        -1.25156327592572    7.43369710446327   15.25995905886301
C        -0.66492197096781    6.91995299201582   14.11566615324770
C        -0.22304586962245    7.76629480517247   13.11439611366909
C         1.21717876308742    9.36352024904432   10.88250445422707
C         2.27600765385800    8.65911499858210   11.45415386799567
C         3.17821203092452    7.99280325574504   10.64729889075280
C         3.04226432306080    8.04051025270246    9.26829116205131
C         2.00618741690358    8.76041200964675    8.69657717091996
C         1.09680823801568    9.42778733059182    9.49792798542843
H         2.89640703768749   11.42464230316434   10.82704503551489
H         3.46806491600619   11.02569031333230   12.46191709177402
H         5.70647852575160   12.63734007950921   12.84779695673261
H         5.05214897473980   14.25345950721513   13.11126923294309
H         4.32333693386367   12.84795082890797   13.92905418203559
H        -1.69485849724493   12.48412987427750   11.03607942883131
H        -3.78860161052549   12.43306376833683    9.75662989935145
H        -4.72306912551262   10.28217297004748    8.98774566876864
H        -3.54878504642818    8.17489775867999    9.50869263375751
H        -1.45271467697838    8.21489011124678   10.79006879596236
H        -1.07004644589702   10.72466072957483   14.52199191985453
H        -1.85810907537946    9.21042506028860   16.29170396563842
H        -1.59097088880378    6.76794922697021   16.03915756549574
H        -0.54839508560022    5.85232485480831   13.99982206554086
H         0.23972181604170    7.34823903123754   12.23139799650018
H         2.38458761239401    8.64037135754063   12.53173700778413
H         3.99394601611371    7.44236057780289   11.09249935195210
H         3.75158423845169    7.52409348268081    8.63913051847810
H         1.90981635123942    8.80985591075538    7.62218878220481
H         0.29558015229037   10.00181332836228    9.05178712833980

