75
CSD_code = ACUCAD | q = 0 | S = 0 | Stoichiometry = C26H42Cl2N2O2Pd | MND = 4
Pd        9.40960662551632    9.45743683936009    2.70145534017048
Cl        9.89239569000650   10.62451849799779    4.63597222568150
C         5.56751180918736    9.33829452304055    5.14039293833893
C        12.19376896625444    9.60314757377366    1.36932968908574
N         8.70403857979217    8.05484881902475    3.88844665661637
C         6.95196934412439    7.62979397244972    5.69102530101312
H         7.26414326037265    6.61773089402749    5.93705366032474
C        12.72995265419274   10.28263101648453   -0.81978624889169
C         6.67871127792330    9.37641320443749    4.11420947745667
C        13.40539402737722    9.77559790906655    0.47867498026455
C        11.25715941919484   10.68625218807884    0.96996139516658
C         4.32912738139962   10.12203878731482    4.76293562407106
H         4.59450986668739   11.16298355694350    4.59438766279361
H         3.58715059920294   10.07304483027413    5.55632298237264
H         3.89621033701187    9.73024601005168    3.84591496336980
O        12.02870941811008    8.80420172237152    2.26393731184673
C         4.52178187302780    7.40357416575449    6.50649942018007
H         4.63763145403318    6.34146934817069    6.71331086471419
H         3.48846863599975    7.58018744822995    6.21728214720060
H         4.71764805222331    7.95232777244950    7.42108237795874
O         6.81429473837768   10.14016911252093    3.18502541854592
C         5.45273656373232    7.80988531119735    5.36996113884653
C         7.59792877600816    8.26642969910531    4.48979113246143
C        11.98379199150221   11.43864542402888   -0.11433769242678
H        11.37126377175192   12.05939982414630   -0.76330706796999
N        10.12752027044591   10.86678745018907    1.53793295196871
C        11.76612396087569    9.26639160662196   -1.43157681924184
H        12.31522967559775    8.41606078802767   -1.82908829276930
H        11.21637598687184    9.72451885868972   -2.25179117451919
H        11.04146301838211    8.89493993436310   -0.70851815742553
C         6.28468375260711    9.83187167973542    6.42141967455165
H         6.85637445844963   10.73724254543338    6.21813511858458
H         5.55460998694262   10.06160384454469    7.19675040094962
C        13.69930196758967   10.74381611062460   -1.90286465191570
H        14.46091725470338   11.41851001467148   -1.52718646637789
H        13.15003144115613   11.25346811998052   -2.69187945688091
H        14.19496243923425    9.88090477928668   -2.34124058706241
C         7.20377510976786    8.66031944286326    6.81138831024069
H         6.94865210184078    8.24046351014916    7.78367975649013
H         8.24892823936107    8.96731366420421    6.83706503310013
C         5.04509844233198    7.04899970089697    4.10793610307083
H         5.14108064862736    5.97696540214042    4.27125379281336
H         5.66584447081402    7.32048607326533    3.25567291253941
H         4.00864612385684    7.26054235263305    3.85527834146487
C        14.06023992959046   11.05763696395642    1.05305565662442
H        14.15350913944130   10.99022583295998    2.13707230408966
H        15.06109010231434   11.18287539814052    0.64121942702423
C        13.10931096457359   12.19007279960113    0.62314428463594
H        12.71937391304211   12.74335715260562    1.47787781172006
H        13.59585797262821   12.90215744187647   -0.04236909001473
C        14.31814678957605    8.57029034420651    0.41379117304291
H        15.18451006010764    8.77727848405587   -0.20997747731951
H        13.78384281177223    7.71488901274446    0.00848216300567
H        14.65810638245702    8.31499189925698    1.41478444117496
Cl        8.88602403844915    8.28272888875438    0.79164803608371
C         9.55909292973533    6.94365608945154    4.27277662434816
H         8.97944846779606    6.23573484730835    4.88229999335197
C         9.28143286928392   11.98442629019095    1.15097481937021
H         9.87428809856860   12.70013466465784    0.56384753460286
C        10.73990509061810    7.46652297307829    5.09605341823749
H        10.39447277689119    7.99596741307012    5.98149556212575
H        11.33603859169746    8.15015180992845    4.48954091349754
H        11.36225005893114    6.62947035903399    5.40304954221232
C         8.74376336198492   12.69419111990874    2.39266681629037
H         9.55782831992391   13.01402207456678    3.04040111081338
H         8.09282757295496   12.02134401081896    2.95320105234130
H         8.17062539957088   13.56689229689180    2.08776870027799
C         8.12020299637917   11.46138469329970    0.30075091833513
H         8.49014603805081   10.92104733468706   -0.56870240259292
H         7.50920319239910   12.29756629793983   -0.03063217700440
H         7.50525679524756   10.78473352760375    0.89677012073842
C        10.07233400506903    6.22457235127615    3.02619566966998
H         9.24532367714521    5.90213164093523    2.39649567218432
H        10.64994731193914    5.35279367281237    3.32509261669680
H        10.71347587939317    6.89287798574406    2.44861627566486

