28
CSD_code = ACUFOW | q = 0 | S = 0 | Stoichiometry = C13H9HgI2N3 | MND = 4
Hg        8.63993412338488    7.38405736869944    2.90635133100894
I         6.37157897611082    6.80058722240613    1.75472913044278
I        10.77179557279966    8.80546065495157    3.39712847123581
N        10.04984260819874    5.24073081409336    1.87210699034219
N         9.00008827210276    5.44900875144912    4.25510330092380
N         7.77661070616878    6.86717654279503    5.51951061907432
C         8.25787551515759    4.65553365443013    6.40539884386305
C        10.27576109981584    4.21864251041439    2.70601817098102
C         9.59012083667335    4.30086408254590    4.00763271466658
C         8.34419137014204    5.65256416523685    5.40130255798356
C        10.63066724488990    5.24328079845609    0.68800873758169
H        10.40951959936512    6.09124976157372    0.05293818338217
C        11.72824761630450    3.17637471912617    1.11407333119163
H        12.38820567425855    2.37211427435181    0.82473234622179
C         9.54251488741017    3.24299226291985    4.94494472846969
H        10.00925568514495    2.29726871199316    4.72379502205932
C        11.11865306030005    3.16565849344291    2.35824475485390
H        11.31169410796206    2.35769024647532    3.04509078660151
C         8.88475243280389    3.42290205485849    6.13145410700911
H         8.83320165612836    2.63001983930564    6.86419915141865
C        11.47898743775376    4.23231152625601    0.25532511826688
H        11.93032158537045    4.28037557576684   -0.72243877121602
C         7.54642889029750    4.98154546440344    7.57675493961843
H         7.45767002812924    4.25121333010262    8.36832534236294
C         7.12157441709962    7.13656070523796    6.61587074315836
H         6.67642560474125    8.12069390040131    6.67593240251563
C         6.98071915754535    6.22472152946881    7.67926182251953
H         6.42756183394846    6.51690103885343    8.55760512346806

