29
CSD_code = ACUFAF | q = 0 | S = 0 | Stoichiometry = C12H10CrO6 | MND = 9
Cr        1.24222750430763   -0.05076032957257    0.16349970329730
C         2.97536584573645    0.82264018902802    1.38334067127997
C         3.24801717577067   -0.55073628382585    1.11407887129472
C         3.24354029141683   -0.99797827984252   -0.23304404885664
H         3.53238824396427   -2.02872165101526   -0.40844954872355
C         3.01603239691273   -0.12081395676345   -1.28723597320058
H         3.10056072009314   -0.45376481327865   -2.31393593128465
C         2.68883210262616    1.21611968126394   -0.99861248758461
H         2.54967629305905    1.92213653322350   -1.80923482981011
C         2.71849607861779    1.69999425286980    0.32013275359170
H         2.59619990558290    2.75830512326202    0.50872339210096
O         3.05303152191903    1.21201456856707    2.68594707073401
C         2.52526201440483    2.46832540863059    3.05454035371767
H         1.50814485152170    2.58884093969030    2.65727798040727
H         2.50135204946630    2.43428688842496    4.15332818287922
O         3.26438269009338    3.54453478667045    2.59207049893016
C         4.52594161060315    3.69167599459230    3.21865825207043
H         4.99170416325027    4.56122519600297    2.76153434496888
H         5.15214010645033    2.80925781059767    3.05848413710054
H         4.40488289053800    3.85676089123925    4.29388946707257
C         3.57303294184770   -1.49372524508145    2.17637326045156
H         3.53932515964604   -1.06313917794092    3.19268455822127
O         3.87053870939693   -2.65361204658378    1.99060451809855
C         0.08353824736515    0.28575537080448    1.53550679901978
O        -0.68873196898294    0.51047897800841    2.36133964772147
C         0.34679289149831   -1.64563731200114    0.03647138948541
O        -0.28450240116710   -2.60174168586447   -0.04970930710847
C        -0.17388959145354    0.54094610466405   -0.82270689485610
O        -1.10858244448466    0.88513206423046   -1.40285683101880

