102
CSD_code = ACUGUC | q = 1 | S = 0 | Stoichiometry = C46H47N6NiO2(1+) | MND = 6
Ni        9.89072701598925    2.55599874437829    4.61780157440589
C         8.18882916102153    3.47948650021645    6.87880201762253
H         7.36769164058895    3.01137612274131    6.35669889726674
C         7.96297687810841    4.13379749364807    8.07563319335288
H         6.96714214072699    4.17949945287411    8.48521347402403
C         9.03397178492057    4.72479209176561    8.72939900740189
H         8.89469598861055    5.24699240370215    9.66301937614924
C        10.28751357089763    4.62292816079686    8.15561874876399
H        11.15276742565249    5.06034303399922    8.62872977256640
C        10.42910691368665    3.94411593454787    6.95141101331910
C        11.76295140087493    3.79820101936916    6.28349390715926
H        12.09309407877028    4.78392350917569    5.92250596373578
H        12.51122255430093    3.45309554326448    7.01088986513561
C        12.74298455824587    2.45677106121516    4.61653263297233
H        13.69865917835487    2.82210458102047    4.99744593642415
C        12.80203294670553    1.51451132453544    3.56428304335488
C        14.03445888067639    0.94550097913170    3.18604869808395
H        14.93496309492213    1.29952318584744    3.66757667956015
C        14.10453540332908   -0.05296203674463    2.25052828829705
C        12.89867356911902   -0.53550054244249    1.70747954494478
H        12.94340326598242   -1.36037391453292    1.00848086312162
C        11.67796382052556   -0.00816668297491    2.03540635479586
C        11.58966730477908    1.10278586959948    2.93096256706952
C        15.40506793209026   -0.66150212361606    1.82739852349644
H        16.23691221361787   -0.21828481980350    2.36768500167475
H        15.56301202478699   -0.50730694232518    0.76083537055780
H        15.40439686868230   -1.73548273592096    2.00947963703363
C        10.38367973555282   -0.59946445031286    1.55086769888934
H         9.73037053678655    0.21361423246946    1.23018675309194
H        10.56186400931339   -1.27017578772874    0.69611949392705
C         8.28648014949796   -1.42225387657350    2.46776882209799
H         7.89108896830575   -0.41365606817157    2.31710505146657
H         7.85696297825583   -1.81107377844234    3.39457306024222
C         7.88916620538909   -2.31268929975715    1.31521845742356
C         7.78739909685749   -1.80829389445727    0.02399900597316
H         7.93872393280836   -0.75265315318174   -0.15219632821533
C         7.48234983084189   -2.64052701032077   -1.03829190158337
H         7.40518855511640   -2.23262335352902   -2.03518960082149
C         7.27465295113307   -3.99252946591159   -0.82472059563637
H         7.03903554339191   -4.64266908844170   -1.65347417255936
C         7.36125131145897   -4.50457391309212    0.45823501578900
H         7.19003352966929   -5.55623066045511    0.63407428372766
C         7.66485436768585   -3.66962014916990    1.51944987276565
H         7.71448822181886   -4.07475285124347    2.52102370076915
C        10.40557293558365   -2.51985952069673    3.00717490956342
H        11.47591402216552   -2.34925384784226    2.88249752144589
H        10.12099725656363   -3.34537700340685    2.33378998840714
C        10.14230163466821   -2.97044812759086    4.44641402993737
H         9.06606466719452   -3.06019362297310    4.60300215539311
H        10.58000129541435   -3.96945881520082    4.58417164391827
C        12.10298822847435   -2.11136492213900    5.65184770374942
H        12.58238337681650   -1.86228628110736    4.70138691403843
H        12.36920356142560   -1.33334590629344    6.37381237198630
C        12.59462573932213   -3.45261627689404    6.13755146582128
C        12.56689813437094   -3.77508714784834    7.48921665151739
H        12.23892151750181   -3.04000612259632    8.21070894350047
C        12.97087147007041   -5.02500330638004    7.92416689287817
H        12.94712680566226   -5.26028150758551    8.97769105576043
C        13.40794356572695   -5.97048128289586    7.01208715776551
H        13.72301370236305   -6.94531343356746    7.35128853192684
C        13.44928777434763   -5.65647198907718    5.66447478385897
H        13.79906869959853   -6.38560193528995    4.94924037732487
C        13.04548579502544   -4.40572108374624    5.23125505968627
H        13.09173292430144   -4.16137052756250    4.17898393882499
C         9.86274285030441   -2.07055958704413    6.67111008391117
H         9.74193660692880   -3.09110600160526    7.06073412766264
H        10.38666979884103   -1.48109845075808    7.43139265278751
C         8.50908530818394   -1.44613798066472    6.42108553796210
C         8.46667850195537   -0.23451281625286    5.71101424413406
C         7.22478376806428    0.32681455759818    5.36626201131575
C         6.05475959955788   -0.29522650252258    5.82981131708052
H         5.09955496109669    0.13918396376643    5.57172418815720
C         6.09147089775159   -1.44427854544524    6.59124684754819
C         7.33474507669477   -2.02574406832969    6.85483249664199
H         7.37369321263465   -2.95250432091328    7.40959232239683
C         4.84151482416811   -2.09238472100496    7.09816349956964
H         4.84903410493544   -2.12715960026988    8.18652227453089
H         4.77049120259501   -3.11655709336110    6.73588789493377
H         3.95914537958660   -1.54783859670627    6.77467272471984
C         7.10053268135867    1.40046176934747    4.40988835321772
H         6.10103630527601    1.45373236441152    3.95761270065331
C         7.65979532520499    3.03819535461728    2.85949833820414
H         6.58065775564868    3.02123771023807    2.64991795367362
H         8.18802298816029    2.61215618122909    1.99454722110212
C         8.14219323595671    4.45962920226071    2.99493251994288
C         7.43251639072458    5.51263889201084    2.42987155816222
H         6.50018679477405    5.33020155541912    1.91829120151693
C         7.94601496902100    6.79439599117299    2.52873192610457
H         7.41917906670434    7.63153124152870    2.09688346579366
C         9.15016838011237    6.97883333443276    3.19018961003652
H         9.58945323496559    7.95869707305170    3.28442670258825
C         9.78042297966756    5.86995461295931    3.72889601667248
H        10.72220446757467    5.97397943636105    4.25064153992167
N         9.39265282177093    3.38598381488585    6.31788960542627
N        11.65393427987825    2.86488594738983    5.18054889888210
N         9.72672994624993   -1.28121911390930    2.66497858634393
N        10.65445125232945   -2.03091737227185    5.44074207990532
H        10.26586652101505   -0.39527805371260    5.18119617839929
N         7.99769105613992    2.20911514448418    3.99458334974361
N         9.29348854182847    4.64006830317978    3.63770022550277
O        10.46417666632490    1.68683954304639    3.09663226175284
O         9.61050359957946    0.34773484692572    5.33247681615830

