52
CSD_code = ACUGOV | q = 0 | S = 0 | Stoichiometry = C18H14LaN9O10 | MND = 10
C         7.28995737554435    5.03340538015095    3.86133005887997
H         6.79484240612721    4.74175874002569    2.94417579836008
C         8.58475124634939    4.61003025396695    4.14503388094450
H         9.11376289830292    3.98563942968701    3.44245323221629
C         9.17748942636475    5.01131198116101    5.33045313450132
H        10.18602440791975    4.71301157398942    5.57557959803891
C         8.44652684341243    5.80297904201236    6.20056799243819
H         8.84239974762788    6.14446837607406    7.14253582515351
C         7.15847450946393    6.17639102037902    5.83073417474348
C         6.33033180105204    6.99595161270915    6.72615990971018
C         5.98406216520405    8.02123617747142    8.69971702385592
C         4.36323056933468    8.02129691548313    7.14174727183292
C         6.48214404486086    8.44268173767339   10.01159881782311
C         8.27065910205150    8.73266040922582   11.56569364490282
H         9.31202559965026    8.65099712698560   11.84100161407535
C         7.34428807186189    9.26124715624109   12.45067410159494
H         7.63952363604943    9.59940847560160   13.43167341147898
C         6.01730779058451    9.34783644540786   12.04195715156522
H         5.25738607953988    9.75301055109424   12.69717510280179
C         7.83681399278135    8.31235434653851   10.31989356580876
H         8.50963904976131    7.90192247144207    9.58565521748543
C         2.99755695241381    8.36267040951356    6.71670851134761
C         2.12462595489381    8.96912218878861    7.61619098093126
H         2.47996893520043    9.20860042537685    8.60562944597310
C         0.83152906418656    9.23751956488985    7.19983405483252
H         0.12615977087483    9.70959233142891    7.86727622723300
C         0.46433900577383    8.88006233382580    5.91262755509124
H        -0.53516338648113    9.05981712166589    5.54937279551492
C         1.40878544593303    8.28584977908003    5.08316265180009
H         1.15556262865604    8.00154589206938    4.06940122092862
La        4.63502180976694    7.49131078089157    3.79214236917616
N         6.59146098970961    5.81176531156556    4.67339364780232
N         5.12470914943454    7.35303592617008    6.27236547182477
N         2.65427044647364    8.03642340253558    5.46461815278356
N         4.75126327657769    8.37527320061871    8.35299303178794
N         6.78961897608286    7.29237655633298    7.93087566012746
N         5.59402160969948    8.95310007671603   10.86048194531737
N         3.01723675930189    5.63396270666129    3.10980524699299
N         5.53652563929135    7.44745170140841    1.33872657392528
N         6.52189938206342    8.94391237802388    4.66466692669402
O         3.70598474235328    5.52574165203186    4.13435282336858
O         2.84523196456794    6.77832044258063    2.66116159958029
O         2.50935226556097    4.68616584042824    2.59631825581912
O         4.96921984438524    8.46550481641443    1.76107830803922
O         5.43450766501934    6.41658160179628    2.02206785549689
O         6.13440022393450    7.45144962683019    0.30815878372990
O         6.81473276797533    8.21891220163835    3.71733518324270
O         5.39921857388515    9.45854106358125    4.67187350644279
O         7.29576832275240    9.14330467084466    5.55917610914051
O         3.01502847507217    9.66435535814170    3.15550938373190
H         2.90365666843741    9.47376315904416    2.21267840050662
H         3.65336531235013   10.38866825578941    3.20420679260357

