32
CSD_code = ACUGEN | q = 0 | S = 0 | Stoichiometry = C15H9HgN5S2 | MND = 4
Hg        4.12184933653107    0.69694007919060    3.95221919261597
S         3.28266302300859    1.25184977557353    6.21414067834657
S         4.72420109770673   -0.83071487207918    2.11111086677269
N         2.00980690859656    1.69629569609777    2.59541635738311
N         4.37304502687799    2.80634038466020    3.00550765945260
C         0.94724248899838    0.99490255820479    2.23971943286860
H         0.76683396112859    0.08802530411750    2.80333092682674
N         6.28017637989454    2.46537635227441    4.16625311849357
C         2.27759776048610    2.83605569968138    1.94448393284468
C         5.49606207906476    3.33555499950745    3.50202676800820
C         3.48697685590051    3.55168943934355    2.38513432893291
C         3.51603057016781    2.86472407517772    5.93316526707504
C         5.79874119737124    4.71154386104157    3.36032552251911
C         6.99482882814817    5.16642049644134    3.94899199673720
H         7.26561637745663    6.20949558677771    3.87275588638399
C         3.70528862132766    4.93380837874429    2.19691553101788
H         2.95795351115761    5.53623422310009    1.70631433600118
C         7.78219236618985    4.26812673943342    4.62031186744740
H         8.70237770293123    4.57568539600762    5.09149940041432
C         7.37914512419321    2.92284087130328    4.70736104235301
H         7.98491113347855    2.20428294578616    5.24321349990790
C         4.36968246637004    0.35508507226471    1.00999512586443
N         3.68251080096371    3.99310356685032    5.76987010570627
C         1.47966229695175    3.29153781581810    0.89976452424736
H         1.73672997877601    4.19245255784899    0.36708596753617
N         4.11685209526393    1.15160440888490    0.21773025839748
C         4.85177780501866    5.50473844740581    2.67986175161765
H         5.03576199568747    6.56346373075662    2.56656986610142
C         0.37641896322073    2.54334912718588    0.52367496929283
H        -0.24882627914717    2.86612043008688   -0.29526873703266
C         0.09591543278562    1.37562101696944    1.21152307835595
H        -0.75462590653066    0.76444583558243    0.95519547751122

