55
CSD_code = ACUJEQ | q = 0 | S = 0 | Stoichiometry = C22H28N2NiO2 | MND = 4
C        -2.37631538211004    6.57854754692763    8.47059407593656
C        -3.07652224590830    6.51216210524139    7.22670922665649
C        -2.53541443535770    7.08751565214844    6.10532265073160
H        -3.07293455385260    7.01634445073171    5.16963839109883
C        -1.31297373521527    7.76694620003622    6.13522226500304
H        -0.91606777627569    8.19825101394832    5.22916833400498
C        -0.64912256385366    7.89571440007688    7.32337912765393
H         0.28215664426354    8.44227793999798    7.37679951175467
C        -1.16637517499638    7.32708514492017    8.50143403177592
C        -0.53619981896853    7.59398052859826    9.74348320116318
H         0.29380656183069    8.30474289290296    9.68502659536559
C        -0.21109322034448    7.79547623729502   12.03500353567075
H         0.71150726915639    8.28993473368102   11.70223951590284
H         0.03469615442649    7.04415865587819   12.78471035813432
C        -1.15670652095769    8.83588988814917   12.64807917278650
H        -2.04280507406835    8.31514695746810   13.02082290910282
H        -1.47825110308694    9.52690817475066   11.86393211244247
C        -0.49191276056669    9.61732487527032   13.77250414354741
H        -1.18579842471994   10.34345674340960   14.18896909121447
H        -0.17345430804659    8.95257144832611   14.57192279180929
H         0.38264905525708   10.15051399080576   13.40485511466129
C        -4.39517187092577    5.80246998074477    7.17918597490778
H        -5.02211806112988    6.12511535970448    8.00913088689913
H        -4.90998632360774    6.00770334206782    6.24386443511969
H        -4.24749597986263    4.72633997750532    7.26616922483502
N        -0.87210619318622    7.15626439427517   10.91148069539814
O        -2.86154378801523    5.98639045013118    9.50298656298947
Ni       -2.22799099548080    5.76936111477827   11.22374935257195
C        -2.07991012361137    4.96027505939441   13.97695373727014
C        -1.37978663601199    5.02662734145414   15.22087665502835
C        -1.92084229722471    4.45107627549117   16.34218078257657
H        -1.38344618637236    4.52233326745083   17.27793192175185
C        -3.14324601390267    3.77157913107057   16.31217977809683
H        -3.54021762168643    3.34025951314140   17.21820029625491
C        -3.80700757159174    3.64280570990904   15.12396890011962
H        -4.73823216713177    3.09615077826154   15.07045895247357
C        -3.28972276614856    4.21153165346711   13.94597056659613
C        -3.91969080935204    3.94450842132073   12.70383866082617
H        -4.74961512825490    3.23363890060844   12.76220906329667
C        -4.24439754818379    3.74291240426517   10.41225258246491
H        -5.16696496538701    3.24828887638616   10.74485735394538
H        -4.49019425262791    4.49419550125468    9.66251418016719
C        -3.29847855034539    2.70268737394898    9.79932783260450
H        -2.41239582671469    3.22360046084646    9.42677762849124
H        -2.97696585178120    2.01170345263365   10.58351802287365
C        -3.96287469611005    1.92115569163372    8.67473580928073
H        -3.26875016030293    1.19516515681103    8.25842585155604
H        -4.28127177501439    2.58584903297411    7.87524023237104
H        -4.83741748104362    1.38778809136402    9.04216830677992
C        -0.06127637835047    5.73637047883531   15.26851601019824
H         0.56564902226782    5.41444978321580   14.43842204975465
H         0.45383922477897    5.53077023864410   16.20346167107072
H        -0.20884351033455    6.81246031704856   15.18224075693723
N        -3.58367856715161    4.38224493263384   11.53587942430809
O        -1.59461673680700    5.55247795616439   12.94460968376799

