56
CSD_code = ACUKOB | q = 0 | S = 0 | Stoichiometry = C26H21N4O4V | MND = 6
V         9.29380317475499    1.27689479176650   -0.04484242758729
N         9.99164908819011    3.41796269145272    1.12977031981843
C        11.32274728429451    3.32923047352383    0.96127802414978
C        11.83269001415429    2.08357158060435    0.45890341216262
C         9.48203426876635    4.54668907740703    1.54938422234359
H         8.40469931720016    4.57453822427479    1.66848537418866
C        12.20639589368020    4.40173930077484    1.24887548248967
C        13.20851590479886    1.95900589380772    0.29396301722283
H        13.60122045346655    1.02570247204636   -0.08326003837237
C        10.26163132745254    5.67764482357607    1.84381255169130
H         9.78232141318734    6.58365957792218    2.18158312503642
C        14.06647481461690    3.01858467817332    0.59615448206421
H        15.12857507539887    2.88375725093116    0.45112412283607
C        13.59035675267092    4.21869951845147    1.05957777460603
H        14.26176979147168    5.03564124921898    1.27855347222582
C        11.62172323698087    5.60257177828100    1.70224042580426
H        12.25630765722934    6.44819295358693    1.92860244797849
O        10.99662277842550    1.13890396024454    0.17347146735152
O         8.79423384897069    0.06470098988180   -0.82846937675584
O         8.76284824821090    0.95512576542408    1.56619302882975
C         7.68808663553637   -0.42714035415224    3.14686464113927
C         7.63492460095020    0.53557799717658    2.03024150912570
C         8.82152247554086   -1.23651337643279    3.24751139649831
H         9.60282163136817   -1.12827174751590    2.50492216728108
C         8.92582441984479   -2.17021022198263    4.25999517514260
H         9.80218981128374   -2.79786098138192    4.32574294264349
C         6.78287633392250   -1.49642995226651    5.10210677834669
H         5.99180236183384   -1.59442643450801    5.83109593770328
C         7.90671682234791   -2.30245425579439    5.18989642437010
H         7.98828462708985   -3.03070327865320    5.98315047026896
C         6.45507954019899    0.98853215046297    1.48143101106237
H         5.51025985401781    0.67313376009108    1.89294362375506
O         9.64149202228737    2.50999627949675   -1.36993703398943
C         8.84770089650652    4.01538922258509   -3.02748488600568
C        10.14020543705301    4.09907048428440   -3.55423321669281
H        10.92671867883862    3.55725128483949   -3.04757901670741
C         8.65423252399768    3.17662432077736   -1.84564830238508
C        10.40879352749167    4.83625936206295   -4.68530862524007
H        11.41275160870785    4.88902600879976   -5.07705077719092
C         9.37045340351252    5.50489799623773   -5.32447097444511
H         9.56743437946648    6.07814226617915   -6.21871610311493
N         7.48684406143877    3.08073332427697   -1.24748001058104
C         5.15078027977761    2.49120569179976   -0.07245220071171
H         4.32732553359931    2.18501373108882    0.56507556071524
H         4.95295227679333    2.17324334071550   -1.09564810166170
H         5.22984458753750    3.57761495175466   -0.07337110698328
C         7.79487635626039    4.70615589013954   -3.66748995176211
C         8.08966288385961    5.43844007137599   -4.82561972866357
H         7.28401296742425    5.95776095918208   -5.32567283892832
N         7.55322139320692    2.20253990164071   -0.23486636305312
C         6.44700186217563    1.88829103736251    0.39102662270351
N         6.53484626651363    4.71205719114440   -3.15707775954133
H         6.36398498134023    4.04476039606489   -2.41541447347352
H         5.78047651797503    4.98332526897525   -3.76411108343428
C         6.66907863623573   -0.56387017729951    4.08779154920483
H         5.79839946014243    0.07202084012133    4.03933583652139

