130
CSD_code = ACUKIU | q = 0 | S = 0 | Stoichiometry = C50H52BF24P2Rh | MND = 8
Rh       11.27429557806883    3.94902751846197    9.36970631741100
P        10.25997841643929    5.89464930762400    8.89270853724428
P        11.31553298930737    3.64834602586786    7.13778449742552
C        10.15135617039614    6.16929050580936    7.05928080181696
C        11.15277615541187    5.29679781696395    6.31546372105160
C         8.52005661294794    6.19013406586247    9.42689352513568
C         7.52029693380088    5.11697586777299    8.98364442028176
C         6.09674799200597    5.62062491738856    9.21503646898636
C         7.75366120730712    3.81589781426184    9.74049448842746
C         9.87772838051984    2.74490238286577    6.41794970515126
C         9.45697077038715    1.50355507594081    7.20885747744437
C        10.39657047020160    0.33227254499806    6.95410554442462
C         8.02529324038980    1.11508883285265    6.84976996788686
C        11.23617289073638    7.34827848612476    9.46749413666748
C        10.59155819371349    8.73866298608367    9.34850523653870
C        11.66024236035158    9.76943384030644    8.98791475539992
C         9.92199241166139    9.14068981665542   10.65941110385149
C        12.87967884953104    2.92644830854596    6.46566721726917
C        12.89392802815158    2.23237371784341    5.09872618156759
C        14.23671889857728    1.51865676368048    4.94247361029751
C        12.70142058798910    3.22558024456324    3.95829721224463
B        14.86701443001052    3.83251455211964   10.54089386848348
C        13.30851484274613    3.38392147090739   10.66748537067927
C        12.78371052102771    2.14270026689818   10.27145635271003
C        11.53703820153038    1.67140682357235   10.74371844345189
C        10.71360893250827    2.47435912101248   11.52028095211845
C        11.11140921847443    3.81471111749002   11.69994432303949
C        12.40602536416132    4.24333334763010   11.33678432963246
C        11.16260223191309    0.22276039361654   10.57060591870157
C        10.31153109012305    4.69404226897181   12.62196536726296
C        14.90307594432887    5.38166393158094   10.04916446333930
C        14.55384822089298    5.71421904337340    8.74124946353208
C        14.70522184663572    7.00662342079846    8.25495142785511
C        15.09523430218903    8.04007102368729    9.09428170982702
C        15.34281659093408    7.73701468651062   10.42476103244647
C        15.28001557014398    6.42991072812765   10.88599544213758
C        14.46622921000410    7.31705227265854    6.80610098129509
C        15.64549681372785    8.87054424115102   11.36418386305424
C        15.71224601965087    2.84056581962973    9.56752861339513
C        16.37892987410408    3.24073855965269    8.41439101389880
C        17.09076507912126    2.34147746890040    7.63013906328618
C        17.17801715819729    1.00297076590895    7.97302815255272
C        16.55491147855198    0.59844882433405    9.14519288259538
C        15.84599887400230    1.49766051952441    9.92711577196908
C        17.78157066559783    2.86191210046475    6.40168358046649
C        16.60231138406181   -0.85055606084918    9.54104397086713
C        15.55825679177488    3.68272160970792   12.00675695220879
C        14.89112399235067    3.29380795008535   13.16329205233455
C        15.55698643116115    3.15185699365022   14.37373844244322
C        16.91661797078181    3.39836348476962   14.47711947493438
C        17.59150702491942    3.78675493809949   13.32941547536915
C        16.92704806488792    3.92222000218553   12.11999867120717
C        14.77593741155814    2.76467436814235   15.59790088706315
C        19.07155300573941    4.04650402368039   13.36234168563052
F        11.88292396317059   -0.39649748281392    9.63001216833591
F         9.86975505503288    0.06581827398012   10.23427724567241
F        11.33918500887117   -0.46191859630568   11.71053371279593
F         9.02564439095765    4.33371045129354   12.72285253905206
F        10.81389510479325    4.68254780527036   13.86367752457571
F        10.30739038933810    5.98194683695329   12.22863446437239
F        15.35822012883437    8.16860827475411    6.29834820461310
F        13.25032485327969    7.88460749386371    6.59355961447046
F        14.47886595181236    6.22256297400052    6.02644791869949
F        14.51478449882884    9.55376982535526   11.66319210676704
F        16.48944053642647    9.77022980240629   10.84154190064851
F        16.16241518440648    8.47666287960409   12.53077620463727
F        16.98219165505039    3.68534246965755    5.69095904657007
F        18.87844384982893    3.57854916252317    6.69622654865183
F        18.16649157493151    1.89721306372510    5.55719059484974
F        16.53115573778205   -1.03395381481018   10.86612876298963
F        15.56045080941800   -1.53231466066254    9.01326386074348
F        17.70741034477490   -1.47674151582165    9.11951454690589
F        15.50404014106238    2.09066157806055   16.49662631751342
F        14.28643078551184    3.84391643305991   16.24082640790651
F        13.71263823296506    1.99486413865335   15.30903484172460
F        19.57748918123285    4.09859184303114   14.59985210341103
F        19.39429317249816    5.20767603794254   12.76612209873647
F        19.76108370824144    3.09145563583627   12.70844617759797
H        10.33374852224291    7.22488407912946    6.84526984892204
H         9.13403536279857    5.93223883537596    6.74224080369807
H        12.13890075288005    5.75451808835290    6.34130539845643
H        10.86490591852920    5.18366933688205    5.26883612613017
H         8.50650993118051    6.26226369946550   10.51539684135164
H         8.23000428974867    7.16171358135335    9.01601090466272
H         7.64730473748205    4.92380050349625    7.91242366599495
H         5.37534342541722    4.86301193147653    8.91972775202128
H         5.94274418055788    5.84634775360768   10.26747048091746
H         5.90227098504705    6.52139176668480    8.63731064412591
H         7.11172681288225    3.02630184568545    9.35968295919101
H         7.54011587389274    3.94983944222576   10.79716951781237
H         8.79808300584288    3.50139310685750    9.62273413235844
H        10.08587516846768    2.48942044328578    5.37705780698175
H         9.05638934244074    3.46774579920940    6.43351332559863
H         9.49296264471688    1.75477296647918    8.27786756098721
H        10.09566806702109   -0.52710411595963    7.54678284017282
H        11.41857702475363    0.58899084524183    7.22287084745190
H        10.36897007387965    0.04118314522766    5.90598205391277
H         7.71427856109340    0.25333182968061    7.43385355784005
H         7.33615759139445    1.93196461993161    7.05063296976211
H         7.95561948964442    0.85723216344893    5.79506358256822
H        11.53744399374058    7.17481550980608   10.50050353825556
H        12.14305535016762    7.30130176373802    8.85884821636816
H         9.84134543374104    8.73246328898825    8.54939587355572
H        11.22107639439263   10.76283769649404    8.94354027494791
H        12.44322391699510    9.77786661532093    9.74246496488520
H        12.10364476095720    9.55021518709127    8.02082535804174
H         9.39977882341866   10.08694180240592   10.54146983714057
H        10.67353046009213    9.26158413080828   11.43564572949077
H         9.20982231685990    8.39232740926628   10.99166773822426
H        13.60470206741192    3.74446180727649    6.44124770050661
H        13.22460401648988    2.21785024469962    7.22635852349932
H        12.10297824901008    1.47927283387779    5.05760190567440
H        14.26989654631054    0.98214349806541    3.99791915717909
H        15.04861777607689    2.24034965509188    4.95227576059146
H        14.39560230856491    0.80187539609382    5.74532880420318
H        12.84681813602078    2.72713217154075    3.00308321587148
H        13.42512396080086    4.03322158881123    4.03494916026542
H        11.70084658760872    3.65022206245806    3.96599269727581
H        13.40795537688135    1.45308942815380    9.71851169976943
H         9.80182954601463    2.09566266851644   11.95880576963477
H        12.75658361992910    5.20492984787726   11.69327768860415
H        14.17992397436305    4.93856569552600    8.08886329780721
H        15.20731710179661    9.04714715210155    8.72365959217611
H        15.53177180230114    6.22769306371521   11.91596469611778
H        16.36423281321840    4.27636707707070    8.11166297125691
H        17.72426854282973    0.30215728651355    7.36177308696520
H        15.40730706312815    1.14805507950513   10.85046257870036
H        13.83168145838434    3.08594593717363   13.13990944912201
H        17.43247688244760    3.28735973166852   15.41778048968591
H        17.48603300334536    4.22336687515438   11.24636676476755

