87
CSD_code = ACUQUN | q = 0 | S = 0 | Stoichiometry = C43H37F2IrN4 | MND = 6
C         0.17965566967969    4.73080024202713    4.92224907289108
H        -0.77772743180172    4.39723258305411    5.29457296507371
C         1.03730194873347    5.44291991123771    5.70662271730745
H         0.79767887980184    5.65707556932080    6.73659040425311
C         2.22127554031284    5.96250904105604    5.13865763265793
C         2.50350116946569    5.64419374191948    3.78247078504180
C         1.64747111128805    4.71493110161617    3.11967027617729
C         3.56483777792580    6.32595595235103    3.15165245244734
H         3.70508241811965    6.21813865330937    2.08911077911117
C         4.37019686248954    7.17764279766375    3.86001084135916
H         5.17274463815646    7.69940613425417    3.36037268956315
C         4.15483864334616    7.39708487373015    5.22707461833984
H         4.81430710005128    8.05530089344787    5.77273851952272
C         3.08329719875951    6.81767647212057    5.84953679278858
H         2.86580527105027    7.02642042068299    6.88688364955301
C         1.90538301005721    4.07457039809253    1.84009837406221
C         0.75691236590638    3.49485371670132    1.24142179287839
C         0.91823623945888    2.89533425817385   -0.00530037198621
H         0.08163026694925    2.46133313642116   -0.53321889986088
C         2.16738556257027    2.82741790776878   -0.58994411636305
C         3.30850730836384    3.28968665263121    0.04476695291306
H         4.27510941868868    3.15025534270100   -0.41240315083514
C         3.16960158267142    3.91032243863765    1.26891019890399
H         4.05779644848068    4.21294535872334    1.80162771654969
C        -2.19139073223959    1.14853946055246    1.08358363867310
H        -1.62940698564900    0.57591388671814    1.80657566219748
C        -2.98984644350996    0.54027328805902    0.16138311208139
H        -3.11238042827274   -0.53165044657940    0.15602255693799
C        -3.60740887317477    1.32232117552839   -0.83940940482594
C        -3.43236597527737    2.73180524556507   -0.78446603644587
C        -2.75436992706196    3.27978771603280    0.34477473769830
C        -3.86795045642136    3.49478672171745   -1.88781275637200
H        -3.61473613748576    4.54045097644412   -1.94043727803924
C        -4.54289105353841    2.90643875905898   -2.92413654702322
H        -4.86097438694141    3.50262848594636   -3.76636422607763
C        -4.81130775360256    1.53120038058328   -2.91589797729175
H        -5.36332890615511    1.08993821109342   -3.73225029453846
C        -4.33052865229554    0.74917287258921   -1.90163348205209
H        -4.47418085692120   -0.32143750474402   -1.91197656341651
C        -2.69375780490982    4.68598563917075    0.70933872761877
C        -1.66882751592798    4.99770641743882    1.63970548613840
C        -1.52677330509355    6.33174455472591    2.01349331180387
H        -0.74951466278785    6.64508400621754    2.69515078334262
C        -2.39774973729585    7.28772602262016    1.52941159725061
C        -3.46782136665363    6.96813781586274    0.70993258578383
H        -4.16814212937249    7.73250308356477    0.41318644334497
C        -3.61356786682455    5.65701923939375    0.30641134782908
H        -4.48074844605101    5.38594644349682   -0.27563312752352
C        -1.49270565006612    1.78662221420182    4.40427695517064
C        -1.86933308470635    0.88316430819454    5.52605479319381
C        -2.50471389023214   -0.32690695643457    5.27388267386638
H        -2.72560102950687   -0.61018172502063    4.25369516268936
C        -2.85195660319695   -1.16308997804048    6.31978167026335
H        -3.34490202056898   -2.10269588738855    6.11627085919214
C        -2.56936687664241   -0.79711099450491    7.62491964255188
H        -2.84168842428294   -1.45031393934138    8.44093761957987
C        -1.93713795207788    0.40756331469411    7.88259634536275
H        -1.71567480480964    0.69560620105469    8.90011151552164
C        -1.58735945908351    1.24446586437366    6.83834035177134
H        -1.09248657553609    2.18556975187323    7.03702528246438
C        -3.51494911687837    3.10285254473499    4.58966217613480
H        -3.64738318273852    2.58694570710593    5.55622799313945
C        -4.58028099650919    2.57687200461408    3.61772470604117
H        -4.50461583454359    3.10357528604714    2.66868757086302
H        -5.57640554218928    2.72921840773945    4.02704012987203
H        -4.43582964832674    1.51279945689526    3.43887307925186
C        -3.69983861523245    4.60639989220811    4.79809708020855
H        -3.03227236522152    4.97488411678040    5.57399309178272
H        -4.72338596897335    4.82334266144329    5.09398989799187
H        -3.47715632876172    5.13209550709974    3.87232605971325
C         0.59955315855634    0.64330897879971    3.99124246599870
H         0.17764433229125   -0.15638223651224    4.62394408593215
C         1.15107200107035    0.02370551384302    2.70658168916749
H         0.38873013156666   -0.56718303726606    2.20348971555244
H         1.99503686970123   -0.62385157914901    2.93165980921528
H         1.47690716326238    0.81319301251515    2.03305936586796
C         1.73485427081089    1.32001417467385    4.77179654111908
H         2.21016346055373    2.07558187432165    4.14966869752978
H         2.48145787336291    0.58645191840262    5.06757910891753
H         1.34418498188978    1.80013325348558    5.66747176016367
F         2.29212055783154    2.24251214042865   -1.80463936059298
F        -2.23274087170851    8.57712933902161    1.90816371596261
Ir       -0.82469350601753    3.37508228562017    2.48356044956931
N         0.47004514629156    4.36482335353193    3.65917158122443
N        -2.07167140581602    2.48622627186113    1.18417796046275
N        -2.19941607583591    2.84515711611660    4.06566502241182
N        -0.41956271479011    1.60518981327467    3.66276774541667

