57
CSD_code = ACUROI | q = 1 | S = 0 | Stoichiometry = C26H22IrN6S2(1+) | MND = 6
Ir        8.37224261204522    3.51547104423177   22.61156416705123
S         4.82577921180494    1.10304527398041   23.84415200466256
S         9.52790042825715    5.38807728507458   26.49444626927487
N         8.58246085833900    2.49015107458730   20.69242908478608
N         6.55026308061310    4.15781651969056   21.92423018918470
N        10.11807064587761    2.85376035009850   23.45797652912627
C         9.20538368161971    3.22099606222100   19.76963531572157
C         8.33590366920523    4.59444436616943   24.31143085301045
C        12.11477433578380    1.55753620743022   23.57297623866391
H        12.73553601824960    0.79394346496043   23.13388823883973
C         7.18964123723007    2.16383726515597   23.52220193396111
C         5.49385915466343    3.38481044574990   22.28867020179215
N         9.60800006737641    4.86643608978239   21.41921736722806
C         4.19743819936126    3.67176848260468   21.85063745438632
H         3.38827694410997    3.03020832342645   22.16116781489736
C         9.48692937427752    4.40910247368019   25.06077454970766
C         9.95041266800356    4.36353232080564   20.23456824385385
C         8.12589779745754    1.65213909204402   18.70001635637147
H         7.76661709839886    1.08192544364392   17.86898246529138
C         8.00087215299572    6.04599521240814   26.08380552625382
H         7.55863029561369    6.77480621446069   26.73514062017787
N        11.02180502793213    5.03114830316727   19.73479239451843
C        10.45909968982177    3.46248428314645   24.62398076588480
C        10.93090058522456    1.92259620041581   22.96387749623009
H        10.61408205387648    1.44351483233609   22.04710767884427
N         8.93009451455749    2.74221390684026   18.52940286958556
C         7.91993666112872    1.50921177527571   20.04167208197237
H         7.34758592887624    0.77460249922681   20.57017763789677
C         6.32701722701863    5.21857954486978   21.15170998719587
H         7.18869082046585    5.82360738618558   20.90298694276107
C        10.45086761915177    5.89062342396698   21.67472469617456
H        10.37055674765047    6.47135306611327   22.57074441033722
C         7.34550362909938    1.06207184003457   24.38925066217785
H         8.28253082812947    0.75626606840529   24.82036401052671
C         5.07261311447712    5.56094946852646   20.68802523228295
H         4.94490034013379    6.43308642559260   20.06811012284323
C         7.49030986671555    5.54406386002953   24.92225067167352
H         6.53621635870644    5.84911479361176   24.52979405441029
C         3.98486897452264    4.76668802760882   21.04293891549228
H         2.99326874061166    5.01060062436106   20.69541592342744
C        11.64632604315641    3.14431508423664   25.29035599665973
H        11.87974875301248    3.65379852456609   26.21161019539639
C        12.48142086827630    2.18588017216493   24.76071078108318
H        13.40057930073996    1.92011476677489   25.25875975375041
C        11.33306382318514    6.00511304266813   20.63959113799435
H        12.14522660730857    6.68316229883763   20.47992561781021
C         9.25680004598771    3.29804176824797   17.24302395221074
H         9.31523552230885    4.38281552887307   17.30780331278766
H         8.46803127677060    3.03599086331980   16.53896905969661
H        10.19890998948497    2.89990210584216   16.86117406674008
C        11.81718939034412    4.73995148536414   18.57159728520790
H        11.82228398862536    3.66855440410323   18.38009335772914
H        12.84064922701483    5.06248557833675   18.75888476455102
H        11.44994573586143    5.27032323052465   17.69076459513801
C         5.86396762238360    2.30617750398300   23.14390586036498
C         6.17375358921241    0.41003604001047   24.64159889446005
H         6.02152995694172   -0.45074173976992   25.26359338994267

