44
CSD_code = ACUROG | q = 0 | S = 0 | Stoichiometry = C19H15N2O7Re | MND = 6
Re        0.49103361154617    1.02602814951789    5.94599791734836
N         1.64516541518438    2.03166865600171    4.45153444824129
N        -0.49516771420319    2.89570931555881    5.69719382572269
C         1.61415074434183    1.55312813384014    7.43605600382882
O         2.27383817883017    1.90368222255805    8.30971288234352
C         1.38746163217037   -0.71314860627890    5.74152528831639
O         1.92812001504565   -1.71395842670526    5.66684976461752
C        -0.83400744508060    0.21190761611628    7.11739195540205
O        -1.66613093381264   -0.23856269423714    7.76397308081765
C        -0.29789839808897    0.00430081459886    3.23561090400012
O        -0.84837963051773    0.66141059639533    4.14492785091370
C        -1.03641872891310   -0.03257927897526    1.93048370989873
H        -2.10526513847845   -0.16666714763667    2.03812067567522
O         0.80344557459097   -0.57583155445141    3.35291888484390
C        -0.50720286477549    0.17796396412285    0.72753355517453
H        -1.15168572402930    0.22052625808443   -0.14159132927432
O         1.87631405062813   -0.02147437632730    1.11968450603519
C         0.90974707481865    0.51449159105372    0.39968222781057
O         1.15113079867044    1.26864640813465   -0.51707962725792
C         2.75814545720613    1.56636093475197    3.89315631008040
H         3.25541825765173    0.76260055094301    4.41874781595832
C         3.26495081544461    2.04933006200343    2.70353150851566
H         4.16233034595465    1.62051327940993    2.28926063148847
C         2.58230276666739    3.05641448784717    2.02445690786132
C         1.43806640166299    3.56133548888431    2.63177683911409
H         0.88355858251630    4.34288806266539    2.13746625346538
C         0.99993395427090    3.04508955800616    3.84644573379906
C        -0.17205740944913    3.55933801026214    4.57323239597690
C        -0.88836606633053    4.68017141313675    4.16189201239099
H        -0.61251957138991    5.19854738486474    3.25775829841227
C        -1.96184141494225    5.14029960730235    4.90948899813193
C        -2.27007777619189    4.44149229167016    6.07519986758837
H        -3.09059008169674    4.75323031392046    6.70182887358082
C        -1.51828072721364    3.33802842035655    6.42235287855553
H        -1.73961378184073    2.78340940122037    7.32452372857452
C         3.03102805594400    3.53739679227806    0.69234001610873
H         4.11154206283601    3.47240456721022    0.59652180588626
H         2.70457048450968    4.55729668862761    0.50459688212576
H         2.58623481982416    2.89060816580284   -0.06845883863074
C        -2.74690337445093    6.34166660386348    4.50218540099757
H        -3.81202961396208    6.11761436894862    4.50879738818403
H        -2.46224260848549    6.68236368615322    3.51032262850443
H        -2.57628885262353    7.15190009814107    5.21077993065059
H         1.53697875616135   -0.45804187964628    1.96596920822404

