59
CSD_code = ACUSIA | q = 0 | S = 0 | Stoichiometry = C27H23ClN2O2PReS2 | MND = 6
Re       11.45634696251419    0.85626324511707    8.07871733452543
Cl       12.81930827712700    2.37527746929472    8.81973395324102
S        10.93688082774397    0.21690186681368   10.42334356028970
S        12.39170327170524   -1.76756360130532   12.00003695886654
P         9.80382666792710    2.65987040691424    7.80978658734210
O        10.41268186357870   -0.29918833939911    7.52176888308302
O        12.26922588191129    1.26405775423073    6.07356064616940
N        13.03099326682685   -0.52057808358772    8.39481228071340
N        13.11728092483997   -1.16338321897047    9.57639122270406
C        13.29846415527746    0.67400486348012    5.57030176607858
C        13.64661546550155    1.05429427370968    4.24844707393325
H        13.01243363121473    1.78877379348740    3.77459148942966
C        14.72579768093290    0.52640063634886    3.59452315104685
H        14.95400321727479    0.84778958465983    2.58870856570147
C        15.53401403827371   -0.42495784826467    4.22220317189920
H        16.38622005188208   -0.83985891487264    3.70687701190086
C        15.22905306794265   -0.82239523132291    5.49537682514432
H        15.84845763537894   -1.55937365533360    5.98717200846440
C        14.12530122322121   -0.30433228728835    6.20898162157930
C        13.94386725097412   -0.81842653564253    7.52133584130994
H        14.67202304851315   -1.56186438516390    7.84415552632075
C        12.25437036621615   -0.91241353182213   10.49566781635138
C        13.82176751901130   -2.83463932009042   11.65670568725690
H        13.97741351303144   -3.43639888894825   12.54564452476095
H        14.68726906833175   -2.21321923463790   11.45476776739417
H        13.59571749896537   -3.46059595423233   10.80049654583313
C         8.76162962816405    2.85022673275359    9.27896620056384
C         7.39579333556839    2.59531852556202    9.26941812423843
H         6.90635530206177    2.31144194482917    8.34892359801646
C         6.67094664074148    2.69989338319725   10.44422617514700
H         5.60932688173228    2.50137933674172   10.43685681541595
C         7.30262606208868    3.04728717458881   11.62631019591702
H         6.73273752678849    3.12166874420107   12.54049875029716
C         8.66826272935365    3.28738395983158   11.64154414381972
H         9.16338288888785    3.54403416038417   12.56594432395252
C         9.39824956256877    3.18499261553061   10.47406757556046
H        10.46770243087860    3.35145661035502   10.47814600432113
C         8.66311211624458    2.50251018969821    6.40543371900642
C         7.83704612949916    3.57132720570101    6.06430035864451
H         7.87183730245533    4.48453423764980    6.64310413962850
C         6.97723428843957    3.45683839978693    4.98835258949185
H         6.33374327166740    4.28314242399552    4.72393724532606
C         6.94240055461602    2.28463270977050    4.24795914050661
H         6.27032152214932    2.20110319362996    3.40663073227956
C         7.76846476234038    1.22440440408568    4.58289910943740
H         7.74219123742945    0.31403755233743    4.00311272313662
C         8.63115606482026    1.33041296243760    5.66054938951283
H         9.28531837580934    0.51225384635685    5.93703064863361
C        10.52573684075420    4.29879602539716    7.51448932718662
C        11.48356200279257    4.38098721469376    6.50610686742049
H        11.77206689159341    3.47919832255978    5.98167261664491
C        12.06533307542276    5.59737369317262    6.20489158190315
H        12.81384393248233    5.66017808864233    5.42875869957760
C        11.69324131874278    6.73515492449896    6.90453491224408
H        12.15154900988376    7.68532359956039    6.67292883910259
C        10.73844479841260    6.65469947559442    7.90423633092737
H        10.45063796115183    7.54149185877971    8.44989569538263
C        10.15113978648434    5.43959220120471    8.21340247282963
H         9.40996939294665    5.37867941840415    8.99806313365964

