83
CSD_code = ACUTIB | q = 0 | S = 0 | Stoichiometry = C42H35N4PRu | MND = 9
Ru        1.38647898620863    9.70100702717805    4.29572155864042
P         3.51613092833249    9.25695049001535    5.10487368220359
C         4.63649095318838    8.05595079755437    4.32166322492699
C         4.08290299664418    6.99437066870040    3.61774468807018
C         4.89938350366731    6.04495135600191    3.03008540448128
C         6.27477058849510    6.15057269096596    3.14931752211189
C         6.83227381193783    7.20088409932539    3.86297670870199
C         6.02034920917782    8.15219786364304    4.45156615603263
C         3.54747803066445    8.73646906304468    6.85379243486403
C         4.33216469193259    7.68577913964962    7.31698365760579
C         4.28767028243904    7.32720723248477    8.65324497184778
C         3.46496914805968    8.00816961291638    9.53470832285440
C         2.67427084950747    9.04983608047692    9.07584149190311
C         2.70731701425522    9.40793096383641    7.74079471383172
C         4.52183900425155   10.78041863173398    5.07998927641559
C         5.11522645964496   11.13416373098543    3.86750732864385
C         5.76732067506501   12.34568817791611    3.74113951518149
C         5.81165152592897   13.22556512694553    4.81114318214088
C         5.22536846008271   12.87864276109406    6.01600439206619
C         4.58484659585815   11.65955454545419    6.15543530734812
C         2.19659300234964   12.82740858474574    3.73839276778537
C         1.73076321393421   11.77448536303217    4.55557657862040
N         1.34989586259154   11.39513137080320    5.62342025896317
C         2.34444784854878   14.05968511758419    4.40233531153892
N         2.46374006674416   15.03653398747854    4.99487119860334
C         2.56121864618231   12.63524263410578    2.42149986007538
C         3.00731609634695   13.77933479984325    1.61699286943959
C         2.27494570729143   14.96476529422444    1.61841535599017
C         2.69561620961661   16.04642957537735    0.86884342390832
C         3.85433941262396   15.96272849649708    0.11532699590873
C         4.58869894744611   14.78861170565562    0.10949837024797
C         4.16805055160923   13.70103907542986    0.85024945869466
C         2.50469646775066   11.33679884372818    1.82639899101371
C         2.75927953590152   11.23902901109026    0.43546073661120
N         2.91468144795005   11.11150070796596   -0.69478550260145
C         2.16790685551082   10.16107479714745    2.48064360603144
C         2.22140102815227    8.99287102072805    1.71504973098686
N         2.27942096747392    8.01198739323893    1.10532938037244
C         0.26790539722966    7.95822581056201    5.24843295980504
C         0.71347423629436    6.90422518999163    6.21816833455364
C        -0.41070085954457    9.15497750112958    5.55970249251270
C        -0.84842520496295    9.62866432646260    6.91031733115960
C        -0.84097070126133    9.76241525993845    4.31830706142063
C        -1.76409088019520   10.93975693646189    4.23273888030771
C        -0.49812495222424    8.88144176091457    3.25771600615862
C        -0.99927124846383    8.96228004120726    1.84866793474816
C         0.23972715004204    7.78255248722148    3.81287129119723
C         0.45321024844555    6.47980161288659    3.10177565990288
H         3.00924775288631    6.93181000576504    3.52406385713284
H         4.46207837063786    5.23017423964313    2.47337774512154
H         6.91569966102961    5.41568074344718    2.68549640448775
H         7.90528512130295    7.27953823613617    3.95984812631092
H         6.45349362219483    8.97075291133264    5.01014262286921
H         4.97497922203153    7.14532948496096    6.63736936669963
H         4.89880617591924    6.50957650328379    9.00645279057502
H         3.43497287655119    7.72353762914834   10.57605200755595
H         2.02653036658217    9.57978027482703    9.75937814838188
H         2.07632747478200   10.20629284767107    7.37170903942742
H         5.06467705180499   10.44759572110761    3.03060810195395
H         6.23605143650748   12.61216410583209    2.80554493247533
H         6.30061882744816   14.18153982638812    4.70276180668064
H         5.25825666131449   13.56363529668587    6.84944539291467
H         4.13228438129495   11.39326747102776    7.09936702798055
H         1.36109669914170   15.02978470746026    2.19101566088610
H         2.11516743155094   16.95682176462755    0.87293348880562
H         4.18266882829682   16.80951294842399   -0.46859187914608
H         5.49260524442291   14.71755846266028   -0.47694566328688
H         4.74928386983521   12.79105127130561    0.84660687764563
H         1.64246685142330    6.43336039688951    5.89711118159318
H        -0.05513072352867    6.13147859440639    6.28959928442937
H         0.87522882771626    7.31977650395713    7.21037482120007
H        -0.63499414824174   10.68867193836881    7.04290359596012
H        -0.35393163632898    9.07310523556157    7.70350817153744
H        -1.92687090279263    9.48643733776927    7.00703217860742
H        -1.48116973929725   11.70930094863655    4.95056993254409
H        -2.78547325496152   10.62513676671704    4.45856401621763
H        -1.75475354874054   11.37613877016138    3.23507917294267
H        -0.34523016071401    8.42706826836435    1.16411724343972
H        -1.08485295473940    9.99383819228315    1.50986367703129
H        -1.99132136829396    8.50722121101073    1.80052840478798
H         0.95684316583032    5.75856331854551    3.74158578265437
H         1.03389075213139    6.60824006941489    2.18667856149451
H        -0.51808100372683    6.06814923080684    2.82039723625103

