22
CSD_code = ACUYUT | q = 0 | S = 0 | Stoichiometry = C9H9NO2W | MND = 9
W         6.30856623007541    1.06541289822124    2.48780586986621
C         4.61374463955757   -0.52897402634388    2.17897344783374
H         4.35155114197352   -1.37594380613462    2.80263824761103
C         5.47768633482486   -0.57257377810700    1.04412134182519
H         5.97025137781709   -1.45824186568617    0.66487327751242
C         5.38443727964021    0.66290748028703    0.37582339102871
H         5.82407970156154    0.90203879840333   -0.58441379805799
C         4.48855837824608    1.49394133357262    1.10377439021473
H         4.08852947337715    2.44077058066280    0.76299966516877
C         3.99090890344816    0.73225439855550    2.20135792294229
H         3.19009769390642    1.03588153704692    2.86464002157122
C         7.74934023583266   -0.49608222657139    3.15986032318152
H         7.39061495844991   -1.51934011626375    3.04533778484573
H         8.79268004581296   -0.36991395617103    2.87330719888193
C         7.29937378833164    0.20601345191384    4.29500230143841
C         7.35439222795675    0.18372770937843    5.60571628349231
H         7.95598946258841   -0.55196682271320    6.12204284858971
H         6.84422485897535    0.89545001900789    6.23599191012089
O         8.58415348703235    2.75749499421198    1.65676275308441
N         7.69696947647819    2.07429572585688    2.02528344575107
C         6.20201071401173    2.30324601324487    4.01850235942753
O         6.20073959010197    2.99020165762769    4.93729901367013

