41
CSD_code = ACUYOP | q = 0 | S = 0 | Stoichiometry = C16H12F5N2O5V | MND = 6
V         6.22716456168503    6.83252136893883    1.44568269456678
C         7.38045073276786    6.44562057800540   -0.97580216137973
C         7.83467459183787    6.78125771494758   -2.34935078343604
C         8.42589138550140    8.02093163410984   -2.59842924262763
C         8.84540531578677    8.38569157574636   -3.87264995073872
C         8.66826279588404    7.50296427877395   -4.93442082570444
C         8.07992682084605    6.26144447291514   -4.70681079609190
C         7.66998758692453    5.90673977685043   -3.42421430406324
C         6.69946580159687    3.91069790591103    1.12316748404951
H         6.89972412539843    3.05128882089875    0.48031759398729
C         6.23218813178026    3.68744673021548    2.45180654607489
C         5.95532091118785    2.39340376655645    2.91730708154606
H         6.07711002761877    1.56152824163073    2.23892890933459
C         5.52678987766928    2.18281230535357    4.20642580408717
H         5.30864361572909    1.18410733294265    4.55134693469916
C         5.37394582433877    3.26582864167993    5.07147371546199
H         5.03804021783278    3.09788060766447    6.08396507244820
C         5.64797982357457    4.54726473706872    4.65058092770998
H         5.53136272600901    5.39225061818897    5.31391549215752
C         6.07580246786423    4.79458044727865    3.33455459568962
C         6.18742770356158    9.71161096117926    1.83452750122182
H         6.57938738637083   10.03461777178586    0.85486054646226
H         6.73140261628766   10.24820198908432    2.62624003091824
H         5.11711481134023    9.96424872154761    1.88831267116229
C         9.49076182273865    8.01624333434209    2.14322269251456
H         9.34514818632925    8.71015680048372    1.30879364338915
H        10.55769630463172    7.95237684974679    2.38509217489218
H         8.94682546581923    8.37710163218410    3.01473903798099
F         8.63544148874309    8.87246662874635   -1.59173743372872
F         9.42043284507240    9.57224361496801   -4.07944786931334
F         9.06419459551406    7.84246153948073   -6.15953124086358
F         7.91119710174666    5.41528379594089   -5.72376604418467
F         7.10065637270644    4.72054201024678   -3.25010054318785
N         7.36718225575590    5.19132022961168   -0.61506162364575
N         6.89589207666819    5.09097717241543    0.64051748572038
O         7.05763809650654    7.38811119721210   -0.18795029393914
O         6.35017698585837    5.99479973323421    2.92852535560865
O         6.36486152178393    8.36780025711531    1.94421145033899
O         8.96669129475201    6.73537212649729    1.84508585166233
H         9.45729323781597    6.38128812352991    1.09301545391735
O         4.82424048816360    6.53901395496970    0.91645636530275

