69
CSD_code = ACUYUU | q = 0 | S = 0 | Stoichiometry = C27H37ClCuN3 | MND = 2
Cu        1.82524807023127    0.24394636888758    8.80553214471134
Cl        1.93447997274716   -1.69202073332484    9.51730427366082
N         2.50171653671795    2.51880897358868    7.12895233645521
N         2.23868442938452    3.77608017810754    6.84693043074251
N         1.27719271967082    4.11202280096697    7.66558647852628
C         1.73612144661663    1.99781977483137    8.12433025970421
C         0.92404684584792    3.08014866666218    8.46633482988206
C         0.72161620348086    5.43246136529145    7.65528890777810
C        -0.13830545198923    3.18228044079417    9.47484529925787
C         0.19593293348003    3.51267407758527   10.79037411679767
C        -0.81986034935862    3.58109046861950   11.73327439305924
C        -2.13041930417366    3.32849876023463   11.37635244284522
C        -2.44735219687360    2.99279727291262   10.07340379005186
C        -1.45943976284607    2.91614452430925    9.10279738411739
C         1.63749459409612    3.72722297333035   11.18789399481835
C         1.82634823403148    4.96504624211188   12.06639723509514
C         2.14820622785214    2.47043258823880   11.89740449737738
C        -1.78222891354075    2.48185382586499    7.69164555097348
C        -3.08741777522309    3.08141504678140    7.16634503492008
C        -1.82997138100040    0.95159852606234    7.64710156934457
C         3.51532821233352    1.81090934147252    6.43136088143999
C         3.14813831194302    0.97750841736894    5.37481401726700
C         4.15399065128910    0.26663689573280    4.73383668539993
C         5.47014600053331    0.38378924163984    5.13548969740876
C         5.80963821640755    1.21474585077524    6.18646676181919
C         4.83942036033109    1.94954952793219    6.85265361243272
C         1.70822677232696    0.81836898430887    4.95007577278582
C         1.23065117124019   -0.60240177133635    5.25893474536035
C         1.53007217300467    1.15122426966194    3.46714467586325
C         5.18790123984169    2.80900090502537    8.04461960053914
C         5.27878472112432    1.91503469470734    9.28560498597329
C         6.48289784204605    3.59686353092334    7.84503550763021
H        -0.33735126025956    5.39083460843681    7.39656005232691
H         1.26073932732293    6.02220664294869    6.91703201262772
H         0.82232369797177    5.88488332833673    8.64254359951973
H        -0.58660275326587    3.82283770951302   12.75817025339571
H        -2.90999162558276    3.38054294696765   12.12191931193775
H        -3.47271647649098    2.78025862349376    9.81630724331793
H         2.23808198011314    3.86464269753623   10.28183065436674
H         2.88736045683713    5.16435578841089   12.19972411691617
H         1.38788585918048    4.81995581753249   13.04956883853778
H         1.36526164571389    5.83941918820492   11.60998128842180
H         1.57245992538015    2.28201892705795   12.80005907345166
H         3.19490029858226    2.58692890640900   12.16855584656389
H         2.05281958687486    1.60468300972225   11.24192506875936
H        -0.97516033738489    2.80932243743422    7.02631694862843
H        -3.17779655064535    2.88879952892445    6.09948837146045
H        -3.11326370438903    4.15798807707981    7.32652911635764
H        -3.94913932664573    2.63870284027458    7.65781184975082
H        -0.87785803729816    0.53323233287151    7.97360288052613
H        -2.03287726783210    0.60911197160160    6.63491630637560
H        -2.61090263576426    0.57845605834264    8.30495785956051
H         3.90409258798258   -0.39388924386212    3.91872364990232
H         6.23783495572008   -0.18410355679962    4.63154497386078
H         6.83988653980520    1.28381214756092    6.49592123310002
H         1.08410020794617    1.51080965072327    5.52344793111417
H         1.35033716698615   -0.81709955698186    6.32060741405485
H         1.80208717472357   -1.33466672602052    4.69501962150221
H         0.17949308892446   -0.70946820003123    5.00143632295451
H         0.47587597911562    1.10937741834193    3.20249145947093
H         2.06518565532832    0.44374053858414    2.83996281833090
H         1.90234351166289    2.15122290075284    3.25393583154900
H         4.38686856379231    3.53810604894906    8.20259818738337
H         4.34652223401700    1.37015216335961    9.43450990125107
H         5.47791954525430    2.51545029619415   10.17035689225425
H         6.08030912767807    1.18997546117454    9.16921514929421
H         7.34929938257894    2.94143306007866    7.84981667453087
H         6.60357273334395    4.31449798826719    8.65359548760631
H         6.45940999113742    4.13871613854498    6.90198384499559

