31
CSD_code = ACUZAA | q = 0 | S = 0 | Stoichiometry = C12H13NO4W | MND = 9
W         0.44440556992262    8.82723301564604    2.06616683568587
C        -0.18524335593003    6.73129398902149    1.16882690336697
H        -1.18907016963598    6.33255097589312    1.14452340746741
C         0.42438020273579    7.51219005617311    0.14451729343432
H        -0.00256136894204    7.71330060391967   -0.83146303941573
C         1.79575872382182    7.67439883106168    0.49391733979807
H         2.55956554145517    8.10922503408916   -0.13861885431408
C         2.00093777839134    7.09008945744815    1.75667855843020
H         2.96281277385925    6.93341108959632    2.23276870318187
C         0.77244364345393    6.48932692353115    2.16490242468654
H         0.64881871484024    5.83719012660259    3.01884875256771
N        -1.03588234989790    9.79862367115770    2.24404449677724
O        -1.99291210081666   10.47403844118106    2.36182136826893
C         1.13916296830752   10.58072569064355    1.50043751589875
O         1.47969709595483   11.64922317592481    1.25235151997957
C         1.53550413138355    9.78426911673978    3.85905924657851
H         2.56540394174115    9.43240692793830    3.93934942884826
H         1.41785646555078   10.83232010725220    4.13271859427662
C         0.51109005836530    8.90458457853831    4.21589753723341
C        -0.22086991592510    8.37198459700282    5.18298327859384
H        -0.04632592778062    8.51111824947932    6.24098195735378
C        -1.38806123174503    7.58563407593449    4.77800246625636
O        -1.68595839705029    7.37926426659295    3.61649995074409
O        -2.10195108234427    7.13374234959857    5.81052421263614
C        -3.29331447569632    6.41273029120900    5.49224361018488
H        -3.01570389485404    5.46500022863326    5.01581265594442
H        -3.87575162755170    6.99721472364076    4.77159370316843
C        -4.06872270775570    6.17714394831747    6.77446883883280
H        -4.97868480369137    5.62626905501745    6.55516438091247
H        -4.32933438881224    7.12725727124953    7.23256308070559
H        -3.46688981135211    5.60663913096681    7.47681383191540

