56
CSD_code = ACXMPD | q = 0 | S = 0 | Stoichiometry = C25H25O4PPd | MND = 4
Pd        4.09260826940882    3.48168468855490   -4.20469289624581
P         3.24101238163928    4.47223524598257   -2.40852626886654
O         2.13115145169187    3.18268258108819   -4.97704399784098
O         4.85806986774552    2.83030134631342   -6.01481495956285
O         5.49753398293062    1.26337064708133   -3.41984352429560
O         7.34161214713986    1.81739160158572   -4.56111930923410
C         4.99172569004696    1.88419767171213   -8.16772450922893
C         4.18950562487956    2.37441104353353   -6.97705008207415
C         2.79556016590190    2.28224416905801   -7.07729198701773
C         1.87604434448586    2.69403651216319   -6.10985640428919
C         0.40510662074604    2.53557429986292   -6.45181497594606
C         6.03487442625394    3.54899189602400   -3.49201155859826
C         6.40452429193931    2.18702923204359   -3.89933659111594
C         1.51709308801749    5.01504876768132   -2.62805390360215
C         1.15957676139889    6.32657544761139   -2.91451280325718
C        -0.16829633862323    6.64510977023763   -3.14399198528585
C        -1.14009457286589    5.66015486549726   -3.09913715294845
C        -0.78530714062761    4.34838490670217   -2.82262260716230
C         0.53719188054951    4.02545500707691   -2.59022596787030
C         4.13682896145839    6.03294297945155   -2.11963550893278
C         4.60433620777292    6.65700301033600   -3.27705517226873
C         5.28577029268197    7.85586140319904   -3.19401747921892
C         5.51988374813722    8.43125196238907   -1.95343441170985
C         5.07411200487134    7.80505581710351   -0.80209977972125
C         4.38076196124380    6.60801489525832   -0.88029595841357
C         3.13787327315091    3.61864833601247   -0.80656892131567
C         2.39837000417646    4.13224020412486    0.25563270789663
C         2.33869061571753    3.43867680721706    1.45036293642211
C         3.00241467975909    2.22913059594396    1.58701512785856
C         3.71759161505441    1.70371907661749    0.52331575864968
C         3.78460195823944    2.39473797687615   -0.67415890195896
H         6.04953536490214    1.89843755915058   -7.91699474788008
H         4.69106505380091    0.87443512909896   -8.43677013493990
H         4.81643140613625    2.53415726659625   -9.02286848209842
H         2.39646301845936    1.87074938090442   -7.99231929939203
H         0.18364380751739    3.01628488294734   -7.40155388735334
H        -0.19894761378147    2.98339812936426   -5.66610175852191
H         0.15914691520087    1.47881621810190   -6.53672742595782
H         6.06014476374307    3.64857189968078   -2.40206430136663
H         6.69544985408183    4.28208021554829   -3.96233217094481
H         5.74486257178221    0.38516743340283   -3.74897560961883
H         1.91682908939377    7.09715849382926   -2.95735602846417
H        -0.44396051203928    7.66630265874387   -3.36398909942626
H        -2.17385115049595    5.91244767095360   -3.28497607148866
H        -1.54312196929630    3.57858314675621   -2.79485836321064
H         0.82949699978083    3.00334070870450   -2.38704522667315
H         4.42919153269390    6.17213646773291   -4.24292876986768
H         5.64427174983492    8.34025169447786   -4.09014311390428
H         6.05860922630209    9.36464879839050   -1.88511180211957
H         5.26896552500415    8.24862065572052    0.16334397687566
H         4.04510030242257    6.11776639426193    0.02179580420177
H         1.86057064002889    5.06315993597020    0.13603175365633
H         1.76770800260184    3.83744807310586    2.27624164657190
H         2.95036496040324    1.69073375942499    2.52181993685610
H         4.21880750969564    0.75282621262883    0.62672290976801
H         4.32089468961357    1.98991445150689   -1.52542864863967

