65
CSD_code = ADABUF | q = 0 | S = 0 | Stoichiometry = C21H39ClCoNP2 | MND = 4
Co        3.98152063814497    4.81433232101735    1.54690542372741
P         2.78259433817854    4.48022722865799    3.34708982251374
P         3.53190334868296    3.30074401828975    0.01213112080188
N         5.64127295038301    3.35627796958238    2.32942421359139
H         6.45100307631379    3.91304214220396    2.59224956680487
C         3.89096448186728    4.24435891756136    4.79644250426093
C         3.71415992573874    4.96476216673604    5.97523573638921
H         2.88195893267174    5.64463171830093    6.07409119533023
C         4.58977538894779    4.83421757982634    7.03787916662650
H         4.42551896721748    5.40063425119034    7.94308635452707
C         5.67524022649488    3.98402292095680    6.93426706872371
H         6.37020381891532    3.88137443286772    7.75428891456939
C         5.86518874489407    3.26424298926146    5.76831086149361
H         6.71255413881177    2.59689317367197    5.68819108257818
C         4.98665087111852    3.37597340347167    4.69928879899146
C         5.23330333607452    2.54378957873428    3.46991541012660
H         5.99221573976985    1.77556651161424    3.69910775528072
H         4.30685153612706    2.03403946117607    3.19600526248408
C         5.98616931478016    2.56404154610049    1.15412379473060
H         6.67776365616389    1.74423663357810    1.41775429493735
H         6.48792449225374    3.23186067977443    0.45230060995972
C         4.75058517824235    1.97044205338942    0.47114854439655
H         4.24613933204384    1.28128762877088    1.15167108320922
H         5.06234935013325    1.40763832492061   -0.41053625378370
C         1.27761920599919    3.46905833654599    3.86773620765166
H         0.60252067406349    3.51423715767905    3.00361612201380
C         0.53789698324919    3.97854379327261    5.09988924398619
H        -0.29789479191813    3.31395384776689    5.31802589151371
H         0.13426768048111    4.97589992685407    4.94806370895585
H         1.19370491704708    3.98596127019582    5.96785431815447
C         1.68288878028673    2.01365982450427    4.08541660171114
H         2.36885116166514    1.93030140103528    4.92755337955492
H         2.16652994201528    1.60454351527732    3.20061085777448
H         0.80464368429184    1.40533713085346    4.29887228413450
C         2.19792174969362    6.24072500250692    3.55774820916910
H         1.70370537404136    6.41781601096329    4.51795417966522
C         1.22566960213685    6.54049765041719    2.41946087744557
H         0.91350060393961    7.58372756116734    2.44661019944898
H         0.33624598788162    5.91476060141425    2.47760499491836
H         1.72313096479431    6.35612759781111    1.46292744577887
C         3.43274736357716    7.12788803106180    3.43149922817239
H         3.97510734383091    6.86516018586110    2.51201470397077
H         4.11005012214066    6.99792269750198    4.27466099942090
H         3.15415119588282    8.17897954756877    3.36738046914037
C         1.95813363343555    2.28120124912174    0.09129440101964
H         1.96286807582141    1.93625185244976    1.13319990436014
C         1.89576391371838    1.05891034192130   -0.81783306904917
H         1.05360331797148    0.43176563891384   -0.52656856312536
H         2.80197353106793    0.46189733978473   -0.75074107341854
H         1.74539420584887    1.34938968063794   -1.85468444360997
C         0.72506281872736    3.15979581796871   -0.09058464993163
H         0.56670402253527    3.39515247842736   -1.14020895335165
H         0.84817921875271    4.09145241151956    0.46000422649287
H        -0.16551844295220    2.64990872961031    0.27563451485927
C         3.82043611767560    3.52690266130115   -1.82183575238468
H         3.39165871338398    2.65575765814330   -2.33118061512239
C         3.09555080257810    4.79752602363413   -2.25798693576496
H         3.52920936520255    5.64849161366356   -1.73702299523081
H         2.03502537670248    4.75486247690619   -2.02260032812371
H         3.20661715201523    4.95320623391083   -3.32995859145556
C         5.29739292922063    3.63734129670243   -2.18470710178150
H         5.39271856315867    3.85546808563341   -3.24757836137956
H         5.84151833068318    2.71782273216608   -1.98166601010278
H         5.75208222278420    4.45299622737824   -1.62835674254649
Cl        5.30255580264220    5.90816070822190    0.34370888481124

