84
CSD_code = ADADIS | q = 0 | S = 0 | Stoichiometry = C30H50P2RuS | MND = 8
Ru        9.49421260639840    4.43295983406259   12.84305609597685
S         8.32297292084924    6.17666816532986   11.58971340576429
P        11.51077979414113    5.47999649381377   12.52432370851289
P         9.61161508531313    3.21242204032112   10.89048006754960
C         6.97650558300768    5.34700779329035   11.09895482606333
C         5.94451078672907    4.84346753826937   10.69528440207081
C         4.74611538876091    4.29690074324378   10.20273504197220
C         4.45677667519745    2.93096591673576   10.29204663445726
C         3.26842668821946    2.43450987728154    9.79511133554051
C         2.34586304779741    3.28087776884737    9.20125591426494
C         2.62227217797992    4.63688748933366    9.10796346491117
C         3.80592952390381    5.14406090284781    9.60117886330547
C        11.84541507019299    6.10065955682209   10.81036815460454
C        13.16605181332974    6.80853950624571   10.53758538218448
C        13.04315527989453    4.47548468899973   12.88493890908454
C        14.24261066476728    5.15265081783584   13.53809255964430
C        11.81404297514214    7.01633476294343   13.50979056107693
C        10.78837205655742    8.09789021309934   13.19953922485867
C         8.30561830726069    1.90863050226040   10.80646524323798
C         8.18991687608198    1.06486602770165    9.54398108009027
C         9.32992809841569    4.08479163555677    9.26631620403697
C        10.10561821813137    3.62080009406972    8.03875442099052
C        11.14405318215765    2.22354740658221   10.54741222133376
C        11.48761899545765    1.34015663302786   11.73576679024971
C         9.13743257594855    5.00438104693920   14.99981418813126
C         9.86468017993862    3.75894346662887   14.99269713906443
C         9.04543803697442    2.76972595780449   14.37973879346696
C         7.81338174206215    3.40204638289719   13.97890445267202
C         7.86594911290157    4.75931957735892   14.40904909587309
C         9.41605886382021    6.16425749668000   15.91283044789628
C        11.09646064720233    3.48828085151319   15.80567981891357
C         9.24473759286073    1.28928378482195   14.52346835357968
C         6.52936639250897    2.69996949851197   13.64655597758552
C         6.70413447602487    5.70146186895106   14.44011195502479
H         5.16724528546347    2.25990732692799   10.75419825149831
H         3.05858929443978    1.37634525706083    9.87190774328019
H         1.41788241748327    2.88686858942919    8.81329647830315
H         1.90687553159662    5.30167879600552    8.64410328827868
H         4.02504819187200    6.19990645603577    9.52968866170688
H        14.01139708927298    6.14975918817913   10.72123530789984
H        13.20142435249881    7.11458800257628    9.49286905689962
H        13.27642524573050    7.70069033876036   11.14813390284998
H        15.03937640835663    4.42036584309080   13.66542112709683
H        14.63114317380139    5.96737351540385   12.93369878992825
H        13.98804629738594    5.54234618923216   14.52054574501779
H        10.83418160108459    8.89389699536505   13.94137601149926
H        10.96551020335059    8.53401026333347   12.21951756858504
H         9.78350318812103    7.67825831206854   13.19785750967728
H         7.38032853886286    0.34575891307672    9.66557927767424
H         7.95732249293306    1.68126709831128    8.68012209258729
H         9.10265211145822    0.50714112979119    9.34681703326549
H         9.90925529601589    2.57978984956456    7.79848122712695
H         9.80341358608187    4.22427247311231    7.18404442978129
H        11.17730679550079    3.74768660444343    8.17405766754273
H        10.79807862193039    0.50289319019381   11.81056698892333
H        12.49830792703371    0.94428307879944   11.65127685057475
H        11.41521279552707    1.93228750534406   12.64873743698644
H        10.45067303685938    6.17160673565555   16.24799218596861
H         9.19527284614830    7.11866333710429   15.43929993993836
H         8.77959102656236    6.07669699099491   16.79739131955939
H        10.81018031900739    3.31949307358228   16.84691886074068
H        11.62103344065907    2.60079399102472   15.45571493834255
H        11.78768450313019    4.32958088125225   15.77869313378011
H         8.75417585433304    0.73010834835670   13.73008852456572
H        10.29811081924413    1.01783587219750   14.53304275543869
H         8.80712211520590    0.97053204002235   15.47338001984964
H         5.91666872294942    2.63024046152848   14.54915080077094
H         5.96038542880042    3.25403368948331   12.90105803499226
H         6.70233091179751    1.69142497903145   13.27957909763858
H         7.03396378452674    6.73848346210493   14.41191958821452
H         6.03326890900494    5.53231259852906   13.59965178597046
H         6.14269039033715    5.54474205397623   15.36485931776414
H        11.75666284818247    5.22414285383548   10.16067232386141
H        11.00399402943058    6.76141175642414   10.57597269904109
H        12.71404121897096    3.65489570155581   13.52621529768752
H        13.34074833023586    4.03201418531134   11.93044805832342
H        11.75125117065930    6.73038696884621   14.56195870718937
H        12.82511614639508    7.38110273427000   13.31949045515854
H         8.46475721558072    1.26100014006525   11.67175242358389
H         7.37372806244725    2.45863144540125   10.96612740689558
H         8.25249841684175    4.01437776520866    9.08537378184021
H         9.53958957845861    5.14307192053259    9.44406676779174
H        11.01373685803603    1.62868465965195    9.64267558087867
H        11.95297613444721    2.93791009734706   10.37530901325149

