129
CSD_code = ADADIU | q = 1 | S = 0 | Stoichiometry = C69H52N2OsP3S2(1+) | MND = 6
Os        8.11250246420574   20.44809660699725   22.74241424695148
P         6.87883338792216   18.81396584809108   23.95301941913014
P         9.39089669987339   22.25545203480270   21.87240307549504
P         9.48880079442653   17.35603630395800   19.39567327762965
C         8.95964837448184   19.09121530782038   21.45776579349829
H         9.89626304352070   18.62955660583869   21.79057522681993
C         8.55916849587782   18.65041338979270   20.23744399541910
C         7.38026138042227   19.07219875959196   19.51590569379551
H         7.18199502194765   18.65455466976219   18.53563753370702
C         6.56906446509076   19.98024033610633   20.08629555179832
C         6.69366168459509   20.64070988758317   21.36268949770908
C         5.50625963566129   21.43210714057792   21.23364956342346
C         5.03589680271332   22.33301431610614   22.15143909071027
C         6.88202282522555   21.77781202018853   23.48545849214148
C         3.86647655988095   23.17014949835578   22.10458355634355
C         2.99500897503820   23.13557850465051   21.01097098141940
H         3.19674716644948   22.47132940472862   20.18437030785756
C         1.87939035130509   23.94684949450952   20.98806390581310
H         1.21091429211591   23.91497216512761   20.14093273001534
C         1.61323577310415   24.80195805388805   22.04767969263898
H         0.73874085196466   25.43411039213158   22.02436614582624
C         2.47149837199213   24.84348108877383   23.13653281439973
H         2.26445448988248   25.50876941565500   23.96124608064747
C         3.58921714036784   24.03599731855573   23.16786575409241
H         4.26436971420994   24.06023959162978   24.01038532982396
C         7.21951899907051   17.03586803698747   23.72320009464724
C         6.23679708420979   16.07317914314212   23.51904053776542
H         5.19804155461864   16.36105388269981   23.44119362183288
C         6.58885601532616   14.73739811734494   23.42989924920370
H         5.82219690574312   13.99196416673679   23.27936454480069
C         7.91252035563959   14.35146157234226   23.55528941010825
H         8.17966145907226   13.30758944628856   23.49096900092263
C         8.89136411705134   15.30530159686160   23.78400515203736
H         9.91952489250243   15.00166778854970   23.91739018410688
C         8.54837730290498   16.64238895745237   23.86427114932518
H         9.30464761027810   17.39245991190218   24.05671132407194
C         6.90447762731271   18.90502519986465   25.77048444456243
C         6.17719508598797   17.96320541862446   26.49704778437350
H         5.61632908072476   17.19806337697185   25.97758055513498
C         6.17418398268087   18.01350639615382   27.87726449631529
H         5.61017713522107   17.28452629992319   28.43949382605497
C         6.89597468092871   18.99548455457799   28.53986311937314
H         6.89447067576384   19.02790482505307   29.61874377373351
C         7.61966725059935   19.93029287156482   27.81951967170086
H         8.18391357111865   20.69254368432075   28.33560946704692
C         7.62541013393076   19.88841088141324   26.43575545731274
H         8.19749843100306   20.61025813191999   25.87007131958953
C         5.11559352281010   19.03011609859077   23.55315892890659
C         4.30255751040349   19.81354934108923   24.36523269162289
H         4.68264030550949   20.18562807956900   25.30660775255547
C         3.01673484489625   20.12697958663304   23.96032174547469
H         2.39349736498856   20.74551911821792   24.58834569580127
C         2.53388099178036   19.66069378092409   22.74937065994824
H         1.53364974880862   19.91408067309757   22.43325451438259
C         3.33865973879094   18.87653520796978   21.93746124114856
H         2.96562658618416   18.51788539854795   20.98967292045474
C         4.62844878641393   18.57365829123712   22.33000071827782
H         5.27563920484302   17.99435672510417   21.68346806222596
C        10.30582687655724   23.24366309128616   23.09480479171379
C         9.85154649786307   23.30347988555199   24.40910388236335
H         8.96254766274852   22.75461832030166   24.69079517594071
C        10.53186336645251   24.06175328764744   25.34401860805144
H        10.17907148791521   24.10230588322808   26.36376514899834
C        11.66689017068037   24.76448776777971   24.97358749148287
H        12.20227407650826   25.35021716150046   25.70518913721462
C        12.11619155826403   24.71497968206151   23.66366800946059
H        12.99805030036186   25.26585536514765   23.37311993499958
C        11.44154552707045   23.95859532077971   22.72288816472589
H        11.79685495611457   23.92211354745837   21.70264555927198
C         8.28219599782714   23.45807146311453   21.07176142641912
C         7.68295169059023   23.12188913341109   19.85859898763271
H         7.96723475292863   22.20363366253502   19.35966321764215
C         6.71890366653830   23.94415050176481   19.30741675116179
H         6.25955414660298   23.67842219737204   18.36700108864717
C         6.32558015499561   25.09400847353314   19.97404537920205
H         5.55765605604681   25.72479596065400   19.55323547864894
C         6.91281078751208   25.42863279541429   21.18232689611453
H         6.60410584047696   26.32199174689837   21.70379012601729
C         7.88970864120883   24.61686974257336   21.73245901182021
H         8.34227674285147   24.87705124002751   22.67903821624992
C        10.69489222914240   21.88262838143481   20.65517805484369
C        10.79467759255131   22.47043410792807   19.39892720320837
H        10.06753490187502   23.20184757204739   19.07799069929742
C        11.84762536953559   22.13364101094485   18.56379187500179
H        11.92187388811282   22.59353331870863   17.58927527745587
C        12.81216121636169   21.23090937465452   18.97956505866481
H        13.63572840488485   20.98257709607130   18.32706003635996
C        12.72967015323130   20.66317869424527   20.24190982316014
H        13.49330316394972   19.98230193208641   20.58529435220811
C        11.67177038588699   20.97873606978034   21.07148972828447
H        11.60849240704882   20.54493536604266   22.06014300469094
C         8.64617625059538   15.76885290046829   19.59311393657066
C         7.32320562832036   15.72265450490526   20.01758308382630
H         6.79689503597400   16.64147371774517   20.23468485390606
C         6.69425766542062   14.49947187440386   20.16308868834468
H         5.66454648344153   14.46152600360626   20.48330704844275
C         7.38420509857548   13.32824182868574   19.89598074242421
H         6.89131935467822   12.37526905278410   20.01148258364706
C         8.70717664016682   13.37377158640326   19.48193955572356
H         9.24241157696902   12.45909551827257   19.27775241189453
C         9.34284211191308   14.59129148115526   19.32814835998964
H        10.37572598444269   14.63827558090704   19.00880684839371
C        11.14414927708450   17.14334596557590   20.07071913924015
C        11.25062029456933   16.58488912960265   21.34437803605773
H        10.35551564359874   16.27042647097640   21.86472758485955
C        12.49636089057898   16.43193478615579   21.92188093601851
H        12.58391529486519   16.02139611031163   22.91568175402510
C        13.63294983292148   16.81165389399199   21.22397170638586
H        14.60498887861821   16.69006304772691   21.67654667567510
C        13.52594074197693   17.34169582442074   19.94792404830911
H        14.41460760768601   17.62096484045760   19.40193610980941
C        12.28206824415425   17.51980603628444   19.36688472484506
H        12.19541073739256   17.94326041672920   18.37610345848826
C         9.62270279288661   17.76474261182391   17.64282193718504
C         9.35452438279817   16.84487909535479   16.63633776840170
H         9.03985966405295   15.84160230414734   16.88765248921064
C         9.48988079790610   17.23007006081249   15.31350494788436
H         9.28224583902843   16.52189179829822   14.52614550804560
C         9.88910118912281   18.51955904856982   14.99986089204855
H         9.99311829936315   18.81226336536894   13.96649592999208
C        10.15056866679847   19.43761726106058   16.00668680778304
H        10.45666123096682   20.44250129614783   15.75914126022350
C        10.01536407548357   19.06608685323623   17.33046356084139
H        10.20753271965498   19.77261554731863   18.12885593464915
S         5.04988482938559   20.80716977242840   19.62327924583790
N         5.86701429827325   22.38952220519613   23.25356159988092
S        12.10043494403659   18.84388928903302   24.55137439079805
C        10.73017187248494   19.56841994317012   24.23421605856310
N         9.70791313231409   20.10473510529540   23.99538091332008

