67
CSD_code = ADAHOF | q = 1 | S = 0 | Stoichiometry = C33H28AuN3PS(1+) | MND = 2
Au        6.12662633132707    3.88122998441957   10.83933760169056
S         5.10776593629384    2.11552904873960   12.00731379484299
P         7.13975513066533    5.56616982023906    9.71297465879284
C         9.90959655787484    2.94212726516934   13.01538877758551
H         9.51020260094911    1.93988748573684   13.03202818143463
C         9.04393808766785    4.00336473418226   13.32178720606811
C        11.22719233489377    3.17638191198896   12.71049220782781
H        11.88833165192130    2.35308058872802   12.49113243898475
C        11.71706280688328    4.48368669321470   12.68762833932710
H        12.75160483211551    4.66407188023437   12.44058217083353
C        10.89271883121169    5.54129630660853   12.98742138669429
H        11.27061357964623    6.55307949922851   12.98365308101855
C         9.55268515380567    5.31532530165342   13.32083293333069
C         6.66343074502691    7.31158562762684   14.36871743590476
H         7.13322318849942    8.28330215217113   14.39031650971554
C         7.42521327782393    6.19922976647301   13.99525611931896
C         5.34121991405189    7.16370506816818   14.71007848809886
H         4.76080410636845    8.02605520422211   14.99818881419954
C         4.74980651079563    5.90030562094335   14.70230844135020
H         3.71454807429089    5.78914474308235   14.98206084504055
C         5.49001744549767    4.79781213003582   14.35386293152158
H         5.03335776554111    3.82043790264680   14.37226499373504
C         6.83805905946009    4.91687205921480   13.98183533024996
C         7.64836053629600    3.77373145351723   13.61276248011678
N         7.21749714182696    2.55333262467321   13.58796008589084
N         8.73363406252511    6.35594824422181   13.64608397373835
H         9.11975667392725    7.29074290617089   13.65117020770906
N         5.73432829397700    0.92859091936341   14.22463372878979
H         4.93436607084879    0.37785201236739   13.94697128817573
C         6.09025180898866    1.91839667165637   13.41142297094378
C         6.40793016173074    0.57937546876320   15.44994587249857
H         6.65629219613680   -0.48206227174011   15.44804654712477
H         5.77080496629613    0.78972302037288   16.31145175266522
H         7.32305872753524    1.16257549000171   15.52966140548534
C         7.15168772573351    7.15858722805570   10.57683627899697
C         5.90684280732017    7.67035128121744   10.94100584025023
H         5.01359169196806    7.10669161278497   10.70190795986073
C         5.82069372904726    8.89193676724970   11.57892851791111
H         4.85571994985694    9.29580530209361   11.84344498270070
C         6.97673557518248    9.60117063674569   11.87095592989389
H         6.91005433870446   10.56233149178349   12.35757871817571
C         8.21623791950911    9.07907208592664   11.53861578670242
H         9.11450082895479    9.63386004814514   11.76850225283494
C         8.31065361988122    7.85607937781362   10.89481165930533
H         9.27721496468168    7.45028019384599   10.62891513165826
C         8.86110256694748    5.25019665813217    9.24581310516236
C         9.50729150303694    4.12658982992622    9.74668128093406
H         8.97725241681065    3.46061942398099   10.41625097598107
C        10.81488105878183    3.86312218471147    9.37954684529556
H        11.31314398713218    2.98628707058531    9.76277906341811
C        11.47615763399961    4.71821927775349    8.51387310561817
H        12.49496274319271    4.51032455978827    8.22539409715754
C        10.82964961193886    5.83521403663323    8.00490958779489
H        11.34432219614285    6.49349200122730    7.32161565133070
C         9.52220892216859    6.10235746252288    8.36254637664982
H         9.00592636479320    6.96195676465854    7.95690802364526
C         6.35366146714503    5.93647086221109    8.12224105536455
C         6.17833215478566    7.22727933258332    7.63466238742900
H         6.48449145153786    8.08081035706294    8.22387439166368
C         5.59818468133216    7.41218665408065    6.39211113985677
H         5.45820165048816    8.41300084719899    6.01255402766977
C         5.19825107993478    6.32129348526241    5.63745050498810
H         4.74579404526731    6.47393100668300    4.66987863137973
C         5.37263058419660    5.03447943173772    6.12345552040993
H         5.05715650949960    4.18538307061861    5.53685066252861
C         5.94596104557661    4.84039792803916    7.36528360482509
H         6.08084861174853    3.84143439500328    7.76234390152613

