80
CSD_code = ADAKAT | q = 0 | S = 0 | Stoichiometry = C30H42AgB2ClN4 | MND = 3
B         3.57631375671837    0.40431504440027    1.42056627119668
B         3.78692472720904    1.63208059645215    2.45375353676593
Ag        2.19902344311166    0.13908564532084    3.28979081878209
Cl        0.59147219006277   -0.81076062290734    4.75683745262969
C         4.99377766035787    1.67357640885926    3.43961129409125
N         5.80162173136517    2.76098192209195    3.64093048725464
C         6.80586683314209    2.44950767651221    4.51457937183307
H         7.55213408689919    3.15953224975774    4.80631262170717
C         6.63749777915634    1.16019643474720    4.87626817366743
H         7.20811729610160    0.54703076406893    5.54265682546311
N         5.53015126214774    0.68827183646081    4.22297439508394
C         5.68628343285028    4.05024511618881    3.02241172460579
H         5.62884211187403    3.94769145002965    1.94035399389761
H         6.56293766160591    4.64259808178528    3.28013912105160
H         4.79036296331857    4.57018721359422    3.36354925559543
C         5.02613698978592   -0.62845890086722    4.47870623049157
H         3.92510789119279   -0.63431329452595    4.36754711619579
H         5.28484442928481   -0.91848182752290    5.49692990500130
H         5.44095599757102   -1.35740371926593    3.78234753630785
C         2.67229145728078    0.54253393222359    0.15816154550281
N         3.02869895889806    0.14971443677715   -1.10460620138477
C         2.04387549236661    0.47186134143655   -1.99641399259032
H         2.12421287333927    0.25494558632970   -3.04173712969475
C         1.05322336459512    1.06941330480820   -1.30148829054616
H         0.11399759431182    1.46196643286724   -1.63233507577068
N         1.43529565260479    1.10920083344707    0.01315145042356
C         4.25688419833200   -0.47686527642909   -1.50116702211094
H         5.10811039130245    0.08748776583316   -1.12541533532054
H         4.29903590136233   -0.50815853214634   -2.58902624210961
H         4.32272530061946   -1.49355052032790   -1.11123901525684
C         0.54681381676058    1.59604027656770    1.02645611851221
H         0.73018938740894    1.05551876410605    1.97445461883583
H        -0.48240044585435    1.42612300897150    0.71074412426740
H         0.69417607949519    2.66060904516913    1.20919425591185
C         3.04103978867157    3.05515663358774    2.27668963946219
C         3.04372799516325    3.77426161912197    1.06690734663652
C         2.26679059109958    4.92339540661691    0.90460435854324
C         1.47504370516395    5.36092187747171    1.95225547289258
H         0.85009093580884    6.23347204831185    1.81772026881511
C         1.48198441496363    4.71074040951290    3.17529292670427
C         2.28498271216117    3.58095462710544    3.34395287274892
C         3.91024394347089    3.37712745290144   -0.09749305500195
H         3.30635237310334    3.16998963718254   -0.98098360660072
H         4.49233537503190    2.49330093161038    0.13369079304613
H         4.58802197554574    4.19245076128434   -0.35725162812788
C         2.26131244868702    5.68539054124772   -0.38865478192769
H         3.25387823828727    6.07501522346039   -0.61586072903846
H         1.57110088019665    6.52397761387816   -0.33252561073369
H         1.95951306476440    5.04653030002026   -1.21904695353246
C         0.61104601515176    5.23014954399944    4.28236836907950
H        -0.01224756711462    4.43538973348305    4.68909005378819
H        -0.03612541525852    6.02268534948887    3.91312540388153
H         1.21042582032991    5.63828162544253    5.09726144528566
C         2.29396761701745    2.93572063000541    4.70407437752923
H         2.23462237935990    3.68827093507823    5.48727608547170
H         3.19840666628466    2.35392729458141    4.86790646686854
H         1.43036451062713    2.27209194115410    4.82406933456622
C         4.56760267892231   -0.87168376088299    1.37643838517981
C         4.03265645714777   -2.17078729730080    1.49199097088019
C         4.86113326846337   -3.28470733058490    1.64098882008714
C         6.23567457407695   -3.11513886526796    1.61320803572230
H         6.87978325467383   -3.97584690589522    1.73292310036474
C         6.79935082352012   -1.86608019170417    1.41851532546683
C         5.96775348494516   -0.74997677904119    1.30378207761289
C         2.54567339186601   -2.40594132701812    1.48269165561255
H         2.15191649416516   -2.44128802833719    2.50526607993897
H         2.30776387229266   -3.35634543916300    1.01100415305670
H         2.01953332816327   -1.62321013617485    0.94076441213570
C         4.30170309183242   -4.66258999955410    1.84907700217582
H         3.58076285077032   -4.66826540904514    2.66500171339467
H         5.10039159078140   -5.36116847773338    2.08880172915922
H         3.79840161462129   -5.02380507771352    0.95120461287436
C         8.29325977941431   -1.73641353376960    1.35069726530066
H         8.76575099316221   -2.70477370882174    1.49831638222271
H         8.66278555567688   -1.05322418529098    2.11585245623227
H         8.60724612815197   -1.34769875891882    0.38170594122048
C         6.64400443123515    0.57107880686853    1.05454376339421
H         7.32200480816569    0.82271171908681    1.87007405230118
H         5.91723305845176    1.36829102336957    0.95578707195264
H         7.24393373439919    0.52073905153302    0.14389620307132

