53
CSD_code = ADALUM | q = 0 | S = 0 | Stoichiometry = C24H24Cl2P2Zr | MND = 12
Zr        1.63986168300498    7.75575771717483    3.20193343156822
Cl        1.08717415073902    9.39660456870978    4.80007501456978
Cl        0.70145483041012    9.15519167621202    1.55313510830108
P         1.10047443375081    5.14535694264950    2.78230895149502
P         4.02775047265701    6.59744523479328    3.68244323546859
C         0.83603920371732    5.75736007356113    4.44296920935849
C        -0.26317261266466    6.64079239833768    4.52991131305084
C        -0.81198049645790    6.92906391597371    3.25495007529295
C        -0.16694371086222    6.23475888126422    2.21915218020910
H        -0.49367706436555    6.27667720074190    1.18522150671760
C        -0.92093235194184    7.06608044001010    5.81278055371394
H        -0.48843900940105    6.53594905621581    6.65903454331478
H        -1.98549212814330    6.83203800321761    5.76514873077156
H        -0.82364244106012    8.13895698051502    5.98406249472310
C        -1.96817293165857    7.86480688234489    3.05521962487123
H        -2.15682144900254    8.02135811834708    1.99437293425280
H        -1.75831071961342    8.83169065841774    3.52049178325715
H        -2.87253467373021    7.46022065847473    3.51322745994277
C         1.70311594768324    5.36447833518524    5.55522809995700
C         2.15031855540134    4.05041446383009    5.68077370580081
H         1.80585584028967    3.31305990047790    4.96778199854660
C         3.01290220649295    3.69701285837969    6.70095628616747
H         3.35031278645450    2.67500437922023    6.78868065225866
C         3.44503238170090    4.64995434821766    7.60863837664841
H         4.11887432272377    4.37284722033668    8.40521151088921
C         3.01835031417089    5.96284902348553    7.48601437734544
H         3.36318012454827    6.70960242670435    8.18622932794742
C         2.15960954935459    6.32595107649265    6.46475069209214
H         1.84114734377554    7.36012974396340    6.36251818929981
C         3.72748950532612    7.13739054805024    2.00279943729275
C         3.70332191303445    8.54453630026784    1.87858825357655
C         3.79501378264655    9.18824763389812    3.13832554232825
C         3.93585282073393    8.28076778980843    4.20026013496102
H         4.08932869422937    8.59207653510457    5.22838604855176
C         3.78597525530821    9.29152918976543    0.57686811609310
H         4.62479165400716    9.98824354231232    0.61549466935081
H         2.88198280350141    9.86998411397302    0.38155550509959
H         3.94648972195265    8.60318756851966   -0.25058726741462
C         3.76353431917523   10.68007343926278    3.29849029285983
H         2.89339612382562   11.09870459920785    2.78526487884186
H         4.65925864631165   11.13100848406960    2.86625975619199
H         3.71251281623058   10.95212929595905    4.35195650776891
C         3.51959478094829    6.18195669395540    0.91319612855193
C         2.49026778789092    6.38541105382819   -0.01374447106804
H         1.86768535324458    7.27355629931468    0.05701654550571
C         2.26148358255141    5.45617415697049   -1.01190919137430
H         1.46769584114415    5.62179408716391   -1.72556877364165
C         3.03813377260242    4.31123980352969   -1.09428396659218
H         2.85216106696063    3.58702820808185   -1.87292107067690
C         4.04613704867654    4.09401023166458   -0.16946569476304
H         4.64753821558534    3.19894609648970   -0.22582632669399
C         4.28478592733931    5.02016313871536    0.82802578883803
H         5.07053400879774    4.86022800683125    1.55439778857855

