85
CSD_code = ADAMEZ | q = 0 | S = 0 | Stoichiometry = C31H49BClNPRh | MND = 6
Rh        9.90616885290575    4.05174313787459    3.30109411394391
Cl        8.96628757824790    6.14123369211140    3.21533810497412
P         8.13002835086359    3.25382703300806    2.11392775056417
C         6.54858262719820    3.08640942823819    3.09624505729605
H         5.80751146217408    2.55963974805995    2.48596024529549
C         6.87940486353827    2.25847896768610    4.33520659982171
H         7.69257817855469    2.74564606387325    4.87626374200829
H         7.19562747273899    1.25211072645633    4.06989442965749
H         6.01501781999231    2.18614562322749    4.99420383008670
C         5.97138026519179    4.43640525937561    3.51039762085932
H         5.17986971398155    4.28997282126071    4.24437056653901
H         5.54631200775896    4.96736725172082    2.66231598296827
H         6.74133817195742    5.06221404958244    3.95657315184814
C         7.59935639692368    4.36770990036288    0.70532526719506
H         7.20550863722563    5.23833974411477    1.24367768113356
C         8.80902728812658    4.86105352815177   -0.08523119277087
H         9.26514204195000    4.06605835123807   -0.66956881308417
H         9.54718084233789    5.27237181199743    0.60426080857328
H         8.50750797938794    5.65576512063350   -0.76622424698022
C         6.51591868503728    3.83429596882116   -0.22387130530229
H         6.14718940715585    4.64636153124825   -0.85017203418900
H         5.67281037804486    3.43146859902738    0.33197806842798
H         6.90982939210046    3.06355082671685   -0.88216291807657
C         8.34726781247709    1.49845091727147    1.47689009928945
H         8.76833646751857    0.98859957318509    2.35193404326616
C         9.41631277394812    1.46629752289933    0.38902376486226
H         9.77056483104691    0.44681621623459    0.24280438808378
H        10.26734029566722    2.07953269614194    0.67980392033430
H         9.02345412998877    1.82661778324862   -0.55887805330832
C         7.11725681923587    0.70751435871879    1.04178928046062
H         6.61312952272460    1.16268163420812    0.19560537692841
H         6.40385103232391    0.58914710004600    1.85247777865541
H         7.43942085244494   -0.28981927116969    0.74245292128287
B        10.93448631340351    3.41775608489304    5.19647263747157
N        11.69491861928151    4.35711599795094    4.31102238103694
C        11.81360421454165    3.31117607708306    3.34707542558401
C        11.04045579094588    2.34120108254828    4.05749951972173
C        10.44066261193765    3.53263965597165    6.72622877234986
C         9.78363923622151    2.23270228947462    7.21719824206853
H        10.45171992554461    1.38490338686286    7.08606501227200
H         8.85536582145054    2.04328958683835    6.68575248478523
H         9.54566677343346    2.31571871153082    8.27741425751723
C         9.39206438249961    4.65203320730841    6.86751982243064
H         8.88003597096277    4.57232341090098    7.82562123513257
H         8.64805453869825    4.57914702652929    6.07308716467705
H         9.84363045718369    5.63567565584865    6.80656359591979
C        11.61522131035651    3.79759160140802    7.68360607133551
H        12.13333034554267    4.72337687968730    7.45433790782426
H        12.33449226462160    2.98154134682884    7.63275733050167
H        11.25077152191437    3.86568698178615    8.70797920292329
C        12.51795395151427    5.56486809432431    4.37336470943372
C        11.84653148228705    6.61218913282714    5.26517443295361
H        10.83192060631633    6.79217691531384    4.91626114879042
H        12.39883608417563    7.54728339609437    5.21277318369627
H        11.82108742388116    6.29738241346618    6.30250626454967
C        13.90141613319992    5.20071562957909    4.93177251032544
H        13.80808613296231    4.67998958656836    5.88202640102471
H        14.48437096277257    6.10526992226971    5.08684998478509
H        14.44182729339896    4.56166717839781    4.23739795910989
C        12.66508578305164    6.18351060895074    2.97639862191027
H        13.32520606663551    5.60164879195517    2.33965455517952
H        13.07939610940629    7.18499538440319    3.06162152532039
H        11.68362349405634    6.26283573618342    2.50675266467136
C        12.79379844884082    3.20186021248180    2.25423892088599
C        14.04450064635888    2.63728179690122    2.49811587051613
H        14.28763223807145    2.28542774287469    3.49105098959808
C        14.95926442100775    2.50773704797255    1.46889904116228
H        15.92803077303472    2.07304281016925    1.66673153596899
C        14.63359705284014    2.92526251898718    0.18855569109584
H        15.34974990501771    2.81783290321917   -0.61228435137231
C        13.38814395939833    3.47693844104991   -0.06230178090529
H        13.12932289680161    3.80134758890222   -1.05920351043015
C        12.47383623100570    3.61853817689180    0.96518128097791
H        11.50470464852565    4.06682067224262    0.78362203916023
C        10.86221743029574    0.93093539897926    3.75020103880588
C        11.59035610919724    0.29355443742710    2.73820373610475
H        12.29727616664991    0.85341910371913    2.14780939659013
C        11.41708686653148   -1.05012421508534    2.46988278314294
H        11.99575138439213   -1.51250517963154    1.68234781809588
C        10.51139104343565   -1.80443813848841    3.19627288056271
H        10.37784008112208   -2.85468740420646    2.98294783689161
C         9.77640906483930   -1.19143328337896    4.19772079770150
H         9.06013187034553   -1.76445868283092    4.76960669645258
C         9.94916481862040    0.15064396911257    4.47022956779270
H         9.35561937069070    0.61418459334458    5.23801066518803

