67
CSD_code = ADANOJ | q = 0 | S = 0 | Stoichiometry = C30H34ClNZr | MND = 12
Zr        3.44364933663016    8.66106493856905    1.21778087592090
Cl        2.60794949921801    9.96821347551786   -0.57393552660527
N         1.75178695079503    7.63098733991029    1.67492448197571
C         4.23949312622453    7.03384615023025   -0.53216515700831
C         4.66766461514109    6.54850076699788    0.72880655156037
C         5.67319393949145    7.42231048770879    1.20290242490976
C         5.85770139086753    8.43837791910276    0.24089143424201
C         4.98571898627410    8.19039263875229   -0.83030652593556
C         2.99762011884199    9.76671184867120    3.42520542821217
C         4.30302809446267    9.23247532231192    3.54539457457589
C         5.14817332606356    9.96380637697362    2.68585291525109
C         4.36759376636961   10.91049578433591    1.99821271703588
C         3.04011116655329   10.80379529093048    2.46777459784928
C         0.57998735635283    8.22323546920508    2.13696415638715
C         0.20539073367438    9.46193426327942    1.77486623443638
C        -0.29143296851768    7.50452304556156    3.11579569649932
C        -0.91209936565083    6.28844644746830    2.84626945511355
C        -1.75554084610160    5.70644400904033    3.77790031158460
C        -1.99427197816224    6.32304475608235    4.99356079197303
C        -1.38474030723990    7.53491045698938    5.27207233655803
C        -0.54577696674688    8.11867843018001    4.34143132006680
C         1.73708064167909    6.22173265531182    1.51977802882481
C         2.14457566897981    5.36903357963542    2.56138617949898
C         2.10434760565061    3.99555145285294    2.36061095311544
C         1.65439724458222    3.46466976253712    1.16758791929121
C         1.24229450576832    4.30419040371387    0.14771544891590
C         1.27882939553695    5.68271016629429    0.29766884034072
C         2.60656409763439    5.92739088338243    3.89094834838257
C         4.08235212262956    5.60768216311631    4.15270407467826
C         1.76222494036333    5.37837920230026    5.04518153167044
C         0.81347098098534    6.60417406992290   -0.81334328194753
C         1.06699328217780    6.03002661811413   -2.21158159139930
C        -0.68459668124702    6.90917956002821   -0.68122441465904
H         3.59022290462324    6.51337224886642   -1.21953407765208
H         4.42391617671854    5.57433406739986    1.13275720337681
H         6.30445214396830    7.25373139068694    2.06727056898607
H         6.62874968618133    9.19787620591019    0.25450796974437
H         4.95179534570126    8.74089481400603   -1.76105774612256
H         2.16031809408118    9.53757785565309    4.07156130149851
H         4.62959282256004    8.52797637581860    4.29959299955458
H         6.22749243499118    9.89635734621105    2.66174303230957
H         4.73582343364315   11.67257017980902    1.32142111922494
H         2.23358078160342   11.48525535899816    2.22999874185378
H        -0.68212567531662    9.90418801686175    2.19321020387361
H         0.72789180437947   10.02057332674097    1.01505695404761
H        -0.75201094739553    5.79061845676093    1.90462637421590
H        -2.23009609657919    4.76384455966202    3.54730795971357
H        -2.65217713176792    5.86523509321590    5.71724202652150
H        -1.56594191267122    8.02809011500267    6.21596447791748
H        -0.08417639865958    9.07010999265013    4.56369049095193
H         2.41657837838308    3.33025137598590    3.15144766914420
H         1.61800499187017    2.39401547949553    1.03204228642306
H         0.88109191241890    3.87351474403443   -0.77281962591819
H         2.48710624878663    7.01984879782559    3.85987517347291
H         4.36778606543379    5.96333203596360    5.14115749951431
H         4.72200534843419    6.08385632719953    3.41310218735108
H         4.25396266536328    4.53409515264120    4.11927780746102
H         1.94762901226907    4.31660403359749    5.18751473919347
H         0.70351391239044    5.51818292101738    4.85293592476466
H         2.01588872182777    5.89373930351484    5.96917012319468
H         1.35981066457933    7.55783348626596   -0.71315544777735
H         2.05104454623253    5.57404363440265   -2.29467635083891
H         0.99574961602483    6.82710418288557   -2.94779833339806
H         0.32310548568587    5.27651323227863   -2.46214600233142
H        -1.26223896937636    5.98580724236714   -0.67931319996409
H        -1.00681642961556    7.51583377924436   -1.52425834097757
H        -0.89296341604978    7.46080313199693    0.23065315935592

