63
CSD_code = ADANEB | q = 1 | S = 0 | Stoichiometry = C27H31ClN3Ru(1+) | MND = 9
Ru       10.59642007450261    5.54966876147017    1.55119096427270
Cl       12.83205369080860    5.49315130007717    0.85358441601418
C        10.57685946794986    7.08040006685888   -1.54566946487456
H        10.10843071388501    6.96000828196750   -2.52309266702228
H        11.61621962655220    6.76705949975499   -1.62599241110918
H        10.57688097462099    8.13672956255283   -1.29515840766094
N        11.69894304605126    6.38204046851156    4.06066332102301
N        11.46112828822226    8.21300831869410    2.94955699835619
N        11.23006943299214    4.39564719935861    3.07891889701261
C         8.37348722789865    5.95206264762983    1.41175600758789
C         7.36455698167765    6.56122507274658    2.34795402313913
H         7.08275681481154    5.89213028382071    3.15173766853030
H         6.46108210050706    6.80813561550981    1.78969775868968
H         7.74226656949164    7.47945578461172    2.79246463545822
C         8.61924312312562    4.54651207405462    1.39087396062298
C         7.96951594589469    3.66097241384262    2.42326252416957
H         7.98984005186557    4.12811922926193    3.40590031163845
H         8.47798836394149    2.70571680564709    2.51705233376671
H         6.92922831019994    3.47208780193453    2.15528936408698
C         9.31786174436417    3.96825720416922    0.27905166673001
C         9.23218180257989    2.49153628984631   -0.01337062060655
H         8.89370420196884    2.35655009965130   -1.04060153033642
H         8.51652752753940    1.99083316824099    0.62978739382692
H        10.19482781709056    1.98935823825309    0.08373084991237
C        10.01354450450040    4.80856734264896   -0.60574116278448
C        10.84711526863502    4.25242051665089   -1.72186403127921
H        10.84396191498519    3.16876132810585   -1.74161769820650
H        11.88186265906679    4.57818765363831   -1.60373073904778
H        10.48803825016302    4.61965711258060   -2.68237875794273
C         9.86673903548851    6.24100935107889   -0.51863207209476
C         8.92456704565052    6.78440415081723    0.38370771042612
C         8.37845744017677    8.17683597042816    0.23715442302204
H         8.86898969960677    8.74013490083749   -0.54802490250667
H         8.44011642303406    8.74451590361711    1.16217078900926
H         7.32274555027538    8.09718009309530   -0.02581153257545
C        11.23796025096933    6.89667472610476    2.87844762709776
C        12.18721903719143    7.38975375207538    4.86047317069761
H        12.59608183569574    7.22478037334927    5.83467770325307
C        12.03550389665088    8.53246357992551    4.15696036928717
H        12.29520954010991    9.53997811467136    4.40900816240496
C        11.28837397632719    9.16085384628695    1.87092774288478
H        10.53174042937550    9.90062852493062    2.14976576749052
H        10.94950249805288    8.58739351917584    1.00512840761413
C        12.59839167670184    9.84247851157944    1.55684641555321
C        13.65390836788696    9.08638886981789    1.06183006401842
H        13.52153678451625    8.02661724682853    0.89631222960428
C        14.86685362929823    9.69026789403714    0.78483032156105
H        15.68330541587987    9.09856262475693    0.40084072517808
C        15.03126545946122   11.04964226968966    0.99696387856212
H        15.97732383085266   11.52033372048219    0.77843837189889
C        13.98083452243391   11.80500479888973    1.48896699526922
H        14.10490347580078   12.86422111326128    1.65425116539461
C        12.76695768227321   11.20234389449936    1.77313006110882
H        11.94803076322939   11.79508336336178    2.15604852148033
C        11.73718903322149    5.00562021081296    4.17069979881215
C        11.29391256922229    3.06386975128492    3.02244036039628
H        10.93686714793382    2.60134254910581    2.11324826775200
C        11.81017601693125    2.29619578152267    4.04638482447342
H        11.84034449846302    1.22365265177619    3.95061888182184
C        12.29626854655771    2.92562102413676    5.18692753430418
H        12.70559911196992    2.35137564482615    6.00183160124469
C        12.26754815238576    4.30668560298184    5.24732964924499
H        12.66048016047834    4.83752552783506    6.09815136231445

