61
CSD_code = ADAPUT | q = 0 | S = 0 | Stoichiometry = C31H23IrN2O4 | MND = 6
Ir        2.76708762225508    0.69586197996143    4.98633664702065
O         0.17849456137604   -4.68032824443012    5.92271416616052
O         5.24238681186110    5.91270164272468    3.21147317012524
O         3.61583331749774   -0.58109417579295    3.37940706134281
O         1.40472645220379    1.38851023304367    3.37466282980695
N         1.73125868002457   -0.95573969940662    5.44500832305654
N         3.80273902822190    2.34417115863738    4.51716018893340
C         3.97183556647597   -0.07157214685325    6.38698885651624
C         5.13596330594622    0.47331519105015    6.91824392307760
H         5.45290808448293    1.46140131614159    6.61365288786969
C         5.90020524851997   -0.21910413909801    7.84115236592988
H         6.80160503005448    0.22576321772152    8.23891709866518
C         5.50736664198217   -1.47925075087434    8.26789410101554
H         6.09667583155437   -2.01178981056494    9.00031840373608
C         4.36036993618440   -2.05051450938092    7.75874818058818
H         4.05603510511631   -3.02023292639291    8.11433375597977
C         3.59516522044067   -1.36732905667502    6.81178797096149
C         2.37051846181284   -1.86705830902924    6.21227225173961
C         0.55491059970149   -1.22732939026758    4.86887819347534
H         0.11381450535649   -0.41893632654465    4.30374068567238
C        -0.09060580864540   -2.43875429568409    4.96677585616632
H        -1.03860687197533   -2.62507886724394    4.49240606104119
C         0.56920525509868   -3.41173723214820    5.70668504504826
C         1.80332018539650   -3.14976670130332    6.34192426943047
C         2.14978705126809   -4.39207561284319    6.96442720447051
H         3.02529321407419   -4.63197246510512    7.52830183442424
C         1.14614388543188   -5.25234837873816    6.67661456692863
H         1.00054310435761   -6.28171171183554    6.94041286930641
C         2.00132233254391    1.96225316656806    6.33254011663279
C         1.08414804612796    1.69740955354427    7.34395740525028
H         0.74577239339017    0.68354900030511    7.50862624266377
C         0.59699003912079    2.70539141989858    8.15753950946133
H        -0.11539180360181    2.47404361763439    8.93704402265483
C         1.02868989935923    4.01232399859342    7.98436667618002
H         0.65864789025341    4.79563383539796    8.62998795656329
C         1.93506776162484    4.31037808592423    6.98899220825684
H         2.27699007929874    5.32545546492423    6.87912183993048
C         2.41675008643033    3.30245906180278    6.15166077968974
C         3.37710124276780    3.49744466120930    5.07995642169610
C         4.73844864752876    2.33508889110227    3.56124272364645
H         5.02989982072526    1.35859777574579    3.20209606707688
C         5.32372497652001    3.46808862764021    3.04392060769880
H         6.07737900129210    3.42672849515791    2.27663039235051
C         4.86737961505845    4.67113747191248    3.56730576378856
C         3.89254720437559    4.71273666367175    4.58868404995626
C         3.68676285006746    6.11056903974187    4.82239107928102
H         3.00789358075948    6.57829654468820    5.50235739340738
C         4.51610948255897    6.76203672398108    3.97502433021332
H         4.68329253433284    7.80949639637378    3.81601451525197
C         3.96093831047666   -1.66688881372387    1.30710483864812
H         4.71601979947500   -2.18723749434158    1.89141404453536
H         4.43867998715918   -1.15441083955060    0.47431379756799
H         3.25540106975751   -2.39001695475112    0.90325868960848
C         3.23296978850182   -0.66435469288360    2.18851135782400
C         2.22003356071986    0.07347718877489    1.56847427891458
H         2.05178823252753   -0.11793830087832    0.51868683881118
C         1.40403835156916    1.03532625468901    2.17175382068460
C         0.39130185172554    1.71354317194436    1.26281590360250
H        -0.18526192021362    2.43757472892784    1.83346193423018
H        -0.28118945347519    0.97338236636583    0.83356762201844
H         0.90357471516784    2.22192490054119    0.44853800341636

