95
CSD_code = ADASOQ | q = 1 | S = 0 | Stoichiometry = C40H44AgN8S2(1+) | MND = 4
Ag        0.23267989232539   18.69739427093359    6.66509780344542
S         0.12509260402816   19.45258494469927   11.07092320950216
S         0.01970025942357   17.85831295096370    2.28038223521575
N        -1.46493541533957   19.82214162461366    7.88854995126507
C         1.53683647287924   19.60452460012734    3.74060147323941
C        -1.80438053594505   19.57766328875295    9.13596429960629
N         1.09526122431247   20.02554419877065    4.90624200719181
N        -0.71388548305303   16.78775657541919    5.61645933387324
N         3.18045659263774   18.18541174470717   10.06843519835191
N        -1.77126357859170   15.53979716738738    4.10593187791961
N        -2.84834201583850   20.33835075395900    9.55497646049870
N         1.88065337421112   18.11690661000485    8.26219256853208
C         1.83196177321379   21.77545964511244    3.67820493844801
N         1.99637806706416   20.61441543552429    2.95745081956085
C         3.58871966616958   17.09464156264993    9.33487263087763
C        -1.27547211766504   16.76259757703677    4.42691906723465
C         1.48334799320369   18.18552745759589    3.33835278099790
H         1.39637317397708   17.55602801300597    4.22447371097164
H         2.34388181239415   17.88475585466086    2.74361386060734
C        -3.20476391048836   21.13516237671497    8.49077947093566
C        -0.84063331783310   15.51942295546864    6.12471697627059
C         2.15768039613639   18.75416775617179    9.37939739878609
C        -2.32548595534965   20.79364172461336    7.44278853548341
C         2.76243538834676   17.06798144926093    8.19292428239505
C        -1.08044122618533   18.60518348850393    9.97762556857176
H        -0.52408262553653   17.91508645806946    9.34220242047226
H        -1.74024420462815   18.05465001350701   10.64563211640274
C        -1.50327694054822   14.71520492290527    5.17489994459845
C        -2.41586512372306   21.42208699606783    6.20593237598961
H        -1.73493468871907   21.16353213487565    5.40965486896681
C         3.72088697940810   18.56586681395355   11.35060767974712
H         3.54556608846703   19.63173453204357   11.50945298842064
H         4.80041065990954   18.39522566835695   11.31990869061714
C         0.96960039824173   22.33107972300397    5.88592524662066
H         0.53148556881481   22.02703370898158    6.82442081642563
C        -1.30962600378988   17.94347712065547    3.54227648039873
H        -1.14981886862955   18.84662775213299    4.13245353602755
H        -2.23816434513015   18.01974598693745    2.97939529841601
C        -0.42484166264578   14.98741247270808    7.34004176395310
H         0.08917771967483   15.60484303609759    8.06052818544710
C         2.91200490355781   16.07738493328941    7.22912323610783
H         2.27107759886386   16.05915057869313    6.36078387074180
C        -2.39425327000482   15.11734261629820    2.87538294619331
H        -2.84706763784082   15.98368973003500    2.38918573045083
H        -3.18868661963449   14.41067108481190    3.13044946192361
C         1.26776965739479   21.38672619103291    4.91028382871464
C         2.49693350844476   20.54756976783917    1.60624614781963
H         3.30408394484711   21.27939894883885    1.51456708133995
H         2.91220916286065   19.55360632129684    1.42819647195821
C         1.39067565840564   19.93137772795610    9.83116097549931
H         0.86925000478592   20.37656921179219    8.98319732851234
H         2.01376459115680   20.67487692939686   10.32468353705551
C        -0.68508408927956   13.65470239529060    7.57087759146449
H        -0.37343609111063   13.20467822923061    8.50088411814585
C        -4.18819294314254   22.10068038721435    8.32732952013990
H        -4.86392707578762   22.36577539520039    9.12513894998611
C        -3.45245759483495   20.39205984623774   10.86377189895607
H        -3.29648610668567   19.43630102265729   11.36791213060737
H        -4.52740412235982   20.53875280815886   10.72787960008487
C        -1.76555931416579   13.37392301538103    5.41624054009646
H        -2.27270804246940   12.75397977897363    4.69383219029351
C         3.89263569566912   15.13312234605694    7.43798346304418
H         4.03707347631769   14.34582593084184    6.71422426800851
C         2.11134937437611   23.10532645182431    3.39606885541291
H         2.54349529629613   23.40935422368748    2.45574261954392
C         1.80810147418575   24.02876508925164    4.37483578406236
H         2.00771229806442   25.07344805914598    4.19351139286886
C         1.24569963503515   23.64919531636758    5.59726844427860
H         1.02438058089814   24.41228216327971    6.32751241671741
C         4.71176333319453   15.16645979199728    8.57050641355910
H         5.46788791218279   14.40628024056651    8.69089422459250
C         4.57765819571110   16.14200376576865    9.53646184541112
H         5.21387228413735   16.15720356100504   10.40731190547987
C        -1.34508210354806   12.86289151099383    6.62647942211926
H        -1.52777192971721   11.82367613253031    6.85177094684494
C        -3.39194212993150   22.38167410399775    6.05227290873158
H        -3.49108592850526   22.89383970712931    5.10758400371974
C        -4.26364879811611   22.71323369238769    7.09374691493422
H        -5.01361051256577   23.47063425273838    6.92644903718002
C         3.09295918590014   17.75873267445220   12.48358994487934
H         2.02586047420956   17.95733825962169   12.54677369718936
H         3.55324135848878   18.03536537965391   13.42735753838704
H         3.24329694370418   16.69425296267317   12.32067817014757
C        -1.38651762534194   14.45922817587055    1.93690109721634
H        -0.61643690653673   15.16972237645545    1.64665030016360
H        -1.89367822523185   14.11318555937433    1.04130317667814
H        -0.91472892116625   13.60810621210373    2.42192424573808
C        -2.86902821692384   21.52600045300638   11.70231277297694
H        -1.80970309929443   21.36021863430364   11.88265079210586
H        -3.38019051357282   21.57255906469483   12.65924103550420
H        -2.99407458390601   22.47852266335653   11.19303583214449
C         1.39892799806626   20.84529472802258    0.58883735033139
H         0.61098532531151   20.09854359241099    0.64956536676757
H         1.81567828666172   20.82842352344657   -0.41371798028627
H         0.96778615776607   21.82669111441497    0.77123576517223

