30
CSD_code = ADASII | q = 0 | S = 0 | Stoichiometry = C10H14Br2N2OZn | MND = 4
Zn        0.93969995366937    6.28851789634087    0.86553401607355
Br       -0.08469847734421    7.84118631876134   -0.71669592516770
Br        3.18537788716166    5.99394348031450    0.17293475515885
O         0.05406612918391    4.95729988683122    1.75280064558520
N         1.10915294547908    7.60037880610559    2.48361643647183
N         2.48004116972467    9.50456094768595    0.16934961326707
H         2.02061732001721   10.41722165134683    0.10690100074643
H         1.74891387632893    8.81799171968829   -0.19671461218278
C         0.27296001742194    5.85277780448672    3.97061466537923
C        -0.08323700902136    4.84179530866308    3.02354629871162
C        -0.63777458830845    3.63713781918561    3.52871145184442
H        -0.90615999301427    2.88381438433997    2.80310488094260
C        -0.81916123784921    3.42939474610520    4.86609516761419
H        -1.23962043082552    2.49697701529522    5.21428760983088
C        -0.46426681043604    4.41763917006175    5.79324016967165
H        -0.61048020772127    4.24744319664463    6.84860677076102
C         0.06299356987178    5.59485911670569    5.34505307999931
H         0.33669936027328    6.36584057739635    6.05321939110557
C         0.79435016261567    7.12903964847642    3.64467252006192
H         0.92409104989037    7.79381201858528    4.50874578596958
C         1.52543944416016    8.98671943376405    2.42515809072564
H         1.70701483720743    9.36473506577065    3.44064931470787
H         0.70259407814975    9.57162118424692    1.99367830621470
C         2.79041332103561    9.19995449126703    1.58324374054521
H         3.37317351975720   10.02750706707948    1.99258642599816
H         3.40418919361132    8.29657911013779    1.60403379953323
C         3.65415360554699    9.46730679683327   -0.71482547725334
H         4.40337234217180   10.18237696837161   -0.38228129014982
H         3.34690138198748    9.70346305182099   -1.72990087209387
H         4.07538358916341    8.46200531765901   -0.69986576006704

