42
CSD_code = ADAVUZ | q = 0 | S = 0 | Stoichiometry = C17H16CdN6S2 | MND = 6
Cd        2.14124556087698    3.75931836289142   22.95654769754340
S        -1.99125495565550    3.96640402463604   24.84486714879255
S         5.38034485772081    6.29505787487431   20.81624785108278
N         1.03111659280240    2.48903663000945   21.40466637852976
C         4.96635658319303    3.10202979343259   18.82103688108084
H         5.44424783818404    3.26807416212343   17.86761302055331
N         1.30921406912900    1.82623493632791   24.20350283483675
N         3.59030444744961    3.30398169009108   24.65972809736940
N         3.73246655997279    2.72125375834443   21.28515264870219
C         4.68402050624940    4.00746441062925   24.90092880164824
H         4.96174179203502    4.72982502750135   24.14165234604972
C         5.69283035373245    3.17061604086293   19.99973252812814
H         6.74910834153692    3.38450092964177   19.99113437229982
C         3.87832067494805    2.19369728096526   26.75367205669693
H         3.52004931633946    1.46866357917380   27.46872747360264
C         4.06807989811790    5.78096033815567   21.54338313585180
N         3.10601484961325    5.37477276715888   22.08366886306363
C         3.17490068956844    2.40997752489463   25.56528179832928
C         1.93896482940046    1.68806273094877   25.29537284038048
H         1.57026399427601    1.04904895614349   26.10808815704517
C        -0.54904559899744    4.38820738797992   24.32117809149298
N         0.53033207791987    4.64312687231516   23.93548070455348
C         5.44207736964540    3.85148090181096   26.05416136079360
H         6.32765985017675    4.44659924779121   26.20953601767730
C         3.61218614695590    2.82369635657496   18.89348566486407
H         3.00867556797700    2.76192665333608   18.00032119718716
C         5.02843157745332    2.92195524251475   26.99751610653350
H         5.58892186877439    2.77351103690447   27.90849471836350
C         3.02755290951960    2.64837864318626   20.14637101424428
C         1.60988496022586    2.34221361313917   20.28979532124141
H         1.08974831086381    1.95553245169128   19.40265579211614
C         5.02737672137958    2.96355087607514   21.20184664273216
H         5.56394422406723    2.99763745509375   22.14168006603104
C         0.03874991580184    1.20332102595292   24.02850426412578
H        -0.72613861370291    1.93601399613495   24.34585880555971
H        -0.07124809536878    0.31914127317706   24.67576546800039
C        -0.25297330392445    0.81853822895069   22.57749183728854
H        -1.22432009008260    0.32223261539969   22.55383609084951
H         0.50416014928334    0.11387291548676   22.22404443826971
C        -0.30255840430509    2.01811929548111   21.61642375305382
H        -0.77641149843233    1.70786776282572   20.67110467522129
H        -0.89124284477537    2.81859532943680   22.07414303830946

