48
CSD_code = ADAZAI | q = 1 | S = 0 | Stoichiometry = C16H28ClN2Ru(1+) | MND = 9
Ru        6.09801993124413    8.39688152600211    2.92444184256569
Cl        7.83903978166718    9.83023410260796    3.53073453681117
C         6.56102515649641    6.22262822484542    3.44722307454392
C         4.26160643476849    7.04131807122419    3.10565480065757
H         3.32425649151099    6.98631546596465    2.56303951850053
C         6.62814671265820    6.98836043797866    4.62115353637455
H         7.51197385534527    6.94478347284297    5.24561095180529
C         5.52639274865924    7.77457316139579    5.04790370164772
H         5.58211921440976    8.29560374532412    5.99774727796490
C         5.36047952776805    6.28145515593144    2.68018580382962
H         5.26355910225267    5.65123267234852    1.80174223266109
C         4.32465820722727    7.78803807073351    4.31645399708592
C         3.10142812513574    8.46486889339901    4.85419157039937
H         2.51755526656372    7.73296811946612    5.41529518000103
H         2.46645668519522    8.84974694400954    4.05836824443996
H         3.35852991288750    9.27274846814036    5.53587038849010
C         7.68429638046812    5.30320248943849    3.03340491318179
H         7.54996754069969    5.05298843860663    1.97376988590765
C         7.58482344447916    4.00515762875576    3.84370661510008
H         7.69497949755653    4.20824768160801    4.90628768676793
H         8.37244765160887    3.32150276317324    3.53994726212658
H         6.62477332232920    3.51992617483407    3.68187194622950
C         9.05880758069239    5.95321155673760    3.21164902869712
H         9.05391594926688    6.98269433963535    2.85166169826610
H         9.80728245652410    5.39426905037592    2.65720345420407
H         9.35670274619723    5.95797482521268    4.25650398906703
C         5.97630068430907   10.63267131747407    0.93765148013240
H         6.87995409169427   11.09391143947480    1.35832653235486
C         4.89121927729337   11.23367267697123    3.01067161875712
H         5.84379711512874   11.63496596230266    3.36521462669779
H         4.33928129590723   10.83547383619121    3.86522151385834
C         5.17846414138702   11.67568093841523    0.15674620685724
H         5.77065343194639   12.03706548359995   -0.68320648223851
H         4.26911911307759   11.22165355323886   -0.24504734660665
C         4.82030086777535   12.83621787255830    1.08381277389478
H         4.20407586409085   13.55958953541947    0.55111289211342
H         5.73379315251684   13.34189010090440    1.39876375354984
C         4.07512542131310   12.32052435284563    2.31168711659591
H         3.89211770635583   13.13693726810963    3.00872143694848
H         3.10537186379362   11.91492337947091    2.01167717592417
N         5.18526478876390   10.13363562215073    2.08195527534692
N         7.09595192085791    8.49868329224905    1.01652418533626
H         8.00676758140490    8.91632537634164    1.25599067320676
H         7.27566566824324    7.60412411209216    0.55656896911860
C         6.39044527253839    9.41486420135189    0.10867165314255
H         5.50421525091016    8.90935649709557   -0.29138468583813
H         7.02545112946931    9.72204132696991   -0.72893155335810
H         4.28232063761464    9.82386037418309    1.70302904688498

