109
CSD_code = ADBPPD | q = 0 | S = 0 | Stoichiometry = C34H62N10P2Pd | MND = 4
Pd       -0.00012608104053   -0.00034028053887    0.00002571966378
P        -1.39703198159226   -1.51993765293809    1.01726065003223
N         1.54780573031779   -1.25401104799138    0.30357896029822
C         2.30449646756388   -2.30104660650411   -0.09634566279139
N         3.26940221586889   -2.64808269762644    0.72757544962050
C         3.15289913656519   -1.76482463417160    1.77238359574749
C         2.07024409469655   -0.90483938126667    1.49753508387420
N         1.63816133309770    0.08498848953629    2.29903232596158
C         2.34030018851082    0.16819608340092    3.41328715618296
N         3.37567370256816   -0.56996633959843    3.78824475079455
C         3.82047882913550   -1.54077188343645    2.98285749958502
N         4.92295579585822   -2.22950332422809    3.35950423997204
C        -0.92546242109280   -3.30217924375889    0.96709980972873
C        -1.74630794475789   -4.23756809715231    1.85030475706446
C        -1.27650368069731   -5.68411950775416    1.69908087374947
C        -2.07985905981433   -6.63218795575626    2.58105190480994
C        -3.20704188406451   -1.52021399650875    0.66177960159781
C        -3.54680393795071   -2.19852455720707   -0.66359064197749
C        -4.94264148346982   -1.81213118420951   -1.14937322313092
C        -5.26342927073483   -2.43538451478987   -2.50177464131800
C        -1.37238041137419   -1.10518105892045    2.81256313106242
C        -1.45944278276133    0.41174103328089    2.98447660254838
C        -1.32166964677141    0.83505093908823    4.44405701686126
C        -1.30180983911109    2.35251502720219    4.57811883577693
H        -6.27435935725868   -2.17839518589790   -2.80853273936000
H        -1.19493007069271    2.64690720523731    5.61956817653150
H        -1.73128181602458   -7.65461346768524    2.45874827379534
H        -1.97781814205422   -6.35821287210579    3.62885163993328
H        -3.13523739056301   -6.59623748011052    2.31913365019879
H        -4.57344255438685   -2.06604733802766   -3.25652931184539
H        -5.18211161407103   -3.51960381843888   -2.45503734267406
H        -2.22410066532680    2.78282378824413    4.19295819570734
H        -0.46840118468898    2.76640463368060    4.01468390542485
H        -3.51608244510833   -0.47116988110045    0.62145974288544
H        -3.73898470473625   -1.99083927574386    1.49424576178617
H        -3.49073038271712   -3.28409942551782   -0.55432396951481
H        -2.80929640882345   -1.90169635934611   -1.41417265324922
H        -5.00345115726399   -0.72460034203650   -1.23558709853103
H        -5.68422347374518   -2.12926304741443   -0.41078139469232
H        -0.42306231426067   -1.46389318596348    3.22305351354993
H        -2.19431801257168   -1.60695716231341    3.33295050213358
H        -2.41527129559216    0.77081673111563    2.59176787055354
H        -0.64195151360345    0.87184684930310    2.39926902969145
H        -0.39472213115253    0.42343814239260    4.84874068372059
H        -2.15157250320595    0.42619678637936    5.02705545280864
H         0.12908539049416   -3.35367838015037    1.25550201212611
H        -0.98562096817229   -3.61545255781261   -0.08097172160766
H        -2.80308566831810   -4.17966673133914    1.58355357305740
H        -1.64649315335859   -3.94058118391613    2.89603332357864
H        -0.21869207996896   -5.74834971999177    1.96296192524358
H        -1.37508262795356   -5.98835924138978    0.65458925081671
H         2.12480185616547   -2.82156176029904   -1.02025635585711
H         2.04456820197014    0.93734887012453    4.11743323132361
H         5.25240063025378   -2.11193385974171    4.30136408622879
H         5.15299774789402   -3.06391147198496    2.85032735075787
P         1.39692059511444    1.51958600913571   -1.01702712217024
N        -1.54753845195985    1.25361740086696   -0.30361937704437
C         0.92565566725695    3.30193765774349   -0.96685065377414
C         3.20699896439986    1.51988557296117   -0.66174912508623
C         1.37196671605053    1.10487873110354   -2.81232521886919
C        -2.30348348998272    2.30104173110658    0.09666659751683
C        -2.07036476890814    0.90500088245248   -1.49756143252184
C         1.74646712337745    4.23702122937380   -1.85040285724953
H        -0.12893525074731    3.35360805514010   -1.25504379442938
H         0.98607798355600    3.61540871232126    0.08115011725466
C         3.54718920483652    2.19825595152113    0.66348569697218
H         3.51599826380220    0.47083471970037   -0.62144401291155
H         3.73883458842385    1.99042488998320   -1.49432986156573
C         1.45863565783868   -0.41207974798881   -2.98413834940845
H         0.42265696921110    1.46382717950537   -3.22263766644560
H         2.19395124499926    1.60646012670068   -3.33282901948162
N        -3.26831346702748    2.64884317170862   -0.72701878940625
H        -2.12334530649004    2.82116440526625    1.02071095318100
C        -3.15249958126197    1.76575695643279   -1.77204658817557
N        -1.63902687536737   -0.08487648971047   -2.29938684794879
C         1.27708179243052    5.68374650601657   -1.69955419416572
H         2.80327830172840    4.17895686268699   -1.58382965609386
H         1.64639857273419    3.93978407641181   -2.89603397269580
C         4.94312439919916    1.81186088392449    1.14898797650148
H         3.49115385606755    3.28382715819771    0.55417258480221
H         2.80986253806949    1.90154372929569    1.41427763794816
C         1.32028248265368   -0.83527350047896   -4.44369848555974
H         2.41451660977548   -0.77136601814116   -2.59174457125846
H         0.64120396221753   -0.87202415964630   -2.39868445190828
C        -3.82034177659640    1.54253613825330   -2.98253171706771
C        -2.34138713209596   -0.16732200557755   -3.41355688345790
C         2.08068613927754    6.63129248146794   -2.58186352118222
H         0.21927251694610    5.74821497824545   -1.96337785785734
H         1.37582822775090    5.98827330193468   -0.65516517093497
C         5.26424844006624    2.43500975383550    2.50135318239918
H         5.00393248346812    0.72433051025520    1.23514278998430
H         5.68454196357738    2.12900255830545    0.41023812523170
C         1.30020159840866   -2.35272964985196   -4.57772473033984
H         0.39322445954146   -0.42353971961156   -4.84799892002316
H         2.15001370631121   -0.42650827844349   -5.02700545375043
N        -3.37629969521751    0.57164773564966   -3.78822589678481
N        -4.92232833720170    2.23224593342186   -3.35884018762026
H        -2.04626390836387   -0.93647763159454   -4.11795892801479
H         1.73247816650148    7.65388244668353   -2.45988489452417
H         1.97847940023474    6.35699214688084   -3.62956087594093
H         3.13607215519473    6.59505332780141   -2.32001216086929
H         6.27526493954146    2.17803209378796    2.80785395913984
H         4.57443834851716    2.06562351023153    3.25624742975692
H         5.18288498285793    3.51922699578692    2.45467066513569
H         1.19290751819351   -2.64709372324997   -5.61913711351222
H         2.22257364029764   -2.78317018432058   -4.19291431506873
H         0.46694110911020   -2.76650981857192   -4.01399536975987
H        -5.25194305465830    2.11534334075709   -4.30072363558112
H        -5.15161145375651    3.06665420802039   -2.84931639561563

