43
CSD_code = ADEBIV | q = 0 | S = 0 | Stoichiometry = C20H16CdI2N4 | MND = 6
Cd        3.48435093129744    7.80900398424601    2.00569748571227
I         1.14672315959516    6.44889221427542    2.34289981408152
I         5.86744064325670    6.52298369588056    1.68549851633008
C         4.74004789716204    7.70738807528012    5.20337626801269
H         5.49875411838673    7.14426191822905    4.67374706689326
C         4.76642123523581    7.80355197925061    6.58651570875550
H         5.54199143832435    7.31216084373206    7.15154378508719
C         3.77733710983504    8.54415864454731    7.21271210515781
H         3.76473780205428    8.65300604809381    8.28713545283981
C         2.80153317023075    9.14536485102534    6.43719817366836
H         2.03020387901242    9.74429179435400    6.89495994375223
C         2.84231841202493    8.98304517573187    5.05314243453980
C         1.82805696425742    9.58864944526081    4.17001797494840
C         0.52244217807075    9.82287211090376    4.59833153463163
H         0.20932421678690    9.54015426188971    5.59015601549136
C        -0.38258368529408   10.37092490677863    3.70670308617537
H        -1.40665246348396   10.53977203039408    4.00346063161887
C         0.04399286661539   10.68510808933637    2.42648143265461
H        -0.63098656998807   11.11418091405787    1.70326464050976
C         1.35928089677741   10.40797549493471    2.08711573247573
H         1.74216504728392   10.62272926584881    1.09671816704844
C         5.47469279251474   10.50581664771655    1.89495059451513
H         5.06003697743043   10.72684687986917    2.87136594214379
C         6.77978294521010   10.84582956206616    1.57320801758983
H         7.41475536119448   11.33136153555687    2.29705007725233
C         7.24945165174791   10.51987009007560    0.31082500640001
H         8.26864850651341   10.73697558846931    0.02846339398260
C         6.39480457812294    9.89784404596444   -0.58190572573288
H         6.74496677182495    9.60588578339722   -1.55879469401033
C         5.09468562698478    9.60408027447840   -0.17295131141063
C         4.13266314486832    8.91951585990801   -1.05693033466271
C         4.21124689825384    9.01701413382256   -2.44559369279679
H         4.97296977242209    9.62301457478514   -2.91009963684817
C         3.28506569399740    8.34016198561081   -3.21983004715585
H         3.32951828680294    8.39690955133835   -4.29749289801126
C         2.30439294833120    7.59274194802091   -2.58871866229578
H         1.56705363858110    7.04404782736667   -3.15230544487593
C         2.28947929375578    7.56482147681698   -1.20216777459865
H         1.53582844964346    6.99847850497135   -0.66855330849921
N         3.81000269664069    8.28153441579797    4.45780249648470
N         2.22484702881449    9.86905254271586    2.92797828277457
N         4.65788119467781    9.89694705032871    1.05327925398165
N         3.17322649408125    8.20927397686743   -0.45805550459768

