37
CSD_code = ADEBAN | q = 0 | S = 0 | Stoichiometry = C14H18Cl2N2Pd | MND = 4
Pd        2.06462332747915    7.75046051370464    4.13063958284653
Cl        3.57732966901784    9.14465514323459    3.07668329180002
N         0.64479421114795    7.84360889519615    2.64477094654475
H        -0.25187654834512    7.83217260711385    3.14680965344034
C         0.65787240721376    8.97628298241058    1.71249696947824
H        -0.15270923536353    8.88516608264046    0.98064194225685
H         1.61202491226586    9.00626360458743    1.18602008690546
H         0.54073665217261    9.90745560910913    2.26939324123071
C         0.80141843524636    6.57369639493871    1.98601549902232
C         2.22357527814597    4.96225911907894    0.91388354616875
H         3.20226428480135    4.65995733347963    0.57263372631654
C         2.06527377182621    6.18612751847246    1.53977899622337
H         2.91835741570742    6.84863655640427    1.68408605179623
C        -0.28783829030289    5.73259376854772    1.80131376291838
H        -1.26288599963534    6.02387651546708    2.16650962970324
C        -0.11573144681311    4.50615837569648    1.18160875280027
H        -0.96335610465535    3.85025078472198    1.05278347303988
C         1.13585792491966    4.12190956895310    0.73394877104778
H         1.26680758535920    3.16441808439315    0.25310081244661
Cl        0.55201259495911    6.35607360885210    5.18451086807398
N         3.48465802121154    7.65732441485079    5.61634528500480
H         4.38134119617146    7.66864206735542    5.11432335455253
C         3.47144996395452    6.52469860342336    6.54868175950948
H         4.28203291183868    6.61575716923430    7.28054108922200
H         2.51729149383643    6.49486286389722    7.07515580313104
H         3.58847520644753    5.59347766518635    5.99184325382213
C         3.32816432003744    8.92727961252151    6.27506185775867
C         1.90608647608893   10.53913061301998    7.34667379522670
H         0.92736374035695   10.84170939949623    7.68757778637473
C         2.06427595516635    9.31518079220094    6.72090870001986
H         1.21106985252255    8.65286397349668    6.57641133825618
C         4.41757715248967    9.76810175156410    6.46007958990518
H         5.39266918790542    9.47653922861553    6.09522886776770
C         4.24559246065465   10.99460898332722    7.07967715473937
H         5.09334850954029   11.65029658370524    7.20875896998748
C         2.99395820229562   11.37921721867102    7.52689158043025
H         2.86309450433606   12.33678599243080    8.00761021023117

