41
CSD_code = ADEFIZ | q = 1 | S = 0 | Stoichiometry = C10H24Cl2CoN4(1+) | MND = 6
C         5.51564287184223    4.88878345576558    2.75958709710785
H         6.60790267834687    4.84672479230162    2.79266867900022
H         5.11887540815473    4.45127680621894    3.68140963196790
C         5.05222051143696    6.32796776668315    2.59266150879954
H         3.95964308359252    6.37430095632412    2.59760007822487
H         5.43460511011540    6.96138266990756    3.39962064049775
C         5.60574436555238    2.48901751578071   -0.95149605479723
H         5.34009328598192    1.78700590197815   -1.75023125542045
H         6.69505537862371    2.55199274136919   -0.89748693834080
C         5.05403260748396    1.97975232690300    0.37516188641022
H         3.96181845765819    2.01550789561844    0.36385633304618
H         5.35135135542864    0.93830129025183    0.49550066292802
C         5.58880659618459    2.77470405070013    1.56086097915864
H         5.31300242699151    2.26869071573417    2.49315998634704
H         6.67867496067103    2.82752770409235    1.50752720081229
N         5.06123603068326    4.14329523890105    1.57741762062456
H         4.03878828520732    4.07660934607468    1.63597995750991
N         5.52722027269704    6.79084682498876    1.28125498752339
H         6.54882183119129    6.86892104797610    1.33928218474709
Cl        3.09940979101917    5.58102633795300   -0.04806240472022
Co        5.30507607885994    5.30502982185562   -0.00003194608814
C         5.09433849744370    5.72122817209386   -2.75961851129097
H         4.00207832975137    5.76327420995325   -2.79267818572573
H         5.49108685217684    6.15872228551591   -3.68145524682282
C         5.55777473499759    4.28204741086980   -2.59267668860857
H         6.65035299134154    4.23571528771222   -2.59762653035717
H         5.17538089925002    3.64862100754641   -3.39962251105751
C         5.00426448376817    8.12100098664608    0.95148442728757
H         5.26991410299844    8.82301193968933    1.75022105642885
H         3.91495342183384    8.05802395168147    0.89747232114291
C         5.55597475834353    8.63026099910720   -0.37517670549781
H         6.64818817423202    8.59449684374844   -0.36387628706284
H         5.25866356926268    9.67171480187972   -0.49550435271193
C         5.02117835403414    7.83533615929434   -1.56088640281301
H         5.29697037595039    8.34136061952845   -2.49318242598506
H         3.93131262559813    7.78250761333436   -1.50753684836386
N         5.54876118421431    6.46675820070438   -1.57748604173909
H         6.57120353981419    6.53345766955703   -1.63607391631460
N         5.08279489915560    3.81917858311604   -1.28125942463441
H         4.06118963627997    3.74111449818474   -1.33926926103721
Cl        7.51069718183085    5.02850355245895    0.04851069982465

