132
CSD_code = ADEGIB | q = 0 | S = 0 | Stoichiometry = C52H73CoN2O4 | MND = 6
Co       15.85198318478151    9.31055813892163    9.27876561054068
O        16.94787018491598    8.43061383919773   10.48367083588492
C        18.07773899799355    8.80111590725829   10.95349117052894
C        18.80485845790465    7.95944765700707   11.86428895623037
C        20.03449235710947    8.36605520612117   12.30628916028794
H        20.57702111219177    7.72267471144407   12.97768630586284
C        20.64700765988382    9.58366615582402   11.94119322130070
C        19.95119753473114   10.40643494068927   11.10374725417456
H        20.35195187642772   11.35800272688290   10.79379905593086
C        18.67915924285475   10.05074960634510   10.59936884512034
C        18.03918742858169   10.95851021513156    9.73678196903988
H        18.59730871988031   11.86959792655823    9.54006304149287
N        16.87758211081373   10.81540985905196    9.15669795370052
C        16.34633001773278   11.80595036801257    8.33511739048052
C        16.88545640253431   13.07722752789413    8.11917338849530
H        17.78744164803246   13.39221174898342    8.61864896548846
C        16.25887640324851   13.96173900891572    7.26445310797383
H        16.68731199392250   14.94023250239785    7.10797230069873
C        15.09091032334738   13.60811616652209    6.61084540297337
H        14.60950711576287   14.30410163097589    5.94161418335331
C        14.53640839158501   12.35990933011523    6.82882484512049
H        13.61892386738887   12.09203884983467    6.32790998500759
C        15.15363970751643   11.46949295250948    7.68850029985487
N        14.61531067807962   10.16214374534785    7.99099507952832
C        14.51471610859640    9.37735735820006    6.74432959372448
H        14.21963573095247    8.35900847337013    7.01973717150320
H        13.73376048272810    9.79828652729661    6.09864911836282
C        15.82084530463734    9.36233637875429    6.00439078857775
C        15.91148499211713    9.88378107002923    4.73038063851915
H        15.02752542679147   10.32487386107804    4.29088670007454
C        17.10155854620303    9.83728693749101    4.02001393372156
C        18.17200996059089    9.18640668715437    4.62231371397153
H        19.08810574249647    9.09526714068859    4.06813831095580
C        18.13035030038986    8.65611825366287    5.90120720244482
C        16.93975467071958    8.80647207608388    6.65590518386512
O        16.83612956182584    8.40916576002947    7.90444995992415
C        13.27504481840789   10.33029726468885    8.59350944650032
H        12.55844554362575   10.65870427703370    7.83039953734318
H        12.95574871361152    9.35244438328383    8.96774897740258
C        13.32001094920811   11.33365204144260    9.70912957499176
C        12.58656260934789   12.49996692640922    9.64450753261985
H        11.97797690972657   12.67799269403598    8.76869369761257
C        12.61924651191467   13.42421967872412   10.67814650029766
C        13.37516281476380   13.09629029062002   11.79819901167850
H        13.38002837754886   13.78081799142645   12.62663071862003
C        14.13385482654761   11.94271413450161   11.90359777269116
C        14.16408821632888   11.05110609988603   10.80149126772416
O        14.90781738244319    9.97044622324868   10.78786849078365
C        18.17598800817030    6.64984069058573   12.32118453787156
C        17.91183141001995    5.76170964321930   11.09706658359984
H        17.31630994357459    6.29473310003753   10.36384588613623
H        17.38935140076294    4.85355678855937   11.39342140037450
H        18.85449244445638    5.48243059187340   10.63063333446930
C        19.06379376940027    5.85657320223299   13.28621369047895
H        20.00568225692797    5.57675919864060   12.81950026087497
H        18.54769777915407    4.94164418909885   13.57119708909788
H        19.26584217361721    6.42091292836985   14.19374205665729
C        16.86682046453241    6.98026527630758   13.05250949580848
H        17.08279895213819    7.53247739832048   13.96486920689348
H        16.33826996601513    6.06674856567946   13.32019990629158
H        16.22614860927912    7.59550240411752   12.42989528696960
C        22.02634720919333    9.90685896451241   12.49267111834470
C        21.96685860689517    9.93679018951088   14.02619912297028
H        22.94104076437102   10.19794923620698   14.43454016776955
H        21.67735108961048    8.97179631529145   14.43242620380444
H        21.24258206239207   10.67750981440204   14.35815115767756
C        23.01486035646878    8.82751085212444   12.02964546803418
H        23.04462689695610    8.78988064688264   10.94281901196973
H        22.73072879283876    7.84514200493228   12.39628390354254
H        24.01475836848352    9.05115531022785   12.39590759740063
C        22.54283286677236   11.26471362640644   12.00958552775645
H        22.62643517563259   11.28621244872222   10.92566981625634
H        23.53088878223647   11.44782346026489   12.42720747382559
H        21.88623686158608   12.06867327446447   12.33353319142542
C        17.17840550330955   10.47232587154799    2.64001280085537
C        16.81637872051940   11.96019218980707    2.75929059589721
H        16.88495379670823   12.44529156099432    1.78737080224440
H        17.49929160728585   12.45733274840271    3.44518856692763
H        15.80595923466323   12.09228588909549    3.13601056455670
C        16.18577460069351    9.77110320546815    1.70209236259475
H        16.23259103113821   10.20828363160797    0.70647600306430
H        15.16662472271575    9.86281867221392    2.06737228903464
H        16.42585725727642    8.71261461810510    1.62729503601461
C        18.57329444099322   10.37333346085194    2.01687324409735
H        18.86154971231263    9.33594712838430    1.86502698841173
H        19.31525934899214   10.86162437126826    2.64423572253362
H        18.57388026629157   10.86687387004856    1.04658962263372
C        19.31995177844652    7.90480868689111    6.48691890493489
C        19.85150449117156    8.67299348031227    7.70141390237357
H        20.70758200897701    8.15946539419812    8.13521389433858
H        19.07555297655509    8.74467207886494    8.45411782327191
H        20.15647539740643    9.67774440382960    7.41380996075964
C        20.46898039992337    7.71923031469507    5.49065274469915
H        20.89574551092916    8.67478432462954    5.19404818278244
H        20.13918530377890    7.18262977863585    4.60370481334499
H        21.25738938950714    7.13579747571885    5.96303990528425
C        18.85282228514269    6.51284061182098    6.93376279931442
H        18.45148891022449    5.95821401610843    6.08729804395694
H        18.08018552589935    6.61217769172188    7.68934514833457
H        19.68451988141560    5.95253415596891    7.35656259417014
C        11.84437466232574   14.72632967606781   10.54497571806077
C        12.34945185274217   15.47488432081079    9.30237637280193
H        11.83066938999727   16.42581160796503    9.19632782974572
H        12.18670223902716   14.89434915010315    8.39857870241702
H        13.41667544993442   15.66815684540182    9.39052394059401
C        10.34875978356290   14.41640881433329   10.39122596484426
H         9.98888088926810   13.87030011605737   11.26060156610317
H        10.16006986500491   13.81150228273088    9.50867165516472
H         9.77856431909102   15.33910268460467   10.30111012243506
C        12.01670304637799   15.64763501294182   11.75541813925095
H        11.45785616658007   16.56785959487681   11.59446159275469
H        13.06227835907988   15.90906682461945   11.90000540573717
H        11.63760662131667   15.17925662502784   12.66054975044097
C        14.90871924457674   11.60941501204460   13.17215858142899
C        16.40669831725253   11.55878380684774   12.84957069644398
H        16.59725609948596   10.78346248273255   12.11665307175711
H        16.98280106263138   11.33654577527901   13.74589391729995
H        16.74182304664440   12.51360645899172   12.44747319912474
C        14.45040776490305   10.23480653818490   13.67763278044340
H        13.38751732148036   10.25358381535875   13.91233307410375
H        15.00159347327322    9.95745119790795   14.57398993892807
H        14.62892637181733    9.48634262352905   12.91252707325373
C        14.69188511349008   12.62511839287402   14.29837535542949
H        15.06010154238136   13.61033016126638   14.02061060032611
H        15.24163096842192   12.30033077372266   15.18003671722843
H        13.64021135784632   12.69782716515795   14.56674738283047
O        14.68528731563535    7.50973667129031    9.24782414697435
C        14.08951463314459    6.91688098930597   10.39397111841388
H        14.83534805890976    6.46069111358081   11.04334968806173
H        13.36059687302741    6.16284917501852   10.07781174999530
H        13.58535791707476    7.71069303154525   10.94179642629416
H        15.33951184118619    6.89757825655864    8.87985273557333

