79
CSD_code = ADEHOI | q = 1 | S = 0 | Stoichiometry = C42H29N7Rh(1+) | MND = 6
Rh        3.50626251989177   13.96518255905861   15.10160504416253
N         2.36081478065054   14.25149778726565   17.01623122835159
N         4.30583708705516   15.83773483299323   15.92229343074111
C         4.66829011703768   13.94722548921768   13.48556128963490
N         2.39137131351698   15.11446913344084   13.94308455933337
N         4.60367994772841   12.70517797205777   16.21021047551322
C         2.09560151252010   13.12483251711522   17.66602352744469
C         2.65812975285879   12.80249471412804   18.93374632369721
H         3.24313715822673   13.56407440884637   19.42633722502621
C         2.08712705926509   15.84476235562300   18.81585552603386
H         1.32458743998283   15.22230434424859   19.26216750901197
C         3.34186800551345   11.11089506990757   15.01626398131952
C         5.46377160895422   13.07108531339193   17.15828160043414
H         5.72021551398935   14.12252305864950   17.20604709450040
C         2.90024252184135   15.40669341754757   12.72521685944983
C         4.28150163567070   11.39686814606127   16.08552314914060
C         5.87946214700324   13.29727078359397   13.30644022658839
H         6.27879524920834   12.65066408992811   14.07694763111157
C         2.71961700374794   15.40914964022362   17.65884569930451
N         3.15102552625454   11.10482351789370   20.62862467215143
C         3.68815144458927   11.96324608854895   21.53193095246218
H         3.59088305263648   13.01507265951477   21.31999244229770
C         2.56720461190617   11.53225484732518   19.42895899705777
C         4.81017472449134   10.44573922232383   16.96200847685333
H         4.52793447202925    9.41065790011719   16.86194003546331
C         6.59604627288866   13.45654485992756   12.12900214855639
H         7.53618632126576   12.94060659601790   12.00201239139611
C         2.94505986231988    9.82519366174837   14.64549402498723
H         3.34614973457119    8.95963599782717   15.15001180918099
C         1.29169072723069   12.13188035115590   17.01473965481036
H         0.79116091989027   12.41869270034947   16.10156307938650
N         2.57638128918622    8.85865974775815   20.08423475025259
C         4.90740628105379   14.92406107982804   11.27145717936097
H         4.53669465678384   15.55447238241314   10.47774877077773
N         1.90077646283716    9.23433528137839   19.04501236740367
C         4.38692953452314   10.13738782927272   22.91864174173526
H         4.88479315851483    9.78402676957494   23.80704458109756
C         3.31280178242424   17.91695066665092   18.80956841302181
H         3.54264223646303   18.87594386889234   19.24639718814934
C         0.99073588563517   16.77374240828427   12.22399183999201
H         0.44411555177817   17.41992522853069   11.55499785266043
C         3.81492738539387    9.26705610002303   22.04095197033773
H         3.81582004888991    8.19996337477875   22.18808771341602
C         3.68255480754615   16.26769570708820   17.04574738846479
C         3.98004853374657   17.52555738310325   17.63303329141859
C         4.94889169046171   18.32823102494717   16.99557494557125
H         5.19234728012579   19.29341629150242   17.41396966093314
C         5.20771253710339   16.61019779403114   15.35589909846933
H         5.68491135838315   16.22891645015588   14.46193946774632
C         6.11213449526089   14.26831815719735   11.11498490156412
H         6.67544167998696   14.38577285176568   10.20213221907721
C         4.18002698666042   14.76929797966608   12.45141724214393
C         2.20933872692117   16.24371214716464   11.84911869115803
H         2.62669076343403   16.46997455162033   10.88187520691356
C         3.16096076179306    9.73844498771296   20.87752955440196
C         1.17507326679811   10.88074243543789   17.51044084289778
H         0.59206017009754   10.11947902105111   17.01907577356973
C         2.82338527932997   12.24614079346761   14.35859159214119
C         4.30131969346416   11.52137677487302   22.66366426045697
H         4.71062589341008   12.23330304306716   23.36061408570460
C         1.87157877023240   10.50554857872306   18.69287484954064
C         1.91375330878448   12.04280750911865   13.32721841188001
H         1.49711291545143   12.88223742749665   12.78557135788983
C         5.56207176363346   17.86786256326957   15.86146777393235
H         6.30951721506073   18.45238543665334   15.34984133051542
C         2.03715731368173    9.65557783911848   13.62162104856383
H         1.73133043807501    8.66301800029975   13.32919251667522
C         2.38210082984552   17.08645453772523   19.37811491941822
H         1.86070799287082   17.39050726387223   20.27302011191960
C         1.52319725794046   10.76353715990288   12.96427698440160
H         0.81690372104432   10.62930778610168   12.15831822751147
C         1.21492220002782   15.62445664546056   14.29945873006134
H         0.84632497783150   15.35492215043419   15.28169033610810
C         0.48010995652268   16.45580112766764   13.47570420903498
H        -0.46994744560884   16.84287798813000   13.80579546163292
C         6.02195219182526   12.18076001497239   18.05497285198542
H         6.71191418727709   12.52940108673812   18.80661484945047
C         5.67844090346513   10.83737667959122   17.95916024125836
H         6.08812325928699   10.11320403742221   18.64748213198952

