63
CSD_code = ADEHOH | q = 0 | S = 0 | Stoichiometry = C30H20F2N4O4S2Zn | MND = 4
Zn        3.78263144865799    3.60496112747670    3.40870547457657
S         4.32866611985419    6.18782271164227    3.92775520270127
S         5.80926737873596    2.49911032322305    4.71026846783936
F         6.36293275132082    8.07158571367003    9.10012148379752
F         6.10849837061136   -2.95712457640702    6.86828541784033
O         4.02587607512883    7.36313921432699    3.15647778672739
O         5.28660567753836    5.26693349318192    3.33506407682049
O         4.75496646855885    3.18605969420816    5.44497715442292
O         7.12089386244847    3.07781528761877    4.73790204028616
N         3.02704137597740    5.24367249435564    4.08771566328476
N         2.04784927872014    2.81868375336392    4.35297589593495
N         5.16586610802312    2.25541586663028    3.25833507063473
N         3.99396896011859    3.65861293771437    1.33115984761557
C         2.17359647203411    5.07269547682972    5.11512295304417
C         1.77784904585394    6.02665381096328    6.04151467579304
H         2.19320828584626    7.01981932819566    5.98477545479952
C         0.84099687086325    5.71986702499593    7.02802165229502
H         0.55445320650704    6.49241485188823    7.72698113772199
C         0.27207179639651    4.47395345702458    7.12444369960054
H        -0.45857135959113    4.25271907006713    7.88721536638072
C         0.64967556696388    3.46423232308987    6.22153844163960
C         0.13870039624123    2.15035867301353    6.25796321150905
H        -0.60136876454461    1.89289385038957    7.00231424107606
C         0.59047123414032    1.22234240096014    5.35687441443404
H         0.21858992509579    0.20946439302912    5.36129778940124
C         1.56299278750239    1.59956601339036    4.42123512962852
H         1.95089692408898    0.88648563032026    3.70647449739494
C         1.60964716803065    3.75566397243932    5.21567894147679
C         4.95766266789721    6.74061083220037    5.51486799028987
C         4.56969734040348    7.98720646885844    5.97570142949818
H         3.92204842755537    8.59122911782693    5.35932617341258
C         5.04107792677098    8.44635929675106    7.19275220297755
H         4.75867429051298    9.41121710798507    7.58335415094183
C         5.90424689322456    7.63468147060415    7.91095673016722
C         6.32285588413113    6.40087709719564    7.44313397805108
H         7.01499566314990    5.81216648539067    8.02366946289695
C         5.84347436574314    5.95171960748487    6.22298438608192
H         6.15733024989041    5.00540180058761    5.81544620693008
C         5.87530293217650    2.42360153410455    2.10397234074839
C         7.15455495636665    1.95448463673854    1.87804172503544
H         7.67450733592886    1.44696309629032    2.67523205185712
C         7.77661284434246    2.15063041068437    0.64167606636153
H         8.77706274240083    1.76932001114391    0.49766543134498
C         7.14711290862904    2.81157551265831   -0.38132860532227
H         7.63534812717880    2.95853325772690   -1.33283540482612
C         5.85402962746676    3.33429254718099   -0.18774676205074
C         5.15633658300160    4.08058313540347   -1.15883481342035
H         5.61124652386950    4.24597584238852   -2.12526473359300
C         3.92412538571286    4.59766994499729   -0.85686471623170
H         3.37216704526245    5.18519829679541   -1.57356072022632
C         3.38161318094859    4.37073396127876    0.41487040424552
H         2.42033205289387    4.78319647446428    0.68738343380165
C         5.21097466596048    3.14049097980128    1.06207292049677
C         5.92132663834443    0.85087148509704    5.42001366649952
C         7.15326826324222    0.24134120352365    5.57216609621907
H         8.04144921217022    0.79610455857008    5.31439421175216
C         7.22701978025772   -1.05069752788394    6.06477842746788
H         8.17159632327550   -1.55351527450483    6.19903471591425
C         6.04819059178830   -1.69961694997423    6.39078855290217
C         4.80752136228228   -1.09969234278933    6.24649936591722
H         3.91603596422164   -1.64166583807051    6.51983851274012
C         4.75177672768090    0.19187117692363    5.75300056458025
H         3.81345108422147    0.70836226494605    5.63101936786920

