96
CSD_code = ADEMOO | q = 1 | S = 0 | Stoichiometry = C34H55ClFeN3P2(1+) | MND = 6
Fe       -0.41025333453563   15.40791293735662   17.83083372957004
Cl       -1.52508332514098   13.71782668252305   18.58691582829054
P         1.40503274801391   14.11984152440035   17.72975360083016
P        -2.29372200140761   16.54741543103727   17.54896282226176
N        -0.79849070265544   14.67269790634119   15.87776763459584
H        -0.32766423953148   15.32102760271738   15.24368320524224
N        -0.16117919696402   16.10634346077719   20.70903422846093
N         1.10436516055199   17.67838282426274   16.70408549410798
C        -2.75998882147261   16.10414990586228   15.80536033078925
H        -3.83796854357710   16.15285304386688   15.64859949314386
H        -2.28032015798077   16.82092947594402   15.13069445441493
C        -2.22709850156061   14.70349769848830   15.54205621320001
H        -2.73596939121583   13.98170095936673   16.18549812837041
H        -2.38721324283348   14.41115121028206   14.49592338975043
C        -0.20466435422955   13.34939556924073   15.65906789391995
H        -0.34308502501297   13.02629132886386   14.61893439979697
H        -0.72067377728257   12.63908698071975   16.31052744275700
C         1.27306513503677   13.40770835336034   16.01738515858402
H         1.80262807266560   14.07147187012418   15.32629498045529
H         1.71777371345272   12.41364386743149   15.95799824891333
C        -0.18474781544409   15.91969260071725   19.55638524480375
C         0.50920297400255   16.78008436073525   17.16490749718646
C        -0.15398655508469   16.29147462111039   22.05668581523619
C         0.52553142562299   17.40556323318326   22.57398521118325
C         0.52758552938444   17.59725728695065   23.94385267786919
H         1.04469426008277   18.44962166362887   24.35716957181929
C        -0.12448750107620   16.70890886082885   24.78378657533672
H        -0.11538308303742   16.87213484873251   25.85006254695473
C        -0.78356195052822   15.61497097320253   24.25791931935579
H        -1.28849998767561   14.92182477809424   24.91335895653857
C        -0.81400316999744   15.37933856298321   22.88903766912215
C         1.23252850274614   18.35244574519204   21.65452935272731
H         2.02031410425632   17.83445404165875   21.10751501339182
H         1.68195167143824   19.16478235988632   22.21792653182056
H         0.53790175725875   18.77487982265454   20.92920707538580
C        -1.53439779498321   14.17518764712160   22.36975753812467
H        -1.50993108093593   14.10779751631214   21.28657251651402
H        -2.57419711441592   14.19742951437369   22.69238564110615
H        -1.08515837078137   13.27155893041806   22.77959753187569
C         1.75653309602064   18.68883987164516   16.07477231294308
C         2.42316935179680   19.66527540184045   16.82162622066395
C         3.06844646468117   20.68182369920400   16.13160190736176
H         3.58716420161275   21.44479919909192   16.69170928950268
C         3.05449216395701   20.72635941606359   14.74980143793344
H         3.56123046677467   21.52514376247796   14.23173565084110
C         2.39439534104851   19.74625033223226   14.02558654071172
H         2.39035542563637   19.78364859358978   12.94694925407625
C         1.73797786991366   18.71417411148807   14.67146396587094
C         2.43602914182419   19.62905645617053   18.31773281967707
H         2.09522849174568   18.66749076536649   18.69234288677189
H         1.78370396515036   20.40599285436100   18.71637729712848
H         3.44009641706019   19.81977940607732   18.69088713245137
C         1.02035562072986   17.63744670476641   13.91401231360279
H         1.44851366635776   16.66033343162292   14.14523796758194
H         1.10097503394890   17.80438694981042   12.84402433565255
H        -0.03719592506505   17.62136955536849   14.18339578356364
C        -2.13109250314678   18.40203898739483   17.37446702890879
H        -1.42529955347235   18.50080928217167   16.53777435551870
C        -1.47619504255052   19.02252062853476   18.60377607509404
H        -2.18260523817908   19.10157135428868   19.42650893719248
H        -1.11910029600161   20.02438728619320   18.37267315886549
H        -0.63142070573106   18.41242686565813   18.92151525096273
C        -3.41552003988122   19.13480718093425   17.00063143286277
H        -3.94179121064405   18.63763203059979   16.18833739235093
H        -3.17054668615044   20.14404286284019   16.67447494383277
H        -4.08384925008736   19.22161118931760   17.85365324846038
C        -3.87816993435938   16.29991282706459   18.50051129516445
H        -4.51723737662516   17.14534331501199   18.21677723262552
C        -3.57247487957429   16.36087577155253   19.99435522757950
H        -3.00689748869321   15.48039589762286   20.28360270462786
H        -4.49714835724950   16.37640018224219   20.56725381366871
H        -2.99231945868331   17.24426706515873   20.25311447608928
C        -4.61713801049690   15.00513707217499   18.17364155491470
H        -4.91835471716993   14.95150591216448   17.13019882359390
H        -5.52028896531769   14.95748780834023   18.77909155790186
H        -4.00871022481568   14.13860264930677   18.41490996750872
C         1.53086232059487   12.58284785730885   18.77926893825748
H         0.61921293034403   12.03872142705818   18.49348146051606
C         1.41975085918773   12.93587445055508   20.25935905240953
H         2.29258786348181   13.48437112794669   20.60518333282177
H         1.33595370850753   12.02493487393835   20.84802526258503
H         0.53577343904561   13.53908149133959   20.43844897257195
C         2.73526721789621   11.67937337014922   18.53412024519299
H         2.96751793745513   11.55745266110982   17.47930838641827
H         2.52110918098002   10.69352123092948   18.94275674978567
H         3.61550605354045   12.06008268668407   19.04434607258412
C         3.04177941591701   15.01288903442570   17.63105217683673
H         2.83150187454361   15.77105486505592   16.86315031601761
C         3.30775433717019   15.74049232533200   18.94470170395151
H         2.39069796228058   16.21277129760640   19.29851552354010
H         4.06978845678327   16.50537199313758   18.80815070998896
H         3.65837886980667   15.04996775939108   19.70754897186341
C         4.25861293665928   14.21740211144499   17.17152087904814
H         4.64631178166469   13.58781220026045   17.96503457390240
H         5.04786316119608   14.91206623512086   16.88792232602144
H         4.03501282343288   13.59512832075156   16.30845978775537

