76
CSD_code = ADEMII | q = 0 | S = 0 | Stoichiometry = C25H46FeN2P2 | MND = 5
Fe        6.17759870488628   10.78581207816217   10.55818216482934
H         6.49604942419266   10.85069651203283    9.12179684304927
P         6.38265366040610   12.90944187329795   10.78519800859390
P         6.20585780999296    8.63981397906938   10.56739250728591
N         7.57481380728713   10.66927052384314   11.72738084312674
N         3.24763522922302   10.94140795723896   10.19692128083722
C         7.56953687374246   13.10475258515255   12.19039061872746
H         8.23041856985983   13.96769302842153   12.07623514958818
H         6.98445039839070   13.22459396988136   13.10600755243371
C         8.34563900214169   11.79144881159022   12.25428862728034
H         9.28917716556069   11.87665586789078   11.69052229897905
H         8.62656588349298   11.58506335489363   13.30178745386812
C         8.28871681019885    9.44489877294186   12.07944303496174
H         8.61805394060778    9.49837996015722   13.13151776905361
H         9.20441133581257    9.37624053536487   11.46947829140034
C         7.42825533512472    8.19873923178674   11.88479735151463
H         6.87268766985370    7.99556446005479   12.80397643200872
H         8.02801601458491    7.32045448278843   11.63323127073763
C         4.28585530517053   13.33551076495014   12.54070805485729
H         4.29276911698926   12.24831758289515   12.44332531468099
H         3.25575479336799   13.67147163826631   12.65104833776599
H         4.82532757175342   13.60722281361536   13.44638933929898
C         4.92773583730192   13.96679601191897   11.30587587694693
H         4.21735277055821   13.87145425098649   10.47332202780506
C         5.23987320692775   15.44047771909469   11.54573689419210
H         6.05137560157939   15.55355141328190   12.26233278442569
H         4.35908869656927   15.93785863222106   11.95111349776445
H         5.51428830446103   15.94797902673217   10.62460831184553
C         6.25840520421761   13.97983463946645    8.24737518232724
H         6.01798865486306   12.95567402159565    7.96451148448846
H         6.74071754372179   14.47541673622466    7.40565295406979
H         5.33265551094042   14.50703489724872    8.47167477155586
C         7.18474464318691   13.94249595312445    9.45671340705563
H         7.36166886431192   14.95524871372980    9.84156584898019
C         8.51384222387715   13.29302481557011    9.08646575377368
H         9.24768303909795   13.40412267996092    9.88227055741623
H         8.92216705548010   13.74209203975809    8.18202738337603
H         8.34801495851246   12.23031022331388    8.90693538723988
C         8.21782957593558    8.24308369720062    8.73121383064982
H         8.14233795392147    9.32767423654095    8.64938895212937
H         8.55118392448799    7.84107065439423    7.77538458741329
H         8.96668396309296    8.00055612073585    9.48274576170278
C         6.84946727637906    7.68224825550952    9.10325024518529
H         6.94531732019535    6.62327850316206    9.37580272487721
C         5.87305088529465    7.85331938687783    7.94558162145433
H         4.90793184041305    7.40096914687187    8.16616621304516
H         6.26671507850117    7.39871077324553    7.03733684212238
H         5.72481277696509    8.91827961875831    7.77060548735879
C         4.88993278012050    6.15173325913334   11.16271242550344
H         5.08283789983652    5.70555189023221   10.19053045022214
H         3.99024230054638    5.68998895856738   11.56890331664587
H         5.71941428486813    5.91528880993224   11.82665870340944
C         4.68771917515793    7.66022833488515   11.05958852595331
H         3.95602672331272    7.88078170409945   10.27033770391966
C         4.14634748673545    8.23249803804333   12.36818480029547
H         4.73522013870705    7.89588799072851   13.21961236480868
H         3.11774135607656    7.91233145211043   12.52869579696941
H         4.17484884818189    9.32262988133619   12.33294173530292
C         4.43898697900258   10.88063165050822   10.25114660615059
C         2.03595739063480   11.06515054917530    9.59374069768757
C         0.88226942525588   10.93021209743575   10.37899222492248
C        -0.35585632826698   11.05434439795523    9.77229810258455
H        -1.25115152198064   10.95268706981045   10.36937602131223
C        -0.45645298142282   11.30612780158720    8.41475025891757
H        -1.42849103835854   11.39982365768339    7.95339495333037
C         0.68888507637189   11.43925706524392    7.64904341729545
H         0.60676386559276   11.63713483746718    6.58953641486384
C         1.94761890740990   11.32500051825166    8.21693345609187
C         1.01025221873271   10.64420722059747   11.84441205656425
H         1.32101635932577    9.61072771461899   11.99928549131699
H         0.06191992970435   10.79980194797083   12.35309232819993
H         1.76714593991267   11.28495711066299   12.29394509942122
C         3.18770934113733   11.49469517847408    7.39715410381105
H         3.55299062303602   12.51856731090787    7.48388591696620
H         2.98802079189985   11.29023766390976    6.34822753830883
H         3.98200689503063   10.84020293684907    7.75154255512945

