94
CSD_code = ADERIM | q = 0 | S = 0 | Stoichiometry = C31H55NORuSSi4 | MND = 8
Ru       14.68229298463653    9.17289622685766   10.67014024328702
Si       11.38175516145218    8.28046102599440   11.74627941475117
H        12.38827799508231    7.90483828541916   12.74844292700668
H        10.80251447952432    9.55354902404165   12.20733750575687
Si        8.46763673335701    7.76961755443277   10.77967955683691
Si        9.70375036050594    6.35529555496850   13.38543092012799
Si       10.69786615627725    5.51643015132606   10.45223384781765
S        12.39246304010840    8.68254914805455    9.93482716971376
O        15.11681503830022    6.77596563946590   12.39696447829663
N        15.77519564183017    8.01842203515004    8.05962661975187
C        15.32516053191473    8.36174112076311    9.08978080161218
C        15.98821880713428    7.40083092781481    6.86926583648789
C        15.19414869586571    6.29452549560594    6.53121087171137
C        15.42331902192359    5.68175657630794    5.31291244006020
H        14.82192711866720    4.82869784097106    5.03329986370782
C        16.40591895068948    6.13461769729638    4.43860032606370
C        17.17422752513315    7.23190628639136    4.80196674692286
H        17.93973701504006    7.59225821818038    4.12962097599981
C        16.98230169128271    7.87928853904254    6.01131108592473
C        14.15158791231060    5.81577043953905    7.48638222610354
H        14.62281665043624    5.41018482282978    8.38191894110779
H        13.53613584020797    5.04412113525997    7.03394267584521
H        13.51492233840390    6.63988774337242    7.81010653563136
C        16.61760140661260    5.44115024718865    3.12782056023896
H        17.44038735205513    5.88870287212968    2.57655855789041
H        15.71662221581740    5.50305129644852    2.51854506649587
H        16.83735310331875    4.38648325950965    3.28776552120921
C        17.79655232972244    9.07209118607208    6.40794770702048
H        18.59796719154031    9.24870000888878    5.69562233830148
H        18.22665216992622    8.92642265174675    7.39826969300400
H        17.16384092938079    9.95941185236827    6.44598954994111
C        10.02802550031393    6.94838898467886   11.57596660000893
C         8.87794073790848    8.82572234243786    9.23864686418803
H         8.57503806339478    8.33542138830529    8.31987441911385
H         9.94228663261767    9.01973552228407    9.16438996232969
H         8.37284575938509    9.78637210776949    9.27598380111482
C         7.58665597558283    8.96117566443786   11.98914842858363
H         8.25190857775401    9.74738376102123   12.32931007447045
H         7.20171604160609    8.44770181419676   12.86264173185742
H         6.74438536642111    9.43987910617967   11.49811835668131
C         7.14296691690063    6.49770637651340   10.25365756002443
H         6.80416780357990    5.89390046353350   11.08631159315226
H         7.51040923760344    5.82542144576787    9.48723997103108
H         6.27503346761527    7.00968098435569    9.84898641578610
C         9.68461611926788    7.80417885770429   14.63306335807358
H         9.31883061238696    7.47578239605195   15.60181682366495
H         9.05626916142045    8.62382553573469   14.30941238563244
H        10.68437724377320    8.19854709160876   14.77857098307922
C         8.05247591582568    5.42471622841796   13.60362947224328
H         7.95725324268436    4.60186045757301   12.90621069629992
H         7.20117883035860    6.08068166829211   13.46267380899929
H         7.98291431413914    5.01227358097057   14.60553311485389
C        11.08252030413731    5.20924088218811   14.04654679806239
H        10.91942321938306    4.98240261653172   15.09654215387543
H        12.05572381343804    5.68142670585848   13.96606702520082
H        11.12895426640524    4.26627107527890   13.51426124840579
C         9.75918533835593    3.87887836779790   10.74101789107691
H         8.69386191400934    3.99839450592744   10.58722508577155
H         9.90636351153959    3.49007648662126   11.74115404019574
H        10.10502139419738    3.12292839580306   10.04348954950342
C        12.55357205085867    5.18101657965618   10.75010601865891
H        12.89295085503142    4.32203963194117   10.17853184302751
H        12.78164235153045    4.98899762413372   11.79158926615210
H        13.14681413792849    6.03849563020663   10.43746848852637
C        10.52979476518415    5.89715555453485    8.58907111052007
H        10.99802975342611    5.11654299050167    7.99649715720206
H        11.01546158527289    6.83419372876450    8.34333662146518
H         9.49490869881555    5.96774243294359    8.27511183755693
C        14.90309942557255    7.64612236747297   11.67176072997579
C        15.84681606014414   10.49512394770605   12.01965971454342
C        14.45149350067700   10.73583233720923   12.26898196250517
C        13.89061844700654   11.28340198276770   11.07862126104482
C        14.89952267688497   11.30639611439070   10.06743828261597
C        16.12588124968748   10.85992030331963   10.66133497918421
C        16.87972270081963   10.19725315371816   13.06651443461405
H        17.74610217098555    9.69940608931304   12.63487577507825
H        16.47686427981734    9.56221018037310   13.85323591385068
H        17.21448104932850   11.13225580905836   13.52238774232597
C        13.81753317051332   10.75568709647358   13.63087815042684
H        13.98866101566515   11.72613764021880   14.10397929826066
H        14.24337701877897    9.98628299075710   14.27235102592274
H        12.74474790522478   10.58451710215249   13.56949509631789
C        12.54144500517026   11.91256980608846   10.92450614834176
H        11.97951532846421   11.86796910460667   11.85383852581905
H        11.95943357503505   11.41174546843978   10.14920087577020
H        12.66344844584779   12.95848539903339   10.63674564581293
C        14.75777818282857   12.01846289972903    8.75212177347791
H        14.88691735888037   13.09455846967564    8.89507411460397
H        13.77149653844933   11.84384425424369    8.32637356268350
H        15.50281452920481   11.67799788937556    8.03565502635424
C        17.49677466949781   10.98927748361905   10.06648891763669
H        17.95078952669314   11.92493308443965   10.40143324239557
H        17.45410896562069   11.00170706702118    8.97997183818323
H        18.14266733550411   10.16911810650084   10.37637240247489

