94
CSD_code = ADEROS | q = 0 | S = 0 | Stoichiometry = C31H55NO2RuSi4 | MND = 8
Ru        2.23976806221531   16.17966868616170    5.33454420450141
Si        2.35670140475251   13.83598285221238    5.56937993600399
H         3.20516318518137   13.47976838936174    6.76727855438991
Si        2.75041195923825   10.74109777389723    5.75124958073456
Si        3.62613498583348   12.36171873000514    3.14184249933500
Si        0.53713634624005   11.93053137219783    3.81352553035571
O         0.82069962190256   13.55308199177825    6.40768731511218
O         1.44920464749543   16.38655796923121    2.47636129255330
N         0.35197117961074   15.77660929016166    6.37492911678990
C         0.08709831686564   14.55577125767610    6.67905235385802
H        -0.84912291090684   14.31879471368736    7.20122008906440
C        -0.49902638765239   16.77291802095779    6.90729754984743
C        -1.17070213394985   17.66000491870508    6.05376339146574
C        -1.96710481472058   18.65302734480851    6.59817183111246
H        -2.48048843463020   19.33479543443256    5.93470546461141
C        -2.13034020339186   18.79180831271931    7.96982491973895
C        -1.47768484010428   17.89488716004496    8.79770741757985
H        -1.59686704636148   17.97683604840003    9.86925778770333
C        -0.67121504462325   16.88134622185456    8.29471095669708
C        -1.03480761762193   17.53894678251649    4.57055143754546
H        -1.71168602196471   18.22141421634924    4.06306844487377
H        -1.24631613088650   16.52188922663060    4.24327441914661
H        -0.01082703025231   17.77404447411451    4.27222488266218
C        -3.00838688756732   19.87068996526572    8.52603528347219
H        -2.86480127637611   19.97646092687670    9.59831071140556
H        -4.05600418685862   19.63242316548194    8.34188758279569
H        -2.79529151953705   20.82419462814820    8.04633463583983
C        -0.00886191853658   15.95292060053753    9.27417350521300
H         0.31900539479230   16.50796620242826   10.15239843733385
H         0.84672083955727   15.44213812404835    8.83782253574877
H        -0.71610127700726   15.19532515090320    9.61349774813471
C         2.31114461566008   12.18772248993556    4.54105172112594
C         4.60592676144528   10.73019307967085    6.22715521885244
H         4.89870723158544   11.66050178281909    6.70089907843022
H         5.25063491160646   10.57954722688021    5.36964993973827
H         4.81036463780936    9.92955967310507    6.93188255271937
C         2.39097992404241    9.01400838193139    5.01368807114050
H         2.78454002283928    8.23907615589289    5.66419664421394
H         2.84821933901157    8.88347507004116    4.04159588251514
H         1.32777289153323    8.83573276416642    4.90418161588707
C         1.83550039273016   10.77650462856230    7.43067592173774
H         2.07755474342679    9.89721595850961    8.02175725962528
H         0.76101905952384   10.80367710588470    7.30647328841955
H         2.11429528675244   11.64946892856950    8.00889344558104
C         5.12546816830231   13.32509057909112    3.81518578685386
H         5.94476079157184   13.34732481078835    3.10309347177817
H         5.50303165124473   12.91676174904812    4.74298338572039
H         4.81294217836885   14.34540856522054    4.00615899365324
C         3.05467293018273   13.40428251494200    1.65040639741273
H         2.74557404698094   14.39210002019953    1.96844832535403
H         2.22834964688720   12.95534490696693    1.11243454039786
H         3.86985256881713   13.53146480178802    0.94362945372517
C         4.25089431594174   10.70599385355037    2.41797113939802
H         4.96137740035313   10.89337461511944    1.61833844186385
H         3.44004755312376   10.12202590545147    1.99883933456445
H         4.75037630712713   10.09503871059681    3.16034565558134
C         0.52950054301352   10.70973644196352    2.34147633042600
H        -0.48218316597080   10.57686240076685    1.97099029534883
H         0.89907511395986    9.73342121686608    2.62990125534124
H         1.13468708973698   11.05855430732175    1.51424305491226
C        -0.23682472547459   13.56268026204058    3.19300984944851
H         0.26223624150391   13.93985111555382    2.30894849176856
H        -0.17503038006018   14.33590942313516    3.95580920086827
H        -1.28507107569054   13.42693428629121    2.94160419671500
C        -0.76135812846161   11.20045753886516    5.01803373888794
H        -0.86207967332914   11.80716512579087    5.90958268127403
H        -0.50913737768229   10.19277520381249    5.32799104975412
H        -1.73629997844182   11.15721264302567    4.53937190737782
C         1.65525289334544   16.17820217975015    3.59967353905351
C         2.63052835390981   18.12765828278156    6.47515192019073
C         3.10941071367910   18.27972765169143    5.15645296230989
C         4.13282998800444   17.28498971601564    4.92985475692551
C         4.33581617686115   16.58765277135049    6.16882727726019
C         3.36213799357440   17.04753231379824    7.09689543997659
C         1.75916640042886   19.11551418851551    7.19044795193670
H         2.36882274708703   19.96443256348365    7.51063062930837
H         1.29322901599614   18.68156018089401    8.07202693083870
H         0.96573877775149   19.49334929718612    6.54764405973438
C         2.79621053591842   19.40953449597906    4.21982814269149
H         1.83420056579683   19.86128655349962    4.45397788565407
H         2.77677760460095   19.07337672216358    3.18420718206322
H         3.56442970891327   20.18165654494663    4.30938320379767
C         5.08423426278246   17.32942920005692    3.76682721424553
H         5.65957680774354   16.41057248401647    3.68543882834802
H         5.78143636457607   18.16093052491928    3.89720193231986
H         4.55043411526225   17.47906066757270    2.82963418143973
C         5.50753315641491   15.73110694305724    6.53826971045309
H         6.16561496913194   16.29933772984876    7.20044538000756
H         6.07788601926287   15.43411981831122    5.66335744288808
H         5.19604592696946   14.83111809841492    7.06540875539519
C         3.44832135880121   16.78664214402888    8.57521840799856
H         3.52734150413010   15.72049679737751    8.78811722996147
H         2.58323696007680   17.18420493144972    9.10025510386554
H         4.34008495826221   17.27373300314063    8.97993689729804

