23
CSD_code = ADESEH | q = 0 | S = 0 | Stoichiometry = C4H8Cl7NOPTa | MND = 6
Ta        1.82587496408098    1.99005904491528    2.84636370743812
Cl        1.26061806944114    3.97646625993421    3.89681797838251
Cl        3.90949202686957    2.90156306123422    2.39302704388799
Cl        0.47592861418549    0.91711801986819    4.35152268359471
Cl        2.73634949630073   -0.08909382140281    2.35417738411050
Cl       -0.63665322533487   -0.15897284782942    1.41881877251608
Cl       -1.65557231812283    2.64637605909424    2.48861484845284
Cl       -1.41872142360966    2.12342266447293   -0.61306256707409
P        -0.51461463850358    1.79779846756353    1.10167541824931
O         3.25010238824849    1.71896283486693    5.06059109437028
N         0.94316418735836    2.30166414431699    1.17068363453388
C         4.27909819280001    0.72495930211310    5.06066039217860
C         5.11684011071694    2.53208820487073    6.31325215028091
C         3.74881382995148    2.89308700488209    5.72577361132053
C         5.09089850216172    1.00494345546245    6.31756534331270
H         4.89579216267267    0.83928898801779    4.15916116212189
H         3.79045250535814   -0.25069384268904    5.04853720723559
H         5.25742888224245    2.95565728741491    7.30476101931717
H         5.91084457137654    2.89100534948641    5.65923316675366
H         3.01762379131380    3.15401750024739    6.49742549349213
H         3.81704975746025    3.71227314280729    5.00372204163726
H         6.08168278928015    0.56075801476392    6.27803414021492
H         4.56320676375404    0.63235170558224    7.19594427367747

