36
CSD_code = ADESOR | q = 0 | S = 0 | Stoichiometry = C6H18Cl6N2PSi2Ta | MND = 6
Ta       -1.42870417680675    3.99591685829655    8.83885549535622
P        -2.67238862720213    1.70549752648342    9.25974619262630
Cl       -2.79028586620544    4.70536810442213   10.61737324673972
Cl       -1.97841201192261    5.80573421107406    7.64560557205682
Cl       -0.16030875024549    3.13089879533153    7.10162372588589
Cl        0.36669590976465    4.92760518488286    9.79366773671574
Cl       -2.58221702960884   -0.07278958497634    8.43315613010535
Si       -4.44420749527232    3.11718917112259    7.24539915763145
Si       -0.24746583126836    1.54394263838424   11.07336438470448
N        -3.00458125602128    2.85920487765181    8.21766811741948
C        -0.84819211085242   -0.22166534892531   11.46381051184456
N        -1.26752331192455    2.20889107714523    9.80777278811700
C        -0.47033490713624    2.71190603566332   12.56111096593312
Cl       -4.02869991105230    1.54346657717760   10.67708973825024
C        -5.36950799602342    4.55137863787179    8.09028277271855
C         1.48955878811997    1.55541535284049   10.29783676222882
C        -3.75042143535104    3.51652042634495    5.51969489686849
C        -5.46914031824438    1.51088771254801    7.25233460122407
H        -1.89965399751469   -0.24542681042490   11.73725955940194
H        -0.28368121815156   -0.62486652347306   12.29721690893710
H        -0.70916829342948   -0.89274128496224   10.62125009568094
H        -1.49334934643382    2.70449758997774   12.93100575971774
H        -0.23492496293471    3.73645005731416   12.28131749802528
H         0.18253828059824    2.43074270598664   13.38038059157050
H        -5.70121322246174    4.28461234355393    9.09146365909866
H        -6.24221044838608    4.84551075417518    7.51716581284199
H        -4.72216467873217    5.42052633557893    8.18490332556000
H         1.54936106252193    0.89371367349693    9.43718428668699
H         2.23643365437144    1.23738645893327   11.01651301866879
H         1.75222658223043    2.55441511312925    9.95912937280936
H        -3.21012146400216    2.67200522609388    5.09901784118275
H        -3.05898599063972    4.35395328354953    5.56794617191444
H        -4.54777590553899    3.77854461477504    4.83342700016442
H        -5.71745384199284    1.18760050089654    8.25967666077750
H        -4.94688076024898    0.69501934829902    6.76121364950965
H        -6.40053911199968    1.66818835976495    6.71983599102760

