40
CSD_code = ADESIL | q = 0 | S = 0 | Stoichiometry = C6H18Cl8N3P2Si2Ta | MND = 6
Ta        4.15851300557800    0.87726897057567    0.76314610855042
Cl        2.03041951598214    1.70404398771456    0.28362876837389
Cl        3.55619880206025    0.42408786744290    2.87863949267597
Cl        6.21185282770264   -0.22528260206237    1.02821159748972
Cl        4.70520997228430   -1.88816116751362   -2.43557164791403
Cl        2.02258969939541   -0.29256944985105   -2.40004829145735
Cl        6.41451511588232    1.92995498335179    3.39333282290451
Cl        6.38349843288558    4.85356545704614    2.24602322284517
Cl        7.65585718456077    2.58032529070932    0.51952919229750
P         3.70171437036467   -0.54390311183904   -1.40195147355883
P         6.13139894665928    2.95968054254648    1.72347539581428
Si        5.35927966687823    1.65956037745023   -2.53293352325583
Si        2.41408111543888   -2.21749217968991    0.73616774758513
N         4.49902480943422    0.82886557066793   -1.25149749001768
N         3.47156553418840   -0.97019650158383    0.10410231208438
N         4.76269181204638    2.65264960011654    1.09315679360380
C         4.45344170270032    1.35788281646499   -4.18242558784125
C         5.28476140878516    3.49676105928391   -2.04108503505951
C         7.11348917871914    0.89854788379882   -2.56044493926996
C         2.06070568546184   -3.47432651418208   -0.65336332233279
C         0.81242261781432   -1.36437564285756    1.31833132115807
C         3.42282596531339   -3.03340322274742    2.13217482275372
H         4.40154455883233    0.30195505774638   -4.43417209412760
H         3.43779678416235    1.74375455643751   -4.16359233478158
H         4.98024428729885    1.86082212062915   -4.98635504926207
H         4.96299915971700    3.60745221487395   -1.00727300130222
H         6.25258482208584    3.97352128222319   -2.14900213667979
H         4.58139439724408    4.04146202250022   -2.66304497415234
H         7.39136281557596    0.49580122693534   -1.58893442665119
H         7.17829386916986    0.08653801240880   -3.28033097756550
H         7.85664109263870    1.63904582465545   -2.83689823888762
H         1.55740321995055   -3.01970991118402   -1.50192395684367
H         2.97117241348923   -3.94102624747363   -1.01844074672193
H         1.41953687833613   -4.26287866660681   -0.27565622513133
H         1.02492828119273   -0.59035267997502    2.05204317069236
H         0.28272834733856   -0.88893510468700    0.49600046487039
H         0.14277669671094   -2.08365994208722    1.77763963689500
H         3.68179278611070   -2.31703641081230    2.90663192139659
H         2.84557387929279   -3.82724290268027    2.59284343117617
H         4.34886834071359   -3.46639446774468    1.76176724964833

