45
CSD_code = ADETIO | q = 0 | S = 0 | Stoichiometry = C21H12AuClF9P | MND = 2
Au        6.77408570847655    3.91026679417388   12.46208414892580
Cl        6.77395690716079    3.91090634500173   14.71334960850843
P         6.77417986951693    3.91099634697967   10.18687416602443
C         5.67232456504508    2.69909288836879    9.35380988513813
C         6.16617187436184    1.90084374958278    8.32187517378821
H         7.16925731925070    2.06411283428291    7.95614596953499
C         5.39791916497170    0.90115539169440    7.75438113319297
H         5.81109370547384    0.30065773910989    6.95835395674208
C         4.11290664882311    0.66606382767673    8.21087951364014
H         3.51455690002767   -0.12268622491487    7.78346999012095
C         3.59489373232908    1.45508408716162    9.22158123027090
H         2.58969961284231    1.29358431851122    9.57994835833417
C         4.36219467491891    2.46696596386323    9.78441657734536
C         3.71516253722468    3.28899557403525   10.86541844470552
F         2.39641940473434    3.43228063752868   10.65820928112324
F         4.20771982655216    4.54376254819849   10.92872701885223
F         3.85268205194578    2.74901021725425   12.07838355096460
C         8.37463318941557    3.56274385225949    9.35378698435475
C         6.27546352636435    5.47123573328912    9.35403196781234
C         8.81886566174082    4.38943920206940    8.32170355107861
C         5.33729281180382    5.44274878807539    8.32205643400305
H         8.17584260344735    5.17638853405583    7.95588228985313
H         4.97718944309186    4.49244381239667    7.95620902635414
C        10.06870613512630    4.22394485817653    7.75413800241142
C         4.85581581386053    6.60796771316238    7.75455735824383
H        10.38205958715844    4.88191174558653    6.95798524601373
H         4.12917409954430    6.55048437652880    6.95853703526531
C        10.91486254396024    3.22869327027011    8.21065094026882
C         5.29475399214991    7.83831269951546    8.21117433739696
H        11.89706758830228    3.10485620515463    7.78315065065131
H         4.91085934970121    8.75091778124182    7.78385686133250
C        10.49070132112681    2.38569430107997    9.22152515837684
C         6.23709683638630    7.89231954119107    9.22185462499262
H        11.13320601203953    1.59597235362785    9.57991146195583
H         6.59980185745429    8.84354990861288    9.58035852132694
C         9.23080329689114    2.54432073784922    9.78448286511626
C         6.72973704963249    6.72183374573723    9.78459868110062
C         8.84244606296742    1.57324760534250   10.86576021061746
C         7.76524503130954    6.87107420415116   10.86550409763730
F         9.37824843004823    0.35963432382881   10.65927537157933
F         8.54877962724054    7.94136286157357   10.65820205753091
F         7.50952069809148    1.37195575216321   10.92864521541525
F         8.60546879586938    5.81705693234043   10.92886957951023
F         9.24075156404164    1.96301252507664   12.07875432606834
F         7.22898256758006    7.02208359713439   12.07842913652022

