89
CSD_code = ADEVOU | q = 0 | S = 0 | Stoichiometry = C36H48NiP4 | MND = 4
Ni       14.18934540480775    1.63851068157275   10.24863364519117
P        12.74607098338700    3.28031023710522   10.19424130098179
P        15.72284388118940    2.87873764360761   11.19945376296374
P        13.40912768495809   -0.07594509149627   11.36004709901016
P        14.49572224959796    0.45538558609569    8.43236210447304
C        11.02057749915088    3.19233341528109   10.77862384858268
C        10.29830544552287    2.09798437353770   10.31109315162735
C         8.99785848790388    1.87816089430546   10.71716070446476
C         8.40273574068205    2.75168916637702   11.61274053904712
C         9.11286977560032    3.84049751710341   12.08801532331375
C        10.41527198256200    4.06365506422109   11.67546993479089
C        12.58009681607736    4.32947362517852    8.70732136066389
C        11.50886029406834    5.17930241300112    8.46412631112362
C        11.49703585159622    5.96299985191821    7.32375559672799
C        12.55069845907213    5.90929327055003    6.42551342815235
C        13.62006048394776    5.06048729663617    6.66209344984094
C        13.62862759099864    4.27069673464659    7.79585874100574
C        13.49331774144051    4.55251959156622   11.32819067982881
C        15.00272232824891    4.59243030125805   11.11751097829218
C        15.94131737074091    2.66410684952195   13.03172710071033
C        16.89362176530746    3.59528722929102   13.76894635165533
C        17.43994878976711    3.28569793866775   10.63721974308665
C        18.32326480136401    2.04623518616824   10.65303730179559
C        11.85758904563721   -0.09291883936268   12.31898155048711
C        11.69496025261151    0.98009678540526   13.19090844035215
C        10.54238945651901    1.12277658509217   13.93632174924758
C         9.52437064377910    0.19181786957966   13.80875527893452
C         9.67315116959579   -0.87697770542585   12.94192198142634
C        10.83232742548808   -1.02282048045533   12.19941174900544
C        14.50756125863988   -1.08975892557089   12.41107066534206
C        14.06412781783657   -1.97267965495618   13.38715710486457
C        14.97978852316246   -2.72184273134876   14.10504855956332
C        16.33665373779843   -2.60092468964331   13.85173086560757
C        16.78427174873769   -1.71830712447999   12.88167764269974
C        15.87154704146946   -0.96254718705088   12.17113717540148
C        13.07627679579941   -1.33760237702318   10.03310648937370
C        14.19468938093403   -1.29168550825676    8.99787450704664
C        13.22081826233045    0.62362550201838    7.09120804810598
C        13.33953354271293   -0.25891423714574    5.85651950160749
C        16.05155963703663    0.16149127613782    7.47175171646056
C        16.53709175631193    1.44944030340755    6.82197983153341
H        10.78887748873834    1.41275610444598    9.63001147906025
H         8.44883207504660    1.02341494329782   10.34862035132115
H         7.38864953238871    2.58105288498721   11.94390746909466
H         8.64926052421790    4.52132453657038   12.78875335415094
H        10.95351924139068    4.91863853665688   12.05780561410381
H        10.68428866610707    5.22199379934362    9.16212616756497
H        10.66128212003655    6.62176794713167    7.13385232359067
H        12.53510819422907    6.52599092589255    5.53829218935024
H        14.44014890174453    5.01322763054858    5.95910237681681
H        14.44291191481721    3.58032118402348    7.99311534674985
H        13.05016498516435    5.53777367653659   11.15051519842168
H        13.26731039881291    4.23645571528888   12.35135695579184
H        15.48136706742170    5.25573528307763   11.84339888154518
H        15.21738063396235    4.97437890356452   10.11396736461739
H        14.93153784521387    2.75394008067167   13.44595816918933
H        16.24382407009845    1.62433955880264   13.18784352641004
H        17.92441476086078    3.42259160693764   13.47020802242971
H        16.82176074557276    3.41390341519806   14.84064111942329
H        16.65314567055770    4.64117109137459   13.59082570035378
H        17.35158384241119    3.66021106221417    9.61299779609339
H        17.86185365435295    4.08387729112841   11.25127803711740
H        18.45129566007731    1.67447520631439   11.66798370276525
H        19.30667841460217    2.26009746729031   10.23666725468407
H        17.85940474992618    1.26009794407015   10.05839320540424
H        12.49115716086322    1.71168543124859   13.25789248741886
H        10.42745805790415    1.96220784818525   14.60706175772771
H         8.61428776475766    0.30199702591383   14.38038885952385
H         8.87838558496663   -1.60321154058216   12.84158230334944
H        10.93016831725044   -1.86392945853496   11.52879505433273
H        13.00609124502843   -2.06878380983844   13.58793302866954
H        14.63367478977570   -3.40648426217267   14.86667339021750
H        17.04534857037105   -3.19079705244113   14.41522199001242
H        17.84318797740814   -1.61768825071333   12.68775295302423
H        16.19724617473662   -0.24553798426659   11.42394955830803
H        12.98713883628469   -2.33993114314423   10.46454496275301
H        12.12501873479772   -1.06106039818744    9.56759196875202
H        13.96851293627364   -1.94524072993301    8.15067425860203
H        15.12638890194217   -1.63851347926641    9.45663519437108
H        12.26406933009958    0.44193327292426    7.59206628377308
H        13.21615517865977    1.67701008739935    6.79569023391884
H        14.21309642326300    0.00576153939618    5.26620626182581
H        12.45948965502686   -0.12560943594443    5.22848482696994
H        13.40641462866721   -1.31278616021866    6.11867255591743
H        16.79811495580482   -0.19087084893700    8.18977048868324
H        15.89944519432482   -0.62634117915731    6.73132385155956
H        15.82210969521359    1.80346403559871    6.08148165462542
H        17.49890829426424    1.30389623247447    6.33207440857694
H        16.64942151018042    2.22097482779350    7.58290474665018

