87
CSD_code = ADEVEM | q = 0 | S = 0 | Stoichiometry = C39H45AuN2 | MND = 2
Au       14.39093977926097    2.88317417818407    3.67934620146522
C        15.93433992782625    1.96012775074744    2.78969747645661
N        16.52966789827579    2.29674657613077    1.63094325775261
C        17.52486510520863    1.40599974003800    1.31860167350505
H        18.11802729542187    1.50203958283690    0.43283879209698
C        17.54832511574790    0.48709539800047    2.31251907172488
H        18.16579573390499   -0.37423508972933    2.46268069664801
N        16.56647903432117    0.84538317903471    3.20068706222560
C        12.88047910190304    3.75283815825156    4.50698660670944
C        11.91305742486557    4.30319892887157    4.98537450365932
C        16.24131539185231    0.15213334807601    4.39715052275384
C        15.26810508118426   -0.84775201153148    4.35558776051432
C        14.95120003048852   -1.49661425290332    5.54106058655164
H        14.19575367077127   -2.26655436317332    5.54324227471376
C        15.58366068288501   -1.16084726460441    6.72247079271405
H        15.32176559243478   -1.67296963014069    7.63630746627877
C        16.54199020568714   -0.16598681777291    6.74258414596319
H        17.01812497480240    0.09410971455744    7.67489319262507
C        16.88940864414567    0.50931694567578    5.58083547732707
C        14.54950698283366   -1.19716163670151    3.07376934443646
H        15.00620346052293   -0.64820840606732    2.24377823854603
C        17.90765470235205    1.62452304015953    5.61544795850394
H        18.12141159989820    1.94880503815423    4.59179091207447
C        16.16261821733750    3.42487315436975    0.84924866601389
C        16.79050672805571    4.64768557078423    1.09235523772720
C        16.41490653400781    5.73771767675826    0.31956813869115
H        16.87541767294752    6.69801743525715    0.49063836276325
C        15.45021161352855    5.61075462562702   -0.66107417971111
H        15.17055596353503    6.46897737246233   -1.25375934228567
C        14.83333811826073    4.39409526694320   -0.87878548731092
H        14.07057062386581    4.31289136473147   -1.63718728256652
C        15.17556278934576    3.27859027562695   -0.12688570876564
C        17.81860300546171    4.80245520848287    2.18800772384002
H        18.04534625262717    3.81854872154657    2.61150047467779
C        14.46533911502902    1.96324706243802   -0.34256072076330
H        14.92635711923609    1.19641174174372    0.28850141064704
C        10.78648974601312    4.94734455929203    5.54388139472536
C        10.13585241068602    5.98312435041864    4.84984639845073
C         9.02670483214104    6.60015550677557    5.41912133247408
H         8.53742372075218    7.39665274485598    4.87360891837199
C         8.54238417954476    6.21840960908427    6.65931928672063
C         9.18500561279953    5.18589885388425    7.35416063547240
C        10.28904735800371    4.57048048923551    6.79032224924354
H        10.78930072025290    3.77194102426415    7.32267657521180
C        10.61320227702423    6.39063554441982    3.58309673865976
C         7.34543683707422    6.90579614355653    7.24558492337303
H         7.59539164195145    7.36932453023622    8.20045248971747
H         6.53952434637373    6.19345622863088    7.42487183172145
H         6.97890839511089    7.67827028252222    6.57330643697439
C         8.68500539513582    4.74783780948919    8.69828047736005
H         9.29474987714010    3.93616829084936    9.08865107802256
H         7.65233187880469    4.40421511673147    8.63256865501057
H         8.71371261161302    5.57458811579958    9.40858662408203
C        11.02088507034941    6.73268213137017    2.50666104059063
H        11.38081575618547    7.02807775296248    1.56702090797041
C        14.66598748010142   -2.68969895204156    2.75857931191026
H        15.71021988396978   -2.99524325000865    2.72921408281996
H        14.21762623304724   -2.89982774898910    1.79002327501820
H        14.15405378379309   -3.28947687306249    3.50593417128424
C        13.08379112031282   -0.76725203410611    3.16746747467035
H        12.57243763254807   -0.97093397925999    2.22936938076730
H        13.01546432554511    0.29974101964534    3.37595204808746
H        12.57400891327459   -1.30413526798340    3.96300037472648
C        19.22673929255177    1.16141733884659    6.23616029833727
H        19.96891232556339    1.95333906262615    6.16276835797004
H        19.60660913389077    0.28318019474112    5.71752095087419
H        19.10082282896827    0.91212302662782    7.28605441200199
C        17.33173896841285    2.82229423382093    6.37435482607205
H        16.40188209399511    3.15039026060550    5.91183120090386
H        18.03732805021803    3.64992801050197    6.36186743770741
H        17.12472255845652    2.55942064050185    7.40837657233161
C        19.12649829011182    5.38551794706484    1.64974234310913
H        19.87437040503955    5.41014038701346    2.43927430054551
H        18.98398460426093    6.39955456993213    1.28674066401496
H        19.50840759537141    4.77823765584114    0.83114056667649
C        17.24690006189902    5.67264586820461    3.30980841549361
H        17.95763252098912    5.74284796259734    4.13019184683187
H        16.32066071982739    5.24185350982786    3.68731237601026
H        17.03436951802866    6.67579750583454    2.94969298251233
C        14.58206278949523    1.49770557101999   -1.79524199216541
H        14.13371198271700    0.51286799726220   -1.90618208775749
H        15.62636442396511    1.43749637881498   -2.09618063925086
H        14.07041607150773    2.18061311471656   -2.46774630353157
C        12.99973079606009    2.09425523488380    0.07848646233269
H        12.49481561729145    1.13555793698950   -0.01609483014445
H        12.48225394413629    2.81980592803831   -0.54342174015819
H        12.93149217795507    2.42235008227602    1.11482415777320

