91
CSD_code = ADEXOW | q = 0 | S = 0 | Stoichiometry = C44H39BrO3P3Re | MND = 6
Re       12.00806174730280   12.18596732587973   14.42525884526382
C        12.74814030544335   10.45779740257338   13.88489458185389
O        13.19152408124721    9.43110276988187   13.64779355851836
Br       13.39300464713321   11.96500858394107   16.59257601359478
P        14.05012284886624   13.31232015307234   13.67854449645206
P        11.34788415983538   14.28520313383681   15.49985441934796
O        10.27268917282655   12.12110828824068   11.87282093194425
C        10.93766589628058   12.22892914296868   12.80830019243649
O         9.78379342581957   10.67303619875628   15.96082869813738
C        10.56782914075537   11.25083022050030   15.36207207406925
P        15.91749981641378   16.29491906883502   16.98234755270491
C        14.70873053031199   14.63722711206037   14.76955139236316
C        13.77603017488385   15.80290008231202   15.12028515494634
C        12.70206408426188   15.36398248420257   16.12443087975096
C        15.42528925943947   12.11955032703776   13.61733976854554
C        16.37760245789141   11.95209960879942   14.61383386158552
C        17.33319716160358   10.95761580091368   14.48797705900852
C        17.34170443080219   10.12673726413191   13.38185330276464
C        16.38515474498808   10.28337318780030   12.39053311151357
C        15.42909964223908   11.27112558993575   12.50975338123004
C        10.19915641806194   15.48730338318361   14.74176641146991
C         9.81053172184055   15.36333537503223   13.41560712262622
C         8.93075638617934   16.27164814700442   12.85453138185546
C         8.43044340031825   17.31009036070322   13.62054129403898
C         8.80444684380731   17.43252112758740   14.94999667707220
C         9.68190164958465   16.52513318230350   15.51132119732400
C        14.25178726907416   14.03879581286135   12.01496139799778
C        15.51559774329701   14.43344372122277   11.58575854912221
C        15.68045599013588   14.97475644308105   10.32558208318604
C        14.59014435808278   15.12181786532465    9.48171811754451
C        13.33350382615437   14.71878812556669    9.89884548545735
C        13.16714556676319   14.17741989813692   11.16106740709789
C        10.39046598419894   13.92454961915885   17.00728451199429
C        10.92355375237425   13.87926118978226   18.28823060256826
C        10.11800922398292   13.51425559449223   19.35375639199032
C         8.78955252473782   13.18638858753981   19.15118383636722
C         8.25737517402894   13.21627883120099   17.87117807650139
C         9.05406708982720   13.57819807126903   16.80425239577612
C        14.85632563818902   15.90405150657927   18.43174933161120
C        14.87321145351951   14.60618667489150   18.93029631563515
C        14.10508758431033   14.27176653626054   20.03258453598465
C        13.32263796656399   15.23515221535417   20.64645304227162
C        13.30284760306470   16.53123567494949   20.15347576002213
C        14.06641460214583   16.86733048691480   19.05211650974952
C        16.55985568482997   17.89870482278570   17.59532859144998
C        17.15778420664677   17.88353526184666   18.85502850674876
C        17.73202532128303   19.02510250486598   19.37721351978192
C        17.73328317648375   20.19929604016152   18.64090274721727
C        17.16658972173858   20.21673877410704   17.37889961525888
C        16.59012438790941   19.07309767434531   16.85287835708209
C        14.63631266332752   16.90614771980208   15.76416240458292
C        13.12342615768254   16.37258209625720   13.86265852828402
H        15.01324671226863   14.14798576248603   15.70183679825331
H        15.60903212533467   15.02403675971667   14.27642064954012
H        12.21155777559289   16.24484270689866   16.55560816032865
H        13.18481803426516   14.81378234815353   16.93715530353827
H        16.37544932139567   12.57047301131748   15.49816518828277
H        18.06857457856421   10.82843406967264   15.26805783462405
H        18.08627373084594    9.34948742269644   13.29449265692110
H        16.37933823499262    9.62971034970663   11.53086044653726
H        14.66775097524844   11.39184487162349   11.74669429887399
H        10.19667228071682   14.54346856642985   12.82563650264696
H         8.63349183300600   16.16476786932459   11.82192778519534
H         7.74259392400854   18.02033179406986   13.18646490113773
H         8.40490689146678   18.23562770077652   15.55209220442054
H         9.95404935861361   16.61114637201452   16.55541511552033
H        16.37247312560633   14.30105415570026   12.23332177041045
H        16.66360557940106   15.27834963152182    9.99650731070424
H        14.72396928014666   15.54332061001268    8.49658517570451
H        12.48314038804472   14.82087927539058    9.24111692476285
H        12.18994448934743   13.85078296125880   11.48935838718434
H        11.96337748134466   14.10138546477062   18.47010507680893
H        10.54212879758238   13.47644585904688   20.34594761568579
H         8.16953170976159   12.89564972137158   19.98621061403973
H         7.22480844991270   12.94731526119875   17.70441295705772
H         8.64949312273639   13.58826382056013   15.79817911188392
H        15.47659380467233   13.84993939902330   18.44861106981788
H        14.11709172330081   13.25760753653667   20.40101399915402
H        12.72745913647998   14.98056345831511   21.51111819032988
H        12.69278106030633   17.28313799900477   20.63378840174083
H        14.06114088060874   17.88361973652912   18.68027976551300
H        17.15873983380206   16.96503717477391   19.42724691251445
H        18.18211874648681   19.00066330360866   20.35896107194168
H        18.17999943943547   21.09470337765262   19.04708349997978
H        17.17363087980698   21.12663997866853   16.79567714933201
H        16.16341029751393   19.11092544824511   15.86146007449671
H        14.00390943990514   17.66805748643018   16.23055440212784
H        15.21356489902703   17.38609946786387   14.96641382505302
H        12.50000748452598   15.61192641533490   13.39052900777598
H        13.87656780430094   16.68900938568417   13.14205679875051
H        12.49344755097844   17.22693639615623   14.10755305954800

