79
CSD_code = ADEYOX | q = 0 | S = 0 | Stoichiometry = C25H51NPTa | MND = 9
Ta        1.01349556215986   14.03557595711863    2.07363292636222
P         2.43288247447598   16.54326055902078    4.00700043510158
N         1.92660337005561   15.42611959367307    3.03529488229015
C         0.55685425846453   12.60051910869200   -0.89769443743338
C         1.27945480378014   13.77342978326461   -0.77991192624869
C         2.39585009124203   13.52068186138537    0.10926781327899
C         2.36342231716202   12.10454414937591    0.41682662476925
C         1.22605733573791   11.57091241828094   -0.16021896371352
C        -0.70717409153276   12.37279094439959   -1.66096794552020
C         1.06284425744905   15.06275645122194   -1.51397563928887
C         3.68118827768238   14.30415457964390    0.03889175980533
C         3.46110666213623   11.37215413352403    1.12829861466723
C         0.73164207726500   10.16320157902037   -0.08319815009846
C         0.97701350950104   17.22257458363472    5.07692358707293
C         0.10496652063867   18.06727378547291    4.14931980784798
C         0.12117348665213   16.03141585102486    5.51266928128044
C         1.38049219473013   18.06194228951632    6.28571467808781
C         3.19175978150685   17.95929908801156    2.93852338095550
C         2.27688395810277   18.15908905103206    1.72977952028996
C         4.52147481759331   17.44040926584830    2.38974796745176
C         3.42867101173549   19.28293567005740    3.65825441697841
C         3.79800032717050   15.80801684178509    5.15527462749368
C         3.07778155640770   14.93255182314221    6.18114292782647
C         4.66212715455622   14.87770271438850    4.29999600514854
C         4.67100795883587   16.81989660033641    5.89156994912130
C        -0.65863810352428   15.55863579951729    1.49190470160512
C        -0.91429579166488   12.79680015193750    2.27568318725748
C         1.52532194824042   12.54726754332990    3.79774434352004
H        -1.48386528587858   11.97072385895984   -1.00817558465602
H        -0.54491304370086   11.64997880005810   -2.46209622704980
H        -1.07407755125062   13.29597484488152   -2.10393427377971
H         0.01832263012862   15.19069572583636   -1.79205331276859
H         1.65631493563762   15.07650197535120   -2.43197237780182
H         1.36080235239934   15.91992798395749   -0.91022479390806
H         4.30924819903295   14.11566307999479    0.91021406827597
H         3.48805948855897   15.37469638073659   -0.02812252038813
H         4.24872111133568   14.01196157348680   -0.84879928767634
H         3.92107864260729   11.99268223783203    1.89722848823951
H         4.24146977667324   11.08418603663809    0.41889350469875
H         3.09099362889591   10.46399182763840    1.60080372924112
H        -0.29983602276643   10.13594015544477    0.27163292240155
H         1.34317165742427    9.56523006021988    0.58896998644385
H         0.75226058340982    9.69636812114311   -1.06955425909995
H        -0.10077493882668   17.51013644032696    3.24010883917347
H         0.56777607086773   19.01914702403964    3.90713921236147
H        -0.84445927472717   18.28453337939219    4.63846413348881
H         0.01668242680004   15.32674705535502    4.68607132750577
H        -0.87140245082964   16.38291483714504    5.79136444377532
H         0.53416414880428   15.51307142412135    6.37035866946723
H         2.02422798817162   18.89015245258154    6.00472067465880
H         1.88388722862632   17.47052490416738    7.04465742471756
H         0.47983641736575   18.47652612261639    6.73935534986461
H         1.39008617192687   18.73584168861430    1.96626487767742
H         1.97224388342418   17.18421578637252    1.35087179666506
H         2.81397303886796   18.68810260785014    0.94271209000387
H         5.30006491889706   17.43293814364138    3.14600094643636
H         4.86242543108152   18.08727395986647    1.58100566160652
H         4.38922222481011   16.43811632932668    1.99110080851104
H         2.49730036946512   19.76596086949218    3.93896869327977
H         3.95895975566699   19.95923698363638    2.98690242881508
H         4.03559341721495   19.15240028540443    4.54936478083934
H         2.34527586007493   14.30644724810509    5.67955547760938
H         2.58923615463515   15.52719707396875    6.94666869746774
H         3.79827945589032   14.28759788622025    6.68454744344534
H         5.45942018940632   15.40441007096599    3.78643843187241
H         4.03253441169316   14.37788244756046    3.56447119379466
H         5.12551304723540   14.11908346423218    4.92971971627774
H         5.30607334429309   17.38456506535576    5.21500636866808
H         5.32347504473222   16.28239994827801    6.58048584717896
H         4.07495624799313   17.51776929508134    6.47197750342532
H        -0.25398158910365   16.52963247549907    1.20518505912117
H        -1.40749466397969   15.72288482864949    2.26482470440152
H        -1.17898984025070   15.16161268710626    0.62168475644346
H        -0.68543019873296   11.73137379503724    2.30012377688253
H        -1.57525013608329   12.95958562135491    1.42443728804470
H        -1.49857824484281   13.01221667003819    3.17175520625295
H         2.56610500085993   12.63083770129352    4.11070164972157
H         1.38463620025070   11.53493208973440    3.42218112232184
H         0.90069405925719   12.64749649772863    4.68439916013893

