108
CSD_code = ADEZOY | q = 0 | S = 0 | Stoichiometry = C42H46BClF15NPTa | MND = 8
Ta       11.08931106012020   -2.25385027412377    9.46717491519269
Cl       13.10259204615339   -1.94330260593235   10.49638102434001
P         8.94325358137060   -2.68168314935470   12.07224175886999
F        13.49556166738740   -7.17693378184967    5.19814980569843
F        15.58088770973477   -6.07326103457384    3.96353957473775
F        16.39644664954631   -3.53378017236220    4.61104549995993
F        15.00594975151284   -2.15158458458225    6.52934232002049
F        12.89519465135226   -3.16805510414626    7.71499874746294
F        11.26012743686266   -8.92253238774415    6.37200383058623
F        12.44065816625081  -11.14373507326387    7.21966941316597
F        14.50305934926831  -11.03749882835068    9.01628798401148
F        15.35419606752419   -8.59334527013385    9.92449087878102
F        14.16412312478956   -6.35309414627076    9.09154884840210
F        11.30430271223090   -4.84873897237160    4.65744952465694
F         9.00992852448321   -5.06847774138789    3.33752440284527
F         6.93671834202548   -6.54167521446320    4.36581071720237
F         7.25521761842921   -7.77205240728930    6.79293553431613
F         9.56929722807439   -7.58513947000551    8.11156941435650
N         9.76697369752348   -2.33703982591905   10.75699464169339
C        10.39795084271690   -0.45378077903172    8.11165364822835
C        11.62653048692835    0.37674017640126    8.18589540373547
C        12.34888953729864    0.20469597935441    7.04619265021865
C        11.63441363902515   -0.70955915918602    6.17053367916048
C        10.46391202952761   -1.07247990951115    6.76896691935833
C         9.09170387057068    0.22121017190603    8.48654877769996
C        11.93791556259836    1.29000692016441    9.33278406737431
C        13.63368051635722    0.86608133612159    6.68123650182021
C        12.11763587283025   -1.12615987726925    4.82319292525474
C         9.33370011620175   -1.83057328736861    6.14463762241328
C        10.11729189293884   -3.60572406467404   13.27492902769014
C         9.38005613743344   -4.26025477403126   14.44062777010125
C        11.11698304486945   -2.57554761583250   13.80108417727261
C        10.93399536321394   -4.65462129852968   12.51861590271255
C         8.37138779745512   -1.00282286905030   12.80309719476904
C         7.85061033397970   -1.08009180450060   14.23442607259593
C         7.26308194603203   -0.47773971156881   11.88973564199859
C         9.53957724760775   -0.01714189916056   12.70744890435606
C         7.46159463054913   -3.76770477800562   11.52623573368193
C         8.00944178500842   -5.16458394849849   11.23272853928185
C         6.34821205290036   -3.87238429612565   12.56339877834649
C         6.92606259613350   -3.20816176763141   10.20573464758310
C        10.48635934216860   -4.14824577357003    8.39113168391401
C        11.41868831928304   -5.31731804971187    8.70283783196514
C        13.10565777455309   -5.27497630885659    6.54953211790462
C        13.84154754202990   -5.93457547177768    5.56147636256666
C        14.92773592363694   -5.37710271681346    4.89906439040458
C        15.34459308438479   -4.09069553398681    5.21986167564456
C        14.63699968056424   -3.39463082471545    6.18613790204191
C        13.54314862372784   -3.98417676919850    6.80684497688676
C        12.60162316408374   -7.52806734575804    7.75113658912482
C        12.23379773248942   -8.78631412123974    7.28402328294691
C        12.85242464739121   -9.96264500823502    7.69774136291196
C        13.90237805233093   -9.91475199810921    8.60393671905645
C        14.32646726932072   -8.67598858008481    9.06549615110130
C        13.68044334330930   -7.52649417440991    8.63106935014750
C        10.57790836835100   -6.27309518409393    6.41739649704125
C        10.35418975341211   -5.64032853663895    5.20203349094300
C         9.15626583908450   -5.72471492238110    4.49858924641882
C         8.10355880416218   -6.46263977316734    5.01744071527921
C         8.27361237563988   -7.09186020200546    6.24468212081213
C         9.48467111683765   -6.98300654434036    6.91255657222974
B        11.91677000120283   -6.09989629213242    7.33310307358190
H         8.88112296645110    1.02129995483164    7.77545196415130
H         9.14834249861217    0.65972457937844    9.48072176033868
H         8.26465398051898   -0.48622689179438    8.45385690720380
H        11.62625184466297    2.31006166666965    9.09938090316038
H        13.00692711631443    1.30704027296029    9.53684186326864
H        11.42299360799048    0.97569746825139   10.24101657136359
H        13.55676789147605    1.30858036350280    5.68907023015618
H        14.45125075609508    0.14772764733842    6.66434474624202
H        13.87958504838617    1.65020098341494    7.39201787722093
H        11.68470388009577   -0.48789531114361    4.05168590431919
H        11.82933294379473   -2.15306466554060    4.60375753384104
H        13.19921439923728   -1.04247256715159    4.75837643945265
H         8.69613264354463   -1.14384010450247    5.58422541161648
H         8.71929082224969   -2.32789170776361    6.89475845757557
H         9.70328326921922   -2.57207144401340    5.43934521916537
H        10.11332689896702   -4.64153139635688   15.15023068871642
H         8.77643310268320   -5.10173750212858   14.11336513039612
H         8.74200949208105   -3.55644531173447   14.96615964581646
H        11.91973169906046   -3.09088996441271   14.32637223134942
H        10.66162810555894   -1.88758814415314   14.50604458527261
H        11.55983338277781   -2.02424591179209   12.97239135907470
H        11.72751332582859   -5.01282949314348   13.17286676650125
H        11.40109137808366   -4.21649848629247   11.63712464790024
H        10.35016597579332   -5.51632830264327   12.22051075072789
H         7.45065438451454   -0.10611221514685   14.51504922214614
H         8.63765877293917   -1.32464104063680   14.94177075295894
H         7.05188362976277   -1.80961523755082   14.33310856364017
H         7.05339743171160    0.56301115033367   12.13360657851469
H         6.33741660609845   -1.02934545500363   12.01818517174357
H         7.57995814940779   -0.52830945012350   10.85179165557737
H         9.15562900808627    1.00146009959839   12.68758759445473
H        10.10146750157612   -0.19335850634705   11.79010264504727
H        10.21635323538966   -0.09033404807029   13.55089698949687
H         7.25710574677230   -5.74622915335391   10.70192195837381
H         8.24625116571306   -5.70601344067290   12.14328037598997
H         8.89171634181381   -5.09808915668721   10.60165666432230
H         5.60809621123868   -4.58931206493549   12.20993780667614
H         5.83793072569123   -2.92586053914921   12.71610199446926
H         6.72309816283059   -4.22478817272127   13.52000164136134
H         6.36129636266476   -3.98190212825235    9.68910724829645
H         7.75794297483137   -2.90634810225925    9.56922922276983
H         6.26193150745466   -2.36332583153776   10.34834594340177
H         9.44532084349487   -4.44968363730476    8.52748260252406
H        10.58715785526154   -3.87828430963188    7.33884217823884
H        10.91973097673905   -6.01660878515027    9.37471603007663
H        12.30364793121606   -4.96858427561958    9.24000403012526

