81
CSD_code = ADIHEA | q = 0 | S = 0 | Stoichiometry = C36H33BCdN6S4 | MND = 4
Cd        6.68790023502974    3.71104398802778   12.48857545771121
S         9.12944442188754    4.86556302305825   12.30155713583378
S         6.33014569506368    4.88175363158002   14.91076366508380
S         7.70684968968041    1.37256727283969   13.37871626585194
S         5.34979619563077    4.05187889289741   10.44652333116663
N         9.36835039330253    5.00635943631032   15.03781323573867
N         8.89795698097168    6.89467415502161   14.02281745961247
N         8.08032607752561    3.02011508821518   15.93872211238473
N         5.95134911205402    2.49623703720079   16.03468254372002
N         9.95584849194836    2.67622006198006   14.27670958013834
N        10.18586488476597    1.56832489339414   12.39766112846552
B         9.45966837925188    3.52857716879644   15.46711990225230
H        10.23743667770766    3.42919641670370   16.36234692435448
C         9.34022737184056    6.00978187931590   15.97269586399581
H         9.51870795707568    5.80158159303910   17.00666807016683
C         9.05634734425039    7.17660724078133   15.35524422114459
H         8.93096297996479    8.16757884173997   15.73888902508618
C         9.08908345072523    5.56446605235753   13.84278713596024
C         8.46430380289199    7.80902944701918   13.03629254905341
C         7.29105160132989    7.56494910713996   12.33408597288528
H         6.70201024152504    6.68075487780030   12.54912344738168
C         6.86479224179348    8.46670711689652   11.37964081511234
H         5.95007129512091    8.26755339406285   10.84121985732081
C         7.59086914607454    9.62286168320876   11.11475214372876
C         8.75392900207011    9.86056369638458   11.83712005701750
H         9.32658815192824   10.75697858143579   11.64778218510049
C         9.19375455079955    8.96366011556847   12.79317838337546
H        10.10310130241584    9.15035022699397   13.34558217363023
C         7.13395479132434   10.58029365197034   10.05827096493348
H         6.04817733197121   10.60589400019667   10.00528667518074
H         7.50950543654307   10.26175850356286    9.08549691678560
H         7.50538727647021   11.58367445202601   10.25213317064492
C         7.95505858641224    1.80296327786667   16.56231523891559
H         8.81764614282798    1.27142568270823   16.90515105830766
C         6.64751690803262    1.46610888517717   16.61044979492468
H         6.15393267145743    0.60011714243436   16.99940134475554
C         6.84146716726432    3.43314129191702   15.62318334693298
C         4.59205096774526    2.51287989991879   15.63726130416666
C         3.72030826365344    3.46066664956109   16.15235507974529
H         4.06379382568014    4.14917923118723   16.90907043478333
C         2.42669301356850    3.52685777276114   15.66882543275658
H         1.75001299245418    4.26942662425138   16.06583402003957
C         1.99047758668133    2.66552563989128   14.66897940487806
C         2.87470323223846    1.71210187938921   14.17461079333987
H         2.55146410356474    1.03716408779522   13.39581685112199
C         4.17136372960218    1.63140446081909   14.64816562260801
H         4.86570020155807    0.90342140167416   14.24938306705534
C         0.61143732443667    2.78947009172745   14.10112027956733
H         0.63776580591422    3.43638394885195   13.22325354321478
H        -0.07150699686813    3.22845995881412   14.82440265888141
H         0.22844267981259    1.81984294925293   13.79194051053769
C        11.26489560678770    2.76158244011742   13.87703096037682
H        11.97868335248292    3.31534254735907   14.44978406317106
C        11.41632702702947    2.07643780996841   12.72329225072646
H        12.27097211971994    1.92631545580963   12.09731068888354
C         9.30292537483289    1.94410251841332   13.35516827696969
C         9.88396810051710    0.85108879388590   11.21883309473872
C         8.89024268010407    1.30228029951662   10.35994017627318
H         8.34974775048806    2.21642834624673   10.58044610265145
C         8.60893185305543    0.59137406472565    9.20983290108145
H         7.83209322690403    0.94625939052424    8.54925284749743
C         9.31405360401536   -0.56411513063294    8.89077692902136
C        10.31788581891071   -0.99121958318561    9.75143535008688
H        10.88026785666388   -1.88318927043701    9.51616325787654
C        10.60472461790954   -0.29393247862682   10.91012869306106
H        11.37906088224394   -0.63737601708738   11.58054681677331
C         8.98279740084338   -1.33874763945081    7.65313382278193
H         8.15315760621446   -2.01723712301713    7.85362104595099
H         9.83267751029770   -1.93139392096003    7.32351529426880
H         8.68096154214708   -0.67131479378941    6.84948082960758
C         4.26644094527879    5.27246895196207   11.10001685280638
C         3.70062685710645    5.14740655814153   12.36721658284288
H         3.92226372311958    4.27343314142949   12.97514077346224
C         2.84641712985668    6.12247245235037   12.84468716153701
H         2.42499051803679    6.01668711021830   13.83393014648131
C         2.53240607802292    7.22353203694180   12.06413107439401
H         1.86657329609556    7.98530493042299   12.44214637597194
C         3.07346258234566    7.33808810804246   10.79363558635871
H         2.82536119730262    8.18964952662850   10.17527724478293
C         3.93409662023455    6.37121535210115   10.31048948234320
H         4.36179640398111    6.45175971868793    9.32175716018507

