87
CSD_code = ADILIL | q = 0 | S = 0 | Stoichiometry = C34H46FeN4O2 | MND = 5
Fe        4.40603104167364    8.01959072966834    4.57733892332938
O         2.04287251397460    9.04208581643126    3.20920428196779
O         3.08050063731943    5.52054992245244    5.27559099437080
N         6.42784775044840    9.48206840009325    3.25791589421228
N         5.69467999802109   10.42832399102506    5.28787561141437
N         5.72053989093100    7.35857784629112    3.07585651694998
N         4.47432485969578    8.94985454674640    6.45609996936525
C         5.55046542005731    9.45245949140868    4.32290023251406
C         7.26427311165818   10.62316070897573    2.95153352793592
H         7.31929717314638   10.76038985567421    1.86794824705778
H         8.28349740970872   10.45934382020292    3.32942747618074
C         6.66042437400215   11.86098461753540    3.60296337858624
H         7.29713940479026   12.72804665180125    3.42806882217295
H         5.67817763056328   12.05314211938185    3.16582981191362
C         6.50197174335272   11.61452211941147    5.09808938689180
H         7.48871542113077   11.48098678289619    5.56370930065892
H         6.01486597945695   12.47240492113276    5.56967414724361
C         6.44842417638148    8.31657778583955    2.55846238314491
C         7.26895090719929    8.21051139474053    1.30876880789416
H         7.25043392652968    7.18485059492944    0.94910585161906
H         8.30343548088936    8.50173684933385    1.49188392359950
H         6.86533675381931    8.85806692662918    0.52918548557564
C         5.68250422488543    6.08976893400623    2.45494342360566
C         4.86211465067543    5.85380648575125    1.34335611308397
C         4.87633417776886    4.59610544696853    0.75760058015144
H         4.24806577729861    4.39970549930067   -0.09805914898728
C         5.68749733126728    3.59147153995005    1.24708681533906
H         5.70177276218155    2.62371799712225    0.76733996474470
C         6.46707305107405    3.82161958553550    2.36505554870103
H         7.08182306684953    3.02345725099988    2.75051394762280
C         6.46657462909829    5.05749691746896    2.99280203588481
C         3.92487158007211    6.91682073767176    0.82146379093489
H         4.09933777496529    7.84021412734649    1.38377108891635
C         4.14648810513339    7.20160885596938   -0.66517498193181
H         5.18539028402721    7.45931903244896   -0.86096624229305
H         3.51786905248327    8.03116635730844   -0.98215287233730
H         3.89230167956012    6.33467799718606   -1.26996002066973
C         2.47958216496711    6.48504531568342    1.08061473392749
H         2.34444455198221    6.27200820274734    2.13894836002072
H         2.23217727008685    5.59164129924868    0.51201803177703
H         1.79234396662329    7.27936523651885    0.79845802799180
C         7.29670551972830    5.30992975115135    4.23013760380857
H         6.82380704019493    6.14050914390204    4.77306626940164
C         8.71849448754939    5.72545710539783    3.84137157021943
H         8.70422084765813    6.63340175418306    3.24363961853837
H         9.19637120947909    4.93911867952647    3.25968466993010
H         9.31638322850904    5.90740285801662    4.73249726364179
C         7.33699178002739    4.10124896925107    5.16318429966166
H         6.32958623691666    3.74771849186186    5.36684727546634
H         7.80264097111171    4.37932796548500    6.10589709765745
H         7.91571056506035    3.28571595320687    4.73587348477910
C         5.03789916447409   10.13228464720676    6.44044156901350
C         5.02362905227319   11.11732138344378    7.56892585435240
H         4.48728553031493   12.02366285078866    7.28525884985810
H         6.03841955100545   11.39532812759110    7.85457453793012
H         4.52517036737060   10.67542436348219    8.42794772578855
C         3.78323300836968    8.51766154254787    7.61131809169182
C         2.44863402776674    8.88536624546188    7.83131158588186
C         1.81342733639710    8.43901710149382    8.98106491244855
H         0.78464431554819    8.71245456559329    9.16099890028837
C         2.47715757732988    7.65566997853397    9.90515911209099
H         1.97192582635992    7.32952236466470   10.80249967227677
C         3.78623869234316    7.28109494197749    9.67094991041853
H         4.29614608149426    6.66024062943082   10.39217322690964
C         4.45193518411243    7.69311760953510    8.52666054657402
C         1.68745684320012    9.71093856011608    6.82165948571704
H         2.36963357479349    9.97534914572739    6.00660625146222
C         0.55562084330223    8.87352539975254    6.22262008842657
H         0.96034669442607    7.95267534285966    5.80819335877655
H         0.06300634664114    9.42324675869499    5.42386361395589
H        -0.18443149219908    8.61931083779667    6.97775679828226
C         1.14170230615158   11.00077759696745    7.43750416136139
H         1.94174158566860   11.58136178578173    7.89256692373322
H         0.40168297259766   10.78350515909082    8.20385133591782
H         0.66684879008182   11.60772180543815    6.66947639535578
C         5.87767145586615    7.26171858920292    8.27396142498000
H         6.15267678542945    7.58094907407787    7.26130583819159
C         6.82729976635803    7.92636487527570    9.27341387032566
H         6.74701776204479    9.01014416560566    9.21601795715856
H         7.85713401759225    7.64393123034296    9.06293678097248
H         6.58903947111951    7.62096270491891   10.28988697140741
C         6.00665697431607    5.73987532163431    8.32818599642529
H         5.33437019352960    5.28565697124518    7.60488554579012
H         5.76544262201367    5.35515165003479    9.31576666442801
H         7.02610452892322    5.44419648957170    8.08985620754531
C         2.95823418571434    8.59821398037283    3.76091837832809
C         3.62651446527974    6.50517281992231    5.00869013174755

