92
CSD_code = ADIMEG | q = 0 | S = 0 | Stoichiometry = C46H41AuP2S2 | MND = 4
C         2.80788667911958   10.63781014694891   10.87701676974200
C         3.68389704298441    9.74381304791632   11.49209814536249
H         3.46870586224852    9.39748582548265   12.49590542988145
C         4.80080464729174    9.29933513033948   10.81303782579311
H         5.48347742769395    8.61081392245914   11.28916143122404
C         5.03622595537811    9.72783037527453    9.51507971248568
H         5.90477232000872    9.37236908261393    8.98058635360527
C         4.15590480041133   10.60127271874201    8.89813333976685
H         4.33840402858817   10.92627449488658    7.88402510832963
C         3.03755460857158   11.05904565301756    9.57265160592611
H         2.34685276814727   11.73794721378322    9.09115414586939
C         0.40928652480808   12.21261733567942   10.78137488176084
C        -0.44223090160803   11.61884229625297    9.85075793257877
H        -0.48266414977464   10.53779779043117    9.78857333789261
C        -1.22512496639137   12.40781242305072    9.03059951563732
H        -1.88232248788615   11.94853516618379    8.30712558653658
C        -1.17203345668487   13.78878322956064    9.14681001764861
H        -1.78845030466842   14.40666675285776    8.51040383954660
C        -0.33540557260306   14.37907898781222   10.08050032684670
H        -0.30035285872236   15.45515720267683   10.17062005872558
C         0.45721737957091   13.59658309912352   10.90171279837580
H         1.10832604620213   14.05376004654700   11.63414446992259
C         1.97312849596501   12.12644452085983   13.17426589864834
C         3.25140067411958   12.67276855140222   13.19009753276631
H         3.92349336328481   12.49932752837940   12.36089770901668
C         3.65538080872942   13.43185187627353   14.27412220534095
H         4.64900012665117   13.85562790181155   14.28943060558057
C         2.79488617365387   13.64632253152074   15.33887268005586
H         3.12075075746702   14.23427622849231   16.18412940157397
C         1.51977053473859   13.10234817983176   15.32509857945360
H         0.84893546187252   13.25979986266584   16.15701251822410
C         1.11199509926498   12.34205173326859   14.24715846780455
H         0.12332666697084   11.89687503764000   14.23049438703301
C        -3.10168913530835   10.36194472547349   13.75090329137702
C        -2.85837672174488   11.39280253044733   12.84906893991767
H        -1.85497195932618   11.53408629023216   12.46285217015377
C        -3.89040367539100   12.21612856962159   12.43975035489552
H        -3.69603368544794   13.01253976337179   11.73609358105239
C        -5.17082005947905   12.00731372512941   12.92621944549047
H        -5.98093878375809   12.64425252586256   12.60312383902855
C        -5.41791653475949   10.97748832885404   13.82141538293627
H        -6.41841627721200   10.81645142296473   14.19575527005036
C        -4.38896127689722   10.15258462135382   14.23649361443641
H        -4.57646832037428    9.34452998003433   14.93071023635368
C        -2.44505609278486    7.72646153318790   14.59583743899130
C        -3.07348570759898    7.09467465933919   13.52300864626417
H        -3.12030045952878    7.59818583270835   12.56498357781461
C        -3.61281208403825    5.83463613613891   13.68740766926834
H        -4.10212350818210    5.34515314086763   12.85800055592303
C        -3.51038316876087    5.19321942999490   14.91308778071500
H        -3.92577772007539    4.20431677750883   15.03899681744339
C        -2.86504421232024    5.81123481388649   15.97099491683390
H        -2.77619329761378    5.30432268090990   16.92098602041002
C        -2.32669047352819    7.07698599649272   15.81851404271304
H        -1.81809334617652    7.55805423472505   16.64278241244113
C        -1.16632743807440    9.97714472573007   15.83398490597089
C         0.05284952153722    9.49650995513408   16.31086993281362
H         0.59041147363554    8.75376015658001   15.73381791620410
C         0.56534750340448    9.97685115253197   17.49979639760324
H         1.50756583110545    9.60193870126347   17.87091716895125
C        -0.12639266430846   10.94830365636172   18.20767273306081
H         0.27709858795320   11.32944281140135   19.13438200160937
C        -1.32941138006580   11.43797666134922   17.72571885004527
H        -1.86263969263965   12.19982454293664   18.27629158873254
C        -1.85387373829875   10.95836014209349   16.53807198463180
H        -2.78913942781026   11.34558320399501   16.15744753249890
C         0.92918807649375    6.49759557194519   12.01837996747274
C         1.34982825458220    5.13169547101801   11.67611950494943
C         2.38386678831544    4.93709871985629   10.76001345479595
C         2.76750615758212    3.64172441919139   10.44806023795354
H         3.56905600405991    3.49002432528104    9.73795827405937
C         2.14704085547139    2.54459034305149   11.02405386718095
C         1.12037469676088    2.76213712385934   11.93319107564612
H         0.62791157735312    1.91416751593832   12.38940538796665
C         0.71119519751855    4.04102046177941   12.27013979107151
C         3.06398242123995    6.11711619481307   10.13603233246711
H         2.34548605152916    6.71581332228843    9.57562566268859
H         3.85743936386596    5.80069824932626    9.46319614221329
H         3.48977677264115    6.75840047750217   10.90782330063858
C         2.56456996574018    1.14545665761050   10.68129101974324
H         1.73143123221396    0.59826102046039   10.24100699524965
H         2.87604868710034    0.61167371119221   11.57857231944874
H         3.39018140257261    1.14757956478317    9.97394467240716
C        -0.40027105884942    4.26882658603853   13.24794394350534
H        -0.81020201608671    3.32615914596530   13.60238608793104
H        -1.19824601501207    4.84783763378795   12.78282927375859
H        -0.04121736270034    4.83976836890935   14.10473612154773
Au        0.06060271638596    9.31241924624673   12.66935730610020
P         1.34123151174014   11.07660492289296   11.83870151539552
P        -1.69076734501388    9.32812159244960   14.22758694723205
S         1.60138947995418    7.23154430280703   13.36450831678256
S        -0.20053504684790    7.25747572888738   11.03952684628021

