31
CSD_code = ADINOR | q = 0 | S = 0 | Stoichiometry = C12H13NO4W | MND = 9
W        -0.36262534908254    2.01737193586456    2.58275290463158
C        -0.36152031048362    0.36226797989421    4.23006512900371
H         0.01880834423595    0.44472292186997    5.24084833518408
C        -1.70797638146286    0.59617647765412    3.83302683268630
H        -2.53062425122505    0.82648649705262    4.49875141892091
C        -1.83482648509901    0.17711451957280    2.47508687979790
H        -2.76594653669263    0.09785583574359    1.92714515001853
C        -0.57269915769621   -0.25533743033899    2.02973597987606
H        -0.36919191747015   -0.75062153554268    1.08744721110444
C         0.34222201940784   -0.14159139898896    3.11866682830195
H         1.34627602884621   -0.54351070402446    3.13835729157930
C         1.52794336953937    2.14759259888580    1.42180790560521
H         2.33980648959988    2.75955181971712    1.81171417087726
H         1.87632709515844    1.21334751195170    0.98237940351175
C         0.51025902909502    2.81895591163714    0.71817954046438
C         0.36114393603686    3.41146166023719   -0.45713896425146
H        -0.55170604205227    3.87678291998647   -0.80020484020078
C         1.50992417527991    3.48753827989975   -1.38414671588642
O         2.59188897411382    2.98762747390194   -1.19330119089571
O         1.18598051182967    4.19416855594001   -2.47556705527721
C         2.19660927903770    4.34967291331203   -3.47080938667956
H         1.92519878623151    5.25883791462922   -4.01139952211765
H         3.16412742578292    4.48322902139308   -2.97556502029356
C         2.24709389289527    3.14956200520378   -4.40608063496720
H         2.97989810208111    3.32700182581696   -5.18798099245366
H         1.27299995823459    2.98609030704925   -4.86095523245991
H         2.53253683769431    2.25970846927510   -3.85042747805851
N         0.17440154274698    3.39354620357861    3.57401093685100
O         0.50393979190444    4.25797057497648    4.30220938771145
O        -2.17460553505662    4.14043807407676    1.18729919505730
C        -1.55466362343124    3.34368085977610    1.72999253235731

