109
CSD_code = ADIPUB | q = 0 | S = 0 | Stoichiometry = C53H49MnN4OSi | MND = 5
Mn       10.13146634744977    2.90011566342024    4.21450778792614
Si       12.45565924174696    5.03293859143537    2.85101117429493
N         8.75812904234470    3.08853328412245    2.77877192656736
N        10.70719071526987    1.17305282637783    3.38243150588468
N        11.05056663276730    2.35434739411199    5.89870185236452
N         9.24231465120043    4.38589679116870    5.21680465200777
C         7.81749051081991    4.07922175731031    2.66078584884872
C         6.98672123038196    3.85050201276204    1.51603564615417
H         6.14837567770141    4.45746744472444    1.23504790371591
C         7.45943613699586    2.73795952580864    0.90713423097551
H         7.08370914966869    2.25060078499933    0.02888881848559
C         8.58268163189221    2.29207930675349    1.67692645354294
C         9.84592902048755    5.72128230547935   10.76688247730720
H         9.02165499756692    5.89729803133762   11.44266829490900
C         9.03503984116949    0.71011649050278   -2.40081280284223
H         9.12358351406635    1.28832066286162   -3.30902445897754
C         9.25950375892925    1.31392910964264   -1.17727188148133
H         9.52843715413528    2.35829973066908   -1.12399655959635
C         5.63231932195713    6.53696847900571    3.92175234270868
H         5.48119632520199    5.97939195828643    4.83489891716287
C         4.73662596672722    7.52389842452408    3.55215252011201
H         3.88734390713215    7.74171604868910    4.18332875345947
C        15.49205017541725   -1.22028500935696    6.16675432342667
H        16.48394086370367   -0.90671360193018    6.45792006632710
C        12.97637886690542    7.87761717794921    3.09068987986219
H        12.74352167329301    8.82359061182184    3.57877099023319
H        12.74870958772675    7.97306133502512    2.03238589288330
H        14.04385626795544    7.69873559127530    3.19514957866989
C         6.90768326058278    6.95196864474148    1.93195278702417
H         7.75990827510307    6.72899794983981    1.30718201265075
C         9.61474356772418    5.12074329581208    9.54257848921458
H         8.61457010726624    4.82262812587714    9.26268472176229
C        11.79427009829454    2.28437518246955    8.07951112981194
H        11.89871750381321    2.56689214978125    9.10886334180379
C        12.12159527601739   -0.54548307237489    2.78909398579228
H        12.92021392071953   -1.25627444334063    2.87137146480377
C        13.90525399879386   -2.96476383672497    5.74358621179313
H        13.65404871309232   -4.01491744613011    5.70928243997278
C        11.86205193020807    1.26615751831350    6.08940458520592
C         9.62040116582594    4.88757083454015    6.43220865563527
C        15.17763493230952   -2.56838747840404    6.12008072790033
H        15.92157605610656   -3.30795127365603    6.37685018282112
C        12.30365864828804    1.19941686670354    7.45091276197304
H        12.90790048134565    0.41478392123183    7.86261169468129
C        10.66853041344452    4.88051092194730    8.66621221737393
C         9.15604075102236    0.57902990720501    0.00035014285560
O        11.43052417394023    3.99356143450423    3.50006906008859
C         8.58705142888404   -1.36846363582137   -1.29691612164848
H         8.31965462305484   -2.41425349722809   -1.34079214534206
C        14.53925273641470   -0.27210599140410    5.84240800881338
H        14.78214085727530    0.77970058205041    5.87241798220624
C        11.32111313556193   -0.30322584606572    1.72400351734326
H        11.33510059306041   -0.77589890858786    0.76153743486979
C         7.68236671290425    5.18204417430162    3.49929082259497
C         6.72642268937741    6.24028751989245    3.11438563723452
C        10.42829429643230    0.74760946100374    2.11012184037523
C        13.25968382249633   -0.66257202227567    5.45830453240182
C        12.95239548597529   -2.01901410153431    5.41103791800320
H        11.95720039864552   -2.32706791307709    5.12424143374067
C        12.24578690482763    0.35333248873680    5.11071397756085
C        11.71491411008222    0.35659758399195    3.82390189822922
C         9.39655984277596    1.22523687671114    1.30610451121246
C        12.49419835047109    6.63967356073387    5.21232211033123
H        12.15725330907389    7.53114720738168    5.74079645958196
H        13.56503225610559    6.53546375428294    5.37275417748391
H        11.99531280206943    5.77320620469050    5.63914594204373
C         8.69659088522413   -0.63146798570435   -2.46426304147282
H         8.51816200905004   -1.10120099663867   -3.42022031925759
C         8.29162807613864    6.45637650194106    5.55372267543338
H         7.72129982084363    7.34042478565061    5.34571448149709
C         9.04712722603636    6.18325142986097    6.64344524563307
H         9.21957613914118    6.79898754454424    7.50430852371763
C         8.39808854671596    5.32301909731400    4.68413913484805
C        11.95611265314810    5.25808191366392    9.03599592513496
H        12.77367029071637    5.08299745978129    8.35225316625691
C        10.64819031246604    5.76671623924169    0.77386077860035
H        10.37019422362211    5.77278106595614   -0.28079124477901
H        10.62530928195287    6.78990809675932    1.14056107308806
H         9.91105754096488    5.18700624874813    1.32533303302947
C         6.01442590180531    7.94353964097343    1.56933542719565
H         6.16739897947916    8.49386202597993    0.65248115900897
C        11.04277488551418    3.01341508629685    7.10115967764469
C         4.92623469006844    8.23097423399576    2.37654726229422
H         4.22748904196767    9.00309272010642    2.09029002919821
C        14.25693848641624    4.39598367268274    3.16958512340779
H        14.58702761265218    4.81520059562685    4.12540799655585
C        10.43056239791355    4.23615125315661    7.35855938902282
C        12.18183546929677    6.73841396269596    3.72082619332727
H        11.11615740979870    6.97408950136256    3.62990692985910
C         8.81860257966293   -0.76928945951959   -0.07208576207605
H         8.72582928959104   -1.34188609688006    0.83955673263997
C        12.02990955803404    5.14522370234840    0.96677543398725
H        12.76144312943297    5.76643988626957    0.44220868608108
C        12.04712932121820    3.75171238475411    0.34349634276656
H        11.72067709201533    3.78696962661558   -0.69633641032739
H        11.38017104934038    3.09587193132099    0.90019543626952
H        13.04456212118738    3.32136475632876    0.36897009961903
C        15.25796119338927    4.84376452181649    2.10786971391789
H        16.26314909803209    4.51244686988026    2.36771196371005
H        15.26804648919830    5.92671059835010    2.01653596785942
H        15.00497148803537    4.42457658397119    1.13785257503225
C        14.27297858647153    2.87646707631594    3.31931077117534
H        15.25731401084149    2.52521450137005    3.62948848902863
H        14.01861883435222    2.39173258437084    2.38007910222608
H        13.53611002194760    2.57322919462095    4.06030968354535
C        11.12956133029118    6.09638678072956   11.12679346023933
H        11.30831348819950    6.56751788917258   12.08200830906917
C        12.18276823763106    5.86555822372237   10.25737441359270
H        13.18504136023084    6.15988492136182   10.53244368719275

