73
CSD_code = ADIXOA | q = 0 | S = 0 | Stoichiometry = C26H40O4S2Zr | MND = 13
Zr        4.66169495407999    3.48928715462431   13.53078572348982
S         3.08406905620529    6.86983783726023   10.12573257071846
S        10.15027538191447    3.92112601528489   13.31122199070064
O         5.71688231552446    4.93270367515507   12.30736728751300
O         3.61700105321906    4.58546611327835   11.90786618277932
O         6.46478942673122    3.40284456256221   14.37582727381179
O         8.33853701547444    2.64941710870333   15.27993554067555
C         4.64045495587337    2.08178044182487   11.48793396132808
C         3.47294950951921    1.72354839370269   12.22112807183799
C         3.89008134336793    1.07809003760725   13.42449892106569
C         5.31490741047906    1.04895545012992   13.43205563289146
C         5.77767018893573    1.67935382603711   12.24582747183942
C         4.68183356523657    2.55052713625827   10.05619458237343
C         4.75064104815180    1.35132585536813    9.10375936463521
C         2.05919443702894    1.83140241922088   11.71484996879464
C         3.04084945184054    0.14410142173574   14.24690139296260
C         6.16720682006262    0.29572167338946   14.41553984143876
C         7.20870787616380    1.77084002660572   11.79222800581015
C         2.80638086897575    3.59627297582863   15.22064725612336
C         4.06365266030777    3.75502368938120   15.88901687939906
C         4.61207520621714    5.00727537446249   15.49717158618693
C         3.71661874786236    5.61371226549292   14.57551380956631
C         2.59583453489278    4.75782544660091   14.41999982416893
C         1.68273418572116    2.71521014509431   15.70815122510841
C         0.91366291912621    3.43075943853139   16.82589300043361
C         4.66257261167076    2.83890739192486   16.92359844608103
C         5.82741826038199    5.67565870471020   16.07729113744395
C         3.86793453666063    7.00591654603628   14.02764218454590
C         1.31956052059081    5.10791364496305   13.70510628190475
C         4.67472209031600    5.20736162564650   11.65979799668176
C         4.73745665660815    6.26139118619747   10.57527190529506
C         7.73147208471965    3.41401320052773   14.54635485249558
C         8.49473628949350    4.50839256963948   13.77688289924975
H         2.46424314076520    5.74090914829567   10.46991382047549
H        10.21615116831106    3.06850141847924   14.33416248308908
H         3.78777446590948    3.13329735561601    9.81569128855057
H         5.56112756191794    3.18351001328476    9.88938332370193
H         3.88038549738781    0.71467400309336    9.24011516434896
H         5.64028120025990    0.76031130639207    9.30264105299210
H         4.77914756859452    1.68571250963515    8.06908335258498
H         1.34366882573497    1.76504949258734   12.53309859882595
H         1.90046071115797    2.77601660023462   11.19403032715812
H         1.84002215788541    1.02063818320885   11.01566654153803
H         1.98359416295807    0.37996984845381   14.16548655491207
H         3.32526054148821    0.14571780359154   15.29780610336777
H         3.17913422667847   -0.87476634848633   13.87545565895553
H         6.58603519313346   -0.59344995640657   13.93947011039751
H         6.99831238279073    0.89699209587000   14.78188893483725
H         5.57901463094722   -0.02715455268545   15.27165136509076
H         7.41936680446106    2.73755645528334   11.32882686289276
H         7.88983253087739    1.63152675833867   12.62969859686525
H         7.42896177005441    0.99258627652231   11.05737952801021
H         2.06508796427803    1.77867511520692   16.11267820720154
H         0.98754779158451    2.48240602746599   14.89779452028650
H         1.58434436528280    3.66043717703598   17.64975891401128
H         0.10702866881512    2.80204410860606   17.19691793969087
H         0.48901184672531    4.36211313167179   16.46282944717836
H         5.70138958174895    2.60216652117410   16.68112235375524
H         4.64856782429475    3.31374724368201   17.90720122698012
H         4.10306893608295    1.90769709432102   16.99455918322330
H         6.39274503306872    6.20064754384111   15.30483092632669
H         6.48159846128402    4.95145302415009   16.55940511892080
H         5.52430100049271    6.41062837473933   16.82786817218872
H         4.90292723919174    7.20783652179474   13.74227101768852
H         3.58625800662315    7.74024709362677   14.78660398257188
H         3.22658702048671    7.16650195588905   13.16187879831542
H         0.65681526800413    5.66880461979060   14.36864993836935
H         0.79158519694288    4.21378521124114   13.37855584714479
H         1.51082432556834    5.72977476332093   12.83233048299984
H         5.33679746926948    7.10793834243617   10.90892625580881
H         5.20959154060125    5.82856700989338    9.68934111835017
H         7.95245066058292    4.79713947869591   12.87697603019598
H         8.61441927438246    5.37782787634545   14.42875778086767

