107
CSD_code = ADIXEQ | q = 0 | S = 0 | Stoichiometry = C48H28Cl2F26P2Pt | MND = 4
Pt       10.25487305249857   22.49397002523614    7.57502783594908
Cl       10.21318654300001   24.81187742469609    7.23079215663700
Cl       10.28400797213786   20.27100608628241    8.31797853287932
P         7.98990391597127   22.39306379887522    7.34364140220954
P        12.52963654721030   22.57526767167426    7.66403974611635
C         7.23913965987781   23.90702087974918    6.62692522803439
C         7.55663494830661   24.39487562355816    5.35459063923397
C         7.02540036639317   25.59844866113474    4.90464292042525
H         7.30694409432991   25.97505290399338    3.93323195171607
C         6.15957888846838   26.32478768032340    5.70073207204753
H         5.75813236165025   27.25904827982308    5.34144042040824
C         5.82506107426044   25.84793742199125    6.95506704802363
H         5.15143099412947   26.40554876999805    7.58808967563168
C         6.36687357924356   24.66012989258567    7.40937416917074
H         6.11747507320286   24.30672580266925    8.39934297935925
C         8.48742380700728   23.69667628575738    4.39357244542274
C         7.72323269219746   23.13897047542520    3.13799047853409
C         8.53402314873150   22.03376060684983    2.38928514046905
C         8.05714837222449   21.82868291464657    0.91502278751537
C         8.46630990823518   20.43323580916812    0.34417160640672
C         8.51204129265433   20.42845933682196   -1.21716645066912
C        13.34922030574425   20.94066838034980    7.82305022987921
C        13.22105942920404   19.91974165884689    6.87503494323243
C        13.79525565086330   18.67271343153675    7.09587493289380
H        13.65835788123627   17.88689196476591    6.36892787334030
C        14.51954751878399   18.42705987728135    8.24734513790316
H        14.95601637802355   17.45404858791296    8.40805673574053
C        14.66900147023066   19.43194799066013    9.18574948187360
H        15.23162439227974   19.25428956008274   10.08978901245548
C        14.08274736834448   20.66582214481757    8.97490861673306
H        14.18612586727319   21.43802789518060    9.72339123347512
C        12.46069480671693   20.06353608338530    5.57901977149009
C        13.41996813685100   20.05186477795937    4.33318545098179
C        12.74486017026266   20.64088469814903    3.05349162810059
C        13.46730353652487   20.20927610707986    1.73603370348639
C        13.15292269563422   21.16673295359620    0.54240551848363
C        13.39049165297203   20.48033959799322   -0.84056542703867
C         7.27698490514512   22.28548001355871    9.01096061833601
C         7.95376955915235   23.01067647162027    9.99229617204927
H         8.80480492555800   23.62149559425263    9.70469575576829
C         7.54210690136819   22.95017981700557   11.30920320438081
H         8.06635600783408   23.51460686716589   12.06611400042260
C         6.46166471827480   22.15376399356666   11.65798499191597
H         6.14248184943879   22.09834787192310   12.68822780772816
C         5.80012562034633   21.41755991982821   10.68946287298375
H         4.96788907389089   20.78689669777253   10.96556045472848
C         6.20497949395355   21.47672639678569    9.36639417121444
H         5.69649111329310   20.88801122977446    8.61678226126315
C         7.15184499566667   21.10579908092659    6.37305479693911
C         5.79927542977616   21.24745078335182    6.06775543835891
H         5.25857431364386   22.12463587527164    6.39902798999316
C         5.15640018669548   20.27268113261440    5.32894416830517
H         4.10902602259453   20.38454183351101    5.09085225841115
C         5.85592092959090   19.15943115324353    4.88910675908976
H         5.35037181337094   18.40348052824082    4.30697542423230
C         7.20004006408382   19.01987117343721    5.18893711107475
H         7.74891308332452   18.15863028442059    4.84121447366151
C         7.85107510794709   19.99142651827886    5.92874168502292
H         8.90051149879014   19.88984885947907    6.16055782047474
C        12.96781221127932   23.45182488261366    9.19323385300112
C        13.94305174097397   24.43571262599759    9.29152941375475
H        14.54995432684461   24.68652897872308    8.43378633524221
C        14.12296050053050   25.10515617409442   10.49058975200581
H        14.87934105924159   25.87254578432523   10.56527466592889
C        13.33278663058586   24.80325711475462   11.58677799906324
H        13.47601724960371   25.33369270186380   12.51655170729253
C        12.34770579287335   23.83194240219007   11.48778320032566
H        11.72254157745845   23.60505782298212   12.33874790505667
C        12.15921953485681   23.16415372865507   10.29381692098577
H        11.38462241136898   22.40918502933167   10.19701789282038
C        13.54265920814440   23.33050682929159    6.35906460689987
C        12.95087452992003   24.06055298557273    5.33720172702621
H        11.87865224519257   24.18321865391899    5.31745284936908
C        13.73843076474945   24.62439206393634    4.34864625269198
H        13.27310147698386   25.18583936949435    3.55360098178912
C        15.11222643140171   24.45837420452186    4.37605343412944
H        15.72523641288111   24.89428942778221    3.60138549349596
C        15.70521150506131   23.72709252532410    5.39399789496340
H        16.77664411589208   23.59344653805605    5.41309816216986
C        14.92596339421254   23.16049876808110    6.38416384380772
H        15.38500930948357   22.57736189557308    7.17206576488465
F         9.16745894144613   22.65901759264908    4.93282891656272
F         9.42888083795303   24.54281212938569    3.91374084708737
F         7.44868957686680   24.14910657003557    2.29115829444094
F         6.53524084727958   22.61672940707419    3.50185759065968
F         8.41039437554435   20.87721742806925    3.05901257542271
F         9.83619857347681   22.35066075309709    2.35633813833972
F         8.57313373914917   22.80412549015022    0.15002725259790
F         6.71985472227595   21.92841588324203    0.83059299300769
F         9.67051855249094   20.04832928073802    0.79280039354487
F         7.57298637766874   19.51949394402118    0.75686854386783
F         7.44418647259163   21.02333740196766   -1.73674585978324
F         9.59634241559657   21.05824780807792   -1.65333407411641
F         8.54733557890181   19.18305183767632   -1.67014058626445
F        11.71817756101680   21.19032120705265    5.49088975910800
F        11.59606115011367   19.03789897330878    5.39748259512097
F        14.53286739285530   20.76710057619376    4.59019776242968
F        13.82749104747684   18.79213118754978    4.08796312452442
F        12.74817337524146   21.98032280019692    3.13917645977960
F        11.46890938185443   20.23839642637465    2.97070823900962
F        14.79988716979090   20.19552682322287    1.90889408855326
F        13.09828797715464   18.95632290215627    1.42494636532598
F        13.94612077786886   22.24618450805294    0.63374718446976
F        11.88303519156807   21.59755274577932    0.57568236218879
F        14.53915221657850   19.81349661418012   -0.86168087331867
F        12.40837037627863   19.63080723116792   -1.11452415270234
F        13.42905977334910   21.39212781552535   -1.80227046215485

