55
CSD_code = ADIZIW | q = 1 | S = 0 | Stoichiometry = C20H31FeN2O(1+) | MND = 8
Fe        0.09266828983017   11.34849308056304    0.51182125625970
O         2.94938424817374   11.46846275245881    0.95093450148115
N         0.58502699709057   11.87619512383342   -2.38757135217917
C         1.82349729141060   11.40382041609015    0.79021604354915
N        -0.03248780501231   14.27528674069328    1.09261489104858
C         0.37711746693055   11.69933370854270   -1.26028127918079
C         0.99980578178920   12.08807560682752   -3.70810961203133
H         0.40061124044948   11.41839549819952   -4.33776105354154
C         0.68147758465987   13.53549397533951   -4.08303819633412
H        -0.37833375358980   13.72933134245653   -3.93329099358824
H         0.91353940764928   13.70794782584052   -5.12824768427804
H         1.24947039353712   14.22847935063462   -3.46993607475045
C         2.49415788676369   11.66972858946225   -3.84673564370099
C         2.62015423015327   10.19241640247929   -3.45927637175815
H         2.34735587163142   10.03287694088939   -2.41716450971600
H         3.64648004952337    9.86247146404504   -3.59230655905116
H         1.98317335888606    9.57149997323142   -4.08548315946219
C         2.92526877929649   11.84072304141496   -5.30435910400951
H         3.91955019939058   11.42359647803022   -5.43884077265915
H         2.96434485406439   12.88836995373675   -5.58805690945786
H         2.24711052587129   11.31978235222194   -5.97620751999280
C         3.38990483991883   12.51130127682257   -2.93721916084045
H         3.06883740463347   12.44529082960283   -1.89826823719214
H         3.39171700285832   13.55508419012592   -3.23849089564256
H         4.41158052974385   12.14730356138708   -2.99768659578890
C         0.00842638827414   13.13489502723620    0.88644496691088
C         0.08319508205122   15.66373548221139    1.23033183666921
H        -0.92690568498600   16.05267732186271    1.40935589002736
C         0.94908410088752   15.95313130440924    2.45665396706464
H         0.52119373104521   15.46613055074490    3.33002369630275
H         0.98271670704624   17.02056756864423    2.64588741184743
H         1.96001392408098   15.58125574091629    2.31797747610409
C         0.59649418836850   16.25627121593827   -0.11588372438070
C         0.73964350649712   17.77242474771699    0.02664334818408
H         0.94491196993219   18.21084969883272   -0.94639174747152
H         1.56054214461599   18.03321849278772    0.68811503674409
H        -0.17593037446468   18.21649019878102    0.41011386784539
C         1.94021285574976   15.64237470337997   -0.51350560916930
H         1.86591536760919   14.55812307479307   -0.60642844221851
H         2.71236986036832   15.87732625651051    0.21371022437574
H         2.25518438259438   16.04978717436649   -1.47056113862453
C        -0.44313412977474   15.95011442199458   -1.19977769756525
H        -0.12102875687201   16.36500810003480   -2.15104688625676
H        -1.40405009460407   16.39412502352537   -0.94938696420835
H        -0.57735111149863   14.87608445435821   -1.32114758465092
C        -1.88131646039693   10.89244378902294    1.53426593612272
H        -2.61588850423504   11.59099439905092    1.89977764389790
C        -0.81343666199124   10.34023505448160    2.29134128552265
H        -0.63186699409809   10.51438041131799    3.33878867623136
C        -0.18920258911471    9.34299043091088    1.49924298993632
H         0.57671746095635    8.66191347856052    1.83163043011238
C        -0.82490799881620    9.32394311029968    0.23881470219695
H        -0.65033896711040    8.60494008837943   -0.54474479110689
C        -1.87931523970078   10.28318273779105    0.26375661026334
H        -2.62816077818305   10.41232546582822   -0.50015641812329

