26
CSD_code = ADOBUT | q = 0 | S = 0 | Stoichiometry = C7H10BO5PSW | MND = 6
W         2.46108987887026    1.57890376618598    0.43522941315654
S         2.96942167503638    7.10107910200217   -0.05633404557596
P         2.83740999096591    4.03797452466523    0.76198697421156
H         2.26641335261369    4.60965881118064    1.90114633982978
H         4.12329092471755    4.43150539727736    1.12993776123791
O         4.75516267731625    1.60684709157607   -1.71062559711404
O         4.53077138455863    0.92527422330714    2.70559573248075
C         3.92840003583489    1.59370629186889   -0.92286117740841
C         3.77948075215652    1.17018092809443    1.88095805986298
C         0.98836158645201    1.61061948006270    1.78349078346017
O         0.14293493856238    1.64740112343696    2.55166262604723
C         2.17399514780856   -0.36330005125731    0.15001745874002
O         2.01116039428898   -1.48412104411307   -0.01272309106676
O         0.40257896835948    2.23185292408689   -1.84430018465539
C         1.14965676594895    2.00202286047376   -1.01141422370761
B         2.41782571904819    5.29572960291583   -0.63463949384317
C         2.39539910663780    8.07689573164395   -1.47916964017532
H         3.08283751733682    7.88719808207914   -2.29689716924996
H         2.41274392732107    9.13025229750794   -1.21764073192182
H         1.39582686822871    7.76007259435120   -1.75870537431120
C         1.65387954852705    7.53804609286316    1.11993668441051
H         0.69138135373133    7.22386114059106    0.72852392241229
H         1.67419989554311    8.61022761348833    1.28770632666099
H         1.86302950800401    7.01875044785460    2.04990334739378
H         3.07979109690090    5.07613213394004   -1.59256623985563
H         1.25215698526716    5.36172883387825   -0.84081846106708

