60
CSD_code = ADOCAA | q = 0 | S = 0 | Stoichiometry = C14H33B2NO5P2Si2W | MND = 6
W         9.78807253352629    2.16772813930767    4.29797992242083
P         9.66602540351322    5.69648648093916    8.33938014862299
P         8.69855159604504    3.81781993901549    5.85565338877222
Si       11.01363297121125    4.04430388288231    9.16264535785658
Si        7.59049510862143    5.52730376761683    9.28131039036009
O         9.22322543062508   -0.23489096322446    6.23992843593470
O         6.99627568784374    1.63809405045995    2.95958823490200
O        12.62300899911477    2.75243423301932    5.51116114999739
O        11.14990755289959    0.19494685287440    2.28622549371908
N        10.30727826192582    8.65326464565155    8.13753600730679
O        10.30129581355125    4.60514512819944    2.38382572926960
C         8.00980555158951    1.82904698180741    3.45358479844841
C        11.57297690605170    2.53652729551406    5.10817291432768
C         9.44227700350872    0.64671845375898    5.54324452847538
C         6.28356055245249    6.12589824344217    8.01678535615368
H         6.19157492421061    7.20778781368514    7.98843249007199
H         5.30406152449578    5.72305473450942    8.25663898229062
H         6.53781383148850    5.78812233118935    7.01602605133412
C        10.65319723985651    0.91493051679632    3.02729456948240
C         7.16191616659619    3.73942683833058    9.80591292921560
H         7.07879146470326    3.07572474406291    8.95083419391283
H         6.20654767471624    3.72128458270468   10.32305039738184
H         7.90574400138853    3.32369186946283   10.47823706984698
C         8.88167933138572    8.83500678506038    7.86563363437864
H         8.70509504235523    9.77665149219864    7.33980073425313
H         8.33069126698549    8.83976853365171    8.80328275239249
H         8.52293224991742    8.01127641343218    7.25210206863544
C        10.10524198133502    3.71485037652794    3.07432102458464
C        10.98223613975374    4.20485945754241   11.06693216624585
H        11.24419639569927    5.21506190720554   11.36372488029729
H        11.69516692846496    3.52720406530116   11.52499463385653
H        10.00416798242710    3.98231582960183   11.48066692251610
C        11.03722345480126    8.59306902620664    6.86808895353934
H        10.72617267278003    7.71526517021384    6.30853189939055
H        12.10370615511584    8.51504988141975    7.06501006298462
H        10.84831699850287    9.48949442537664    6.27321964609311
C        10.79445535271550    9.80827678757063    8.89784282739272
H        10.68652733643313   10.72610156708372    8.31569589161201
H        11.84279296327087    9.66382651854104    9.14796778159266
H        10.23336142494076    9.90449748586644    9.82439931264408
C        10.43858886381659    2.31308572584831    8.61060519152952
H         9.45292192703909    2.05523771652342    8.98276205497635
H        11.13022439551349    1.55388972441055    8.96367535145865
H        10.41296834793543    2.24913364773114    7.52423667599306
B         9.58250429015016    5.47323392528315    6.38637915524869
C         7.47767175407842    6.59079442855273   10.86801197389241
H         8.29760905307511    6.36853237399043   11.54272106814454
H         6.55170774007320    6.38223303694354   11.39469961391155
H         7.50110068695474    7.65602398994205   10.66393094775239
C        12.78142665796368    4.33477429054682    8.50486923436112
H        12.76477824893552    4.52472097046493    7.43601671281926
H        13.41100474293134    3.46523952907513    8.67142410141475
H        13.25495878942262    5.18446280662118    8.98646049615665
B        10.57199873778124    7.31108750385276    9.01992296927298
H        10.71359423563174    5.44036487464063    5.98914600110209
H         8.11728138397679    3.30215285049986    7.00925695582801
H        11.74493386285873    7.13306121040445    9.00613912329937
H         7.46623919495108    4.27672783212726    5.38554525282681
H        10.16485480344256    7.53603534239498   10.11277060312625
H         8.96813240672349    6.37978193531339    5.89656278437718

