46
CSD_code = ADOCUT | q = 0 | S = 0 | Stoichiometry = C19H26Zr | MND = 14
Zr        0.60579359906732    4.21959569167462    3.28962624535723
C         1.23464853876847    4.19350685994234    5.80231549790549
H         0.89453824516576    3.47680173111277    6.53965043238552
C         2.45190699271255    4.14455658602725    5.10021800450121
H         3.21171844419422    3.37746933688150    5.19322699898880
C         2.59214727434171    5.35273223693285    4.38679829998302
H         3.47984401999871    5.67732540129324    3.85967552741196
C         1.45199979056735    6.14366159454706    4.63398818067300
H         1.33080943851008    7.17285949153269    4.32333057283878
C         0.59721904025436    5.41393060674359    5.49798218354648
H        -0.27655751007743    5.79998191467892    6.01239035198827
C        -0.69843775803732    2.23892373507527    4.16122286201678
H        -1.31540206864389    2.25288916731212    5.05367291236311
C         0.63428603368517    1.78495681955352    4.08423774563379
H         1.22456735470166    1.40642759581056    4.90885747643098
C         1.01237383109461    1.75443200443128    2.72947544670364
H         1.94492566150451    1.36354050394723    2.33935726305272
C        -0.10344431866664    2.14646292672334    1.95908078045268
H        -0.17519794142686    2.11134032765831    0.87932348617941
C        -1.15817256855118    2.44948005393661    2.84043619889845
H        -2.18331131106867    2.63324484073282    2.54784895049439
C         1.90600007138157    4.56091404515423    1.51943257854758
H         2.99659539026194    4.40898618622004    1.59677485205464
H         1.56218652064060    3.98446467738065    0.63906356640365
C         1.59508725107847    6.01467515221363    1.27375142535500
C         0.37016516504926    6.48714552976530    1.55448183658707
H         0.14168259729037    7.52705181544843    1.33166547342219
C        -0.70005326440159    5.60223338742046    2.13316374439705
H        -1.06785038689190    4.95149044193676    1.30624303406458
C         2.67887809942750    6.88529164988075    0.69223963393427
H         2.99007235225727    6.50576467164743   -0.28242189151702
H         3.55695162450950    6.88526407516654    1.34052228152829
H         2.34130468881673    7.91267067840271    0.57040054306995
C        -1.93597935637457    6.36118653006048    2.66908312602058
C        -1.57149811063355    7.57329565638895    3.53575485634180
H        -0.97753487131347    8.29485316695792    2.98246576665921
H        -1.01343526741490    7.26829470993647    4.41672453510604
H        -2.47991181211879    8.07657965734636    3.86504554492636
C        -2.76841565713946    5.39931090759264    3.53631913780066
H        -2.13972540243633    4.94003304813339    4.31340351280949
H        -3.20661169030084    4.61390360645331    2.92239477018850
H        -3.58515346896843    5.93366265443682    4.02088504765877
C        -2.81160198197569    6.84940103692488    1.50302105378374
H        -3.69199157683226    7.37523821602475    1.86938914405000
H        -3.14387566614956    6.01058646034073    0.89400018967380
H        -2.24924003585821    7.52778261221911    0.86628081932609

