61
CSD_code = ADOCOL | q = 0 | S = 0 | Stoichiometry = C16H31B10ORhS2 | MND = 9
Rh        2.13228198971476    3.04892833690588    4.03011061873887
S         0.17008840739512    5.60211819372508    3.18435277595032
S         1.89492811409153    4.73816911648980    5.73029159648225
C         1.89453839897564    6.13282374339840    3.22200934828616
C         2.69883456239494    5.89508402780626    4.61900269852616
O        -1.11869003196444    3.22094121958371    1.32760629885750
B         3.06749795006022    4.86436924813345    3.32806698722214
B         2.92837424294565    5.90848673958250    1.89678090271174
H         2.48364519568535    5.48545597755149    0.89617326028367
B         2.40124414167419    7.53407084362972    2.43982293040966
H         1.59915074222453    8.10868273661572    1.80569237963932
B         2.21279715604877    7.48649269439206    4.21629277803817
H         1.29775227806959    7.93883336111268    4.78936828729125
B         3.64582388891955    8.21895489515733    3.49491955809774
H         3.84286794772681    9.37552501224352    3.54839793709343
B         3.79365172780387    7.16447779320435    4.91767507898509
H         3.99587105829980    7.47331833923324    6.03082480602184
B         4.35481015908136    5.59226780354861    4.34964130643892
H         4.88184174981246    4.90659806519605    5.14009121422742
B         4.52301684920177    5.57587833772479    2.59348862449923
H         5.32668469398006    4.92977313031215    2.02707461858799
B         4.10180013970002    7.23459973631120    2.04959946606597
H         4.59954398765037    7.71253050715374    1.09834434166684
B         4.97915445292679    7.02747189239449    3.57620404310071
H         6.10120213056512    7.34822191953093    3.71330175374102
C         0.45377742914728    3.82401293656896    2.98291671289858
C         0.01195103263890    3.00802562738897    4.04253006103736
H        -0.38747757518482    2.02613654926448    3.80714389935151
H        -0.42969760471524    3.47323442448529    4.91742221804382
C         0.27081096758681    3.36660577432617    1.55091292563787
H         0.68354271987331    4.11023010944991    0.85443247303020
H         0.77803092338918    2.40662589736481    1.36550911519092
C        -1.43151223495492    2.94560279474997   -0.01024492482601
H        -2.51496612088736    2.86382813500169   -0.06522145094006
H        -0.97573847657572    2.00252459552776   -0.34070317457829
H        -1.09141451699176    3.75053936906198   -0.67374995722659
C         3.46775366014187    1.52872364889798    2.95640895014114
C         2.29728449632106    0.82320371798317    3.33802050675388
C         2.20949908283927    0.82174002330671    4.77486474411069
C         3.32113104951793    1.52907867914441    5.27792727616124
C         4.09671194364192    2.00492466186130    4.15831715107694
C         4.08124001031893    1.57791351030321    1.59104595216527
H         4.71968061259931    0.70387631000022    1.44641679399806
H         4.69043817392056    2.46996322682381    1.47441254877200
H         3.32408056494513    1.57722151573104    0.81018666966257
C         1.44421763623006   -0.02502036953617    2.44703509219676
H         1.62194883870687   -1.07604599143105    2.68161515364494
H         1.69031216421103    0.13232404626998    1.39964057763472
H         0.38061467810896    0.16661134754396    2.58694380017528
C         1.24308133044091    0.00419574208967    5.57566776009358
H         1.68617072366343   -0.96828138587010    5.80126704738972
H         0.31967167475419   -0.16602409142450    5.02725566561319
H         0.99950443942737    0.49071669137109    6.51771696902461
C         3.73363794518313    1.63724611622692    6.71191679180335
H         4.49851069079071    0.88949980797607    6.92951189381247
H         2.88933901877536    1.46788550647472    7.37518307081037
H         4.14656422632143    2.62036968892544    6.92816751992552
C         5.54446152978951    2.38306556924963    4.24225700231767
H         6.14189702658817    1.48458612349414    4.07412659468619
H         5.79498979530574    2.77359674863553    5.22357018327327
H         5.81934021114752    3.12028927183322    3.49414277616594

