36
CSD_code = ADOCEE | q = 0 | S = 0 | Stoichiometry = C8H17B2NO5P2W | MND = 6
W         3.98349204771579   14.96466238475147    7.67417464776762
P         2.58684971760802   15.50503841302770    5.65690805649013
P         0.65497918979280   17.16127041815607    3.81226809500820
O         2.65881047822778   12.12291188023082    7.83704055971186
O         1.69909543762078   16.14261657420747    9.48061872241873
O         5.70252619894300   14.33461948357311   10.21141823783729
O         5.25871180995904   17.82839742960623    7.46752299090113
O         6.24611102722721   13.80686711158373    5.83091075503380
C         3.14696100293081   13.15608351231336    7.78274095227032
C         5.07297676700791   14.56860349286202    9.28280155863139
C         5.42386476354640   14.22732738100193    6.50594485713336
N        -1.17899931900499   18.65187426953851    1.97218626546723
C         2.52366767560952   15.71496818776427    8.81529159532784
C         4.79200632842245   16.78760708323160    7.53511673553587
C        -2.07054775122461   17.49273596998069    1.89491414010046
H        -2.64122179388740   17.50493358063832    0.96356063552275
H        -2.76039453816096   17.50532430159133    2.73594012242296
H        -1.48847164447799   16.57412582559670    1.93837060684553
B         1.63166955583836   17.18063511339398    5.47342364763802
C        -0.22118919086281   18.59582663745397    0.86575054832276
H         0.37032399321668   17.68487062734639    0.93354576622295
H         0.45166239608102   19.44865231049275    0.92059829415032
H        -0.73948931606805   18.61011926579973   -0.09566955682176
B        -0.41257581810518   18.71429373735065    3.41249738845780
C        -1.98111427632884   19.87259996344638    1.83802330618725
H        -2.50704497389908   19.88584175849105    0.88111035879302
H        -1.33491719689495   20.74437556408437    1.90447557505464
H        -2.70622680998332   19.92552959626190    2.64633411570718
H         3.22814945216705   15.36669604223222    4.42265873869366
H         1.62224510935662   14.54992515076249    5.32301351687183
H         2.40023109132264   18.09131538131576    5.43046588649846
H         0.83473603672090   17.29773860138006    6.35299736518657
H        -1.24594467747002   18.79956973533061    4.25395896612156
H         0.30945169909564   19.65615815588053    3.38810535777746
H        -0.11346529814385   16.00434879449034    3.71776552095818
H         1.49908082610058   16.84743626482938    2.74981566976017

