49
CSD_code = ADODAY | q = 0 | S = 0 | Stoichiometry = C12H24B10OsS2 | MND = 8
Os        6.61896941366490    6.63465765529272   10.66788303168945
S         8.15659254939144    5.82266788805619    9.21425728074531
S         6.69308009654542    4.67058727662666   11.80157528436731
C         8.55808476900964    4.11007958011675    9.67041867338494
C         7.83411685041790    3.54011746253924   10.95081410497828
B         7.31752055503857    2.93453475336833    9.41708074626133
H         6.29495353777108    3.36879107766768    9.03187416121773
B         8.80483445475392    2.90516668382762    8.48300424474595
H         8.76532437755879    3.23884387457396    7.35844248954579
B        10.14064886855258    3.48885658529932    9.49811968886184
H        10.94784307636442    4.19172169440996    9.01672124625997
B         9.52029989291508    3.89549675576529   11.09033673936129
H         9.77491991212593    4.88397637551079   11.67300843881101
B         7.49190990484355    1.87164652002842   10.80460857275963
H         6.52067559225140    1.47153465617314   11.32810661227115
B         8.15346148733335    1.41036382066513    9.21127161335072
H         7.67949677094541    0.55354981221483    8.56183271774603
B         9.90942796439609    1.74543422462028    9.24978078806358
H        10.66869294864224    1.11147854146356    8.61483675541218
B        10.33868031643202    2.36410125392755   10.87156280771814
H        11.38219279836674    2.16875768994423   11.37491066406933
B         8.82772859238958    2.45560665110531   11.82000478000515
H         8.70289922119718    2.42515451442973   12.98661878734854
B         9.08702083513624    1.09819649390965   10.70410892985196
H         9.26350428787537    0.00556036805282   11.09973787339925
C         5.15793106662580    7.99578898578933    9.57043741741753
C         6.36757020401210    8.70557411601099    9.71182219404822
H         6.82756912120275    9.15628206543711    8.84106402460538
C         6.98632932003685    8.82660897052669   10.96937025086657
H         7.90445330847313    9.39495134343103   11.05119986299581
C         6.35355804056124    8.33287375843610   12.14730586971012
C         5.09940291918540    7.70329861735486   12.01416622936068
H         4.56875820931027    7.37427807164674   12.89932092149572
C         4.53314392509085    7.48643737395058   10.74400002320096
H         3.55802877277475    7.01958614403295   10.66514790906518
C         4.47797166403234    7.89349904657234    8.23698046851904
H         3.83524285246380    8.76237561441688    8.08261277862623
H         3.85836496591858    7.00072156610925    8.18185080440464
H         5.20765865641756    7.86358325966371    7.43043859491754
C         6.96143088473335    8.55976357813330   13.51131129334862
H         6.33398663264548    8.04800308148083   14.25014143607286
C         8.37010298555474    7.96641266614703   13.59728288391161
H         8.35033051717591    6.91235035795658   13.32105383776473
H         8.74957963860931    8.04997549431070   14.61271261687434
H         9.05633593489228    8.48589499816233   12.93267661492364
C         6.97413866973238   10.05464987612179   13.84439068742114
H         7.35561146661922   10.20797204946385   14.85095035127204
H         5.96867595969373   10.46787006390082   13.78987236844703
H         7.60934521031991   10.60176669135542   13.15117352850334

