37
CSD_code = ADOLUA | q = 0 | S = 0 | Stoichiometry = C18H15AuBrPS | MND = 2
Au        2.27633101169063    1.43227596977027    0.69450416400869
Br        3.83533005191529    2.37175209239566    2.20085561890033
P         2.11168911062810    2.02820806210790   -1.99094217301805
S         0.94083607042521    0.70354262458744   -1.08197251258680
C         3.88151488903781    1.62203821142178   -2.05946592748043
C         4.79095689997783    2.55121789498815   -2.55314764125840
H         4.44925356651398    3.52155068576701   -2.88470052778083
C         6.13373779294991    2.22621320889242   -2.60183125778829
H         6.84605263883561    2.95096169838800   -2.96634630461203
C         6.56490256358747    0.97933600522608   -2.17742876399095
H         7.61607262543272    0.73623215496366   -2.20666307449373
C         5.65272433751057    0.04363121849783   -1.71710585273557
H         5.98797179558992   -0.93041570008351   -1.39503057300357
C         4.30864750622474    0.36158426225147   -1.65934784600852
H         3.58630683819603   -0.36017983919912   -1.29889125028865
C         1.88616016767325    3.73649911471700   -1.42233962572143
C         2.84236629372375    4.42338435409690   -0.68346252943066
H         3.80445910663551    3.97667319317612   -0.47409991633072
C         2.54393359806400    5.68495626178542   -0.20080749810253
H         3.28061439494901    6.21620711668055    0.38156374281685
C         1.30267130280958    6.25070408397344   -0.44630540992845
H         1.07365007133628    7.23142292002664   -0.05763540405994
C         0.34941160388413    5.56024250486801   -1.17928349930769
H        -0.61943947005910    5.99969951277706   -1.36388483735403
C         0.63722307574369    4.29960336474399   -1.66700380761394
H        -0.09697320901894    3.73764216126605   -2.23201859803326
C         1.63462311346982    2.06592163800620   -3.74647023167871
C         1.89824906742797    3.18811464543235   -4.52531192915143
H         2.33832229653268    4.06831737981693   -4.07624101741602
C         1.57321455367407    3.17860175569111   -5.86843010581374
H         1.76957315340663    4.05114840323968   -6.47355346581914
C         0.99376364390798    2.05431666217890   -6.43611667877546
H         0.73946618620044    2.05324422503532   -7.48544689230592
C         0.73657584215496    0.93562056044061   -5.66105456019107
H         0.28302399945467    0.06136468075774   -6.10327069779307
C         1.05938359953697    0.93730340382143   -4.31608245117470
H         0.85399990947484    0.07386350746079   -3.69803066476770

