52
CSD_code = ADOMEO | q = 0 | S = 0 | Stoichiometry = C23H19Cl2MoN5O2 | MND = 7
Mo        2.31279080638499    6.76838192984569    5.86838019269663
Cl        3.37667855986122    4.96800796652688    4.66594505738280
Cl        1.45732497445898    8.91175137766563    6.57415884978566
N         4.13046504165483    7.72300830166733    5.72325874924533
N         3.34066334110180    6.43479294593476    7.57701287496726
N         2.77823232671893    5.69738202934591    8.54659180832663
N         2.40939268599098    7.73791581768037    3.97085234230455
N         1.36850735974135    7.62556122430810    3.14397292900969
O         0.57038481196395    6.40319136944438    4.85187168062742
O         1.22521211708585    5.71496687134166    6.97748000827760
C         4.48462666466341    8.43775841829813    4.61974765907088
C         5.69243470720966    9.08389305311517    4.49418315942168
H         5.92239193102597    9.63512357004696    3.59921598936362
C         6.62515975875596    9.01388639307847    5.55211147448825
H         7.57460267329622    9.51777246843853    5.46100468122476
C         6.30401654653367    8.30955051418148    6.66690143774455
H         6.97481040771534    8.22162186025811    7.50429445857310
C         5.03460143482110    7.65854209450845    6.74298731043157
C         4.57318879764507    6.90709691489393    7.82013182548490
C         5.32299446521905    6.64582954533717    9.08553821120367
H         4.71463635500240    6.02358559707826    9.73448664194603
H         5.54840763902268    7.58214442115539    9.59416253416401
H         6.26079656359080    6.13471420131043    8.87274108524732
C         1.59553596939116    5.32328695969400    8.15858087139679
C         0.71255139099080    4.51074284046038    8.98933954986244
C         1.11547157859178    4.07072991156722   10.25018594197202
H         2.09688373102226    4.33931148833434   10.60608513970055
C         0.25757642514288    3.30467185345751   11.01447411525925
H         0.56669773207681    2.96210103460975   11.99076488608679
C        -1.00060777395501    2.97333468830041   10.53277492516234
H        -1.66736283901062    2.37410284291095   11.13506345257700
C        -1.40433418361166    3.40942023211804    9.28047883305726
H        -2.38452233184285    3.15060156339097    8.90840249130338
C        -0.55326775139625    4.17551612675414    8.50813050820083
H        -0.84938548297845    4.52636417369577    7.52946783243230
C         3.44361358282130    8.42718195934988    3.60951229048665
C         3.56238217228133    9.13171150700632    2.30150211497244
H         2.64415458154845    8.98872920107546    1.73935955258279
H         4.40212133158006    8.73110840774781    1.73557495826492
H         3.73175246276673   10.19506534588862    2.46282219785765
C         0.42255874997205    6.88964712085799    3.68842051081476
C        -0.80840831429023    6.63397250475677    2.92911279285508
C        -0.99950247367055    7.18795582603795    1.66462883187209
H        -0.22716639052865    7.81410512077355    1.24854410333372
C        -2.16545168966185    6.92869956707248    0.97059787051723
H        -2.31565257973697    7.35750032387699   -0.00915729454819
C        -3.14417447484110    6.11916009410713    1.52765791083926
H        -4.05377220795860    5.91902879494496    0.98059094886978
C        -2.95749456379816    5.56618206012244    2.78482943882886
H        -3.72072470652454    4.93547710918350    3.21628103697993
C        -1.79476401102122    5.82148408842546    3.48551465218258
H        -1.62912790282269    5.39932836801996    4.46582857529251

