61
CSD_code = ADOTUL | q = 0 | S = 0 | Stoichiometry = C21H30BIrN6O2 | MND = 6
Ir        7.90339265623090    9.79286440301797    2.96257652405194
O         9.35519405826666   11.19180486337754    5.17312161685958
C         8.78698285327222   10.66405507296008    4.32840252694083
N         6.88479858028225    8.81689551205197    1.35606197392636
N         6.71369877495958    9.54788226832220    0.23131759703655
C         6.27669877916670    7.64344072303981    1.15819140207989
C         5.70271121395633    7.62896537129010   -0.11383531700958
H         5.14843400389764    6.82778176435856   -0.55866449889600
C         5.99948983351938    8.85448326813005   -0.67221229642997
C         6.18416870908099    6.49621630789426    2.10277334822823
H         6.96908438135209    6.51475767072995    2.84549982124110
H         6.25135593215644    5.56795707973478    1.53777443213165
H         5.21839721111624    6.50261893545428    2.60948480028009
C         5.61646499371181    9.35235315343268   -2.01904758507446
H         5.03191190326210    8.59000974437901   -2.52762440545403
H         6.49790979653653    9.57552355905847   -2.61739317784309
H         5.01947615780053   10.25916452090345   -1.94191766527262
N         6.66374874283190   11.88752965697879    1.07726213359078
N         6.71773579508826   11.58243265778126    2.38293301753595
C         6.09899199231830   12.54664506273359    3.05806604098671
C         5.62793158071009   13.50125232104513    2.15221458379487
H         5.08847647902349   14.39750233269586    2.38156535505163
C         6.00721768155995   13.04897356544744    0.90271038916917
C         5.94018915955427   12.57180302650695    4.53533542896434
H         4.96330907390004   12.17736283087653    4.81565523414326
H         6.00470836286118   13.59671456605480    4.89456790977104
H         6.70489981642538   11.97220770447666    5.02000709744989
C         5.77267499087384   13.68504355714426   -0.41974536636157
H         5.22122324192935   14.61121404843475   -0.28164988752602
H         5.19897144380027   13.02782280465555   -1.07096613368092
H         6.71731497440226   13.90886411792151   -0.91264630840522
N         8.80343563689687   10.89808644450571    0.25541214749414
N         9.32494024429968   10.43599143437546    1.40384947419240
C        10.65070031124474   10.52577959097547    1.31714295888188
C        10.98822625700132   11.05544944049829    0.07020723986673
H        11.97292112823338   11.24914745243608   -0.30358380013277
C         9.78789190102071   11.28026212742657   -0.57706997797720
C        11.60066291791767   10.11990242296538    2.38579034559138
H        11.20728796819375   10.36461594434965    3.36815616502937
H        12.54809713414367   10.63391195367826    2.24205850578699
H        11.78406751902028    9.04687624470814    2.34365840172841
C         9.56790983648636   11.83779955278077   -1.93688368092632
H        10.52794120254751   12.06946899863287   -2.39038988502631
H         8.97194500677132   12.74745934263138   -1.89101426114370
H         9.04465099994721   11.12195242555439   -2.56855132247270
C         6.55260165816093    9.03910826978844    4.40749099602407
H         5.85679361724128    9.75248995053096    4.85218389607423
H         5.97214708172611    8.26101928979712    3.91553123624873
C         7.39688587651441    8.42794704921348    5.46916915021117
C         9.53262426900534    7.17475551739593    5.90912066991039
H        10.23343455210181    6.43735913102451    5.52413769716263
H         9.09889690292134    6.80378351964318    6.83439515843762
H        10.07064364128910    8.09231059084920    6.13448881860194
C         8.96978356852326    8.05255489123376    3.58054323832260
H         8.95052527648356    7.31276620939833    2.77736704756258
H        10.01940322795534    8.30138221880737    3.73976053964032
O         7.31861584424536    8.69959035967233    6.64649800516412
C         8.42764758898690    7.45379364120548    4.89325562028612
H         7.89427682186839    6.51457261146651    4.70493212665679
B         7.28673614742624   10.95874051371766    0.03091975292403
H         7.05154268797818   11.34718038984795   -1.05529485540099

