99
CSD_code = ADOWOG | q = 0 | S = 0 | Stoichiometry = C52H40N2O2P2Pt | MND = 4
Pt        0.00051911601320    0.00050175396471    0.00049642208957
P        -0.59328784417067   -0.39343030294048    2.16014389211566
C         3.87891367489458    4.25763235656694   -0.45234675005559
C         0.80361533607394    1.76758099960257    0.47088656518073
C         1.38322545113051    2.77166048845096    0.81084440040793
C         2.15307644829328    3.93964489473733    1.19749884689246
H         2.18596715987148    4.01927481445903    2.29027252408206
H         1.73120766532404    4.85072979730638    0.76148170994473
N         3.53655685408106    3.80001168145499    0.72597747599357
C         5.12024002529438    4.16725686705461   -0.98393100995167
H         5.36427656726452    4.56634409285020   -1.95217463240636
C         6.08164228406094    3.51551031239495   -0.18422509274816
H         7.09102279977595    3.42169390944037   -0.55997300933989
C         5.75427571193377    3.01514048259672    1.03787487755681
H         6.47997199353934    2.51247130883668    1.65794718795236
C         4.43821955232308    3.12395648463063    1.58164375816281
C        -0.32462438186398    0.94322871183862    3.36113340408094
C        -1.35137080102905    1.66809712454782    3.95114856108412
H        -2.38251728319523    1.42066509195548    3.73717795610851
C        -1.04674068930517    2.70830138109312    4.81305713716008
H        -1.84527453565352    3.27092684503058    5.27544711115407
C         0.27344890965797    3.03253639472750    5.07782759729685
H         0.50180324793025    3.85010115384416    5.74633344750691
C         1.30063017468806    2.31522145112658    4.48265951067646
H         2.33310831748125    2.56984295884306    4.66634913586517
C         1.00203591486058    1.27561540603853    3.62481469077339
H         1.79780820522886    0.72396216145477    3.14186960796667
C        -2.39384910584725   -0.62810169485834    2.13051124375676
C        -3.10711912644916   -1.37792651488530    3.05584121522645
H        -2.58966064101633   -1.88066995060461    3.86068261856760
C        -4.48167762148668   -1.48529193434607    2.93548828012582
H        -5.03856143293637   -2.06616569221154    3.65606718228387
C        -5.14365012291947   -0.85514302910200    1.89503818283958
H        -6.21611406145070   -0.94425115897822    1.80655471668082
C        -4.43298021069614   -0.11651088439405    0.96191451960875
H        -4.94906703011296    0.36155101269890    0.14269646308527
C        -3.06197594632773   -0.00199830994265    1.08060397721283
H        -2.48285795903615    0.56972175842013    0.35153394449288
C         0.06183859542825   -1.83221777129919    3.05677704665612
C         0.00076406495003   -1.89809014014655    4.44634153634444
H        -0.41628164322789   -1.07248340657153    5.00740881238929
C         0.48671942827500   -3.01212939203192    5.10536290348344
H         0.43654050935429   -3.06287159884460    6.18339735895296
C         1.04105523514984   -4.05980077725372    4.38676916235303
H         1.42105105152857   -4.92712950421577    4.90640453686494
C         1.11496137383280   -3.99084008594237    3.00542274168866
H         1.55539458759859   -4.80325094578537    2.44615042407717
C         0.62861883687359   -2.87968693545083    2.34021586554078
H         0.67720886210251   -2.81508923616247    1.26036644252491
O         4.05261984010279    2.72997008442158    2.67104837567528
P         0.59340052970670    0.39421284514964   -2.15956044366068
C        -3.87758518585718   -4.26081417613839    0.45219187845971
C        -0.80272221125194   -1.76665214222390   -0.46944620794533
C        -1.38200791620702   -2.77090966369634   -0.80947966009025
C        -2.15141885636329   -3.93903378771499   -1.19659679882534
H        -2.18425948179602   -4.01804736031097   -2.28942928567257
H        -1.72907382837693   -4.85016159101183   -0.76114251128661
N        -3.53499124753492   -3.80055544736349   -0.72501025935978
C        -5.11920074769895   -4.17240907421244    0.98339818262617
H        -5.36348890399347   -4.57384470203190    1.95061444291257
C        -6.08072468718819   -3.51982369244338    0.18453692123956
H        -7.09037093130527   -3.42764056211994    0.55996857654853
C        -5.75312153416941   -3.01656225556436   -1.03627784284995
H        -6.47885007284129   -2.51296734965812   -1.65558400256917
C        -4.43675885496572   -3.12341282559290   -1.57970864051964
C         0.32366828497683   -0.94272743018697   -3.35997779667176
C         1.34987697006287   -1.66853908398619   -3.94976191115134
H         2.38120966723858   -1.42169689565906   -3.73603027346394
C         1.04449463932553   -2.70883764210715   -4.81128784112542
H         1.84262335616763   -3.27221273491604   -5.27346286064825
C        -0.27592454294639   -3.03222645434081   -5.07592374488776
H        -0.50487897993463   -3.84991476568717   -5.74407450868535
C        -1.30257706492049   -2.31402922708400   -4.48090739997956
H        -2.33523809338061   -2.56805098408674   -4.66436333518303
C        -1.00323327187279   -1.27437918267337   -3.62338402719033
H        -1.79862091390977   -0.72209518270583   -3.14053039396775
C         2.39400245253106    0.62878733391647   -2.13198555386726
C         3.10623136516580    1.37607179059920   -3.06018960518557
H         2.58774882245999    1.87704259043753   -3.86548513235203
C         4.48099416179777    1.48313990871229   -2.94212961334871
H         5.03708074741726    2.06199993837550   -3.66494766337261
C         5.14421448024239    0.85522357511996   -1.90110937224213
H         6.21686500012387    0.94394499182119   -1.81451418740949
C         4.43461009623942    0.11913771482138   -0.96517998847600
H         4.95172345596306   -0.35730187649453   -0.14566172259368
C         3.06337791049510    0.00487891545787   -1.08160551798952
H         2.48509046815245   -0.56497241764997   -0.35043483334174
C        -0.06218094450107    1.83306061195226   -3.05589080215769
C        -0.00506439880490    1.89751566518196   -4.44568467963617
H         0.40902198287047    1.07074663971157   -5.00722043242816
C        -0.49111581007073    3.01172030032504   -5.10436991847634
H        -0.44404885998214    3.06128220439748   -6.18259934442714
C        -1.04149391931394    4.06107826422116   -4.38520972727265
H        -1.42156818660074    4.92853096456329   -4.90457983754972
C        -1.11134307905005    3.99362841496876   -3.00357727387280
H        -1.54865486074267    4.80736393934978   -2.44377871936636
C        -0.62499071105737    2.88227660590163   -2.33872223732828
H        -0.67053433643801    2.81886377827147   -1.25868250935804
O        -4.05091931608928   -2.72676099984760   -2.66804446011276

