85
CSD_code = ADOWUM | q = 0 | S = 0 | Stoichiometry = C42H36N2O2P2Pt | MND = 4
Pt       -0.80158737215908    7.78685026482865    3.10267581885107
P         0.73026890736357    6.07654204909194    3.04619130934908
N         3.59721367645156    9.80746593217216    1.61695196533230
O         5.51061079146502    9.93967587833173    2.84339459448966
C         0.62290395215911    9.16339066068254    3.11195651089932
C         1.63313388643041    9.80699920156775    2.96210622613110
C         2.86047603553754   10.52439867831184    2.65766296505926
H         2.64263571767561   11.54317639875088    2.31333819042332
H         3.52030459540685   10.57736922887052    3.52986848084926
C         2.93330030742715    9.38496429543066    0.52393246701116
H         1.88450877378835    9.64383658766208    0.48557915145899
C         3.53726141900827    8.65747817730192   -0.45291231811383
H         2.98105397323539    8.33034774538046   -1.31443573613814
C         4.90328296634735    8.34189089933673   -0.30369804029501
H         5.40143613409838    7.75937743997112   -1.06536355515177
C         5.58088956829330    8.76894211255228    0.79082234002951
H         6.62661046382051    8.54582428280639    0.93613938812341
C         4.95248811967400    9.54071642062472    1.83154171868643
C        -0.11678809286123    4.47103467409506    3.43773136454952
H         0.49736601705675    3.62689417285534    3.10772355370940
H        -0.24148638328280    4.41077289268542    4.52430568330559
C         2.34431437026652    5.95763531691497    3.85826182619983
C         3.39432447806219    6.68766316204034    3.30434673575128
H         3.23298152071998    7.21888185852882    2.37649669273369
C         4.62317031954488    6.72843935702687    3.93337386230337
H         5.42819133617201    7.30704096190094    3.50791222331057
C         4.81232100359804    6.04286812692492    5.12332615052424
H         5.77138476563670    6.07654882854755    5.61774382087278
C         3.76943568857335    5.32505754144351    5.68442246625821
H         3.91519176899949    4.79732611925476    6.61589817356604
C         2.53349704627355    5.28984506223140    5.06342465789735
H         1.72099916081607    4.74340568088250    5.52153298750568
C         1.12963670567199    5.85214842203487    1.28907369024998
C         0.42147698990353    6.62001113213027    0.36986061713255
H        -0.31527096712444    7.34376348684933    0.73167733541327
C         0.66245569236882    6.47881640675083   -0.98457927409059
H         0.11010020986880    7.07485504418060   -1.69608677556901
C         1.61713057742871    5.57589738487392   -1.42354149745883
H         1.81147245512876    5.46652161499209   -2.48043066316655
C         2.32997972555385    4.81437486955771   -0.50990034827301
H         3.07764697489536    4.11605198975320   -0.85645875038101
C         2.08716478810883    4.94665590612216    0.84437443814989
H         2.64625057272653    4.35998380665941    1.56117006938783
P        -2.33226104378612    6.07658210512306    3.15986526143147
N        -5.19931315158022    9.80765903148914    4.58861898949850
O        -7.11276369006565    9.94127134651158    3.36245367515828
C        -2.22461671489195    9.16452509803601    3.09449959083112
C        -3.23491008706863    9.80794054783514    3.24403931960732
C        -4.46252031739754   10.52487419937060    3.54813961136890
H        -4.24485354111064   11.54360009669569    3.89265449735766
H        -5.12207966712232   10.57787252527285    2.67572895142816
C        -4.53544995891846    9.38443912092462    5.68138881162772
H        -3.48657333207685    9.64296078751223    5.71982337430725
C        -5.13953454889397    8.65653543905657    6.65786632208227
H        -4.58337621440116    8.32887626613824    7.51922798756729
C        -6.50559856997475    8.34122045903011    6.50844979671194
H        -7.00391798808793    7.75860451765808    7.26991251375165
C        -7.18317812766998    8.76908601134731    5.41422190847580
H        -8.22897425118060    8.54633025720196    5.26888876375355
C        -6.55473155959262    9.54156199115739    4.37405137267858
C        -1.48566579316348    4.47093879250120    2.76803316631427
H        -2.09994114666977    3.62684205789108    3.09796193426924
H        -1.36101508452964    4.41089028411537    1.68144424186482
C        -3.94654034430402    5.95804661276514    2.34812350236546
C        -4.99671908402644    6.68731134921337    2.90278328160446
H        -4.83535149013265    7.21806149138779    3.83089633755377
C        -6.22584080513996    6.72779524149896    2.27423503712185
H        -7.03101353792027    7.30573116897733    2.70032664467658
C        -6.41511995219890    6.04274996181109    1.08400449394563
H        -7.37440681514260    6.07616721771441    0.58999212340300
C        -5.37206845697567    5.32579379301070    0.52212539379695
H        -5.51790244839595    4.79856182517794   -0.40962028676278
C        -4.13587521745890    5.29084652743139    1.14264640906194
H        -3.32328481347280    4.74507085733164    0.68392238439246
C        -2.73135993388409    5.85225854846493    4.91707568128611
C        -2.02293879744881    6.62011779163818    5.83609784446747
H        -1.28647289844484    7.34403639745826    5.47404156916412
C        -2.26329597246648    6.47872318406912    7.19062801395843
H        -1.71081768075631    7.07485424100275    7.90195936863455
C        -3.21762883654757    5.57558899009630    7.62990850580097
H        -3.41154194784637    5.46611513360958    8.68687063837525
C        -3.93074824097882    4.81407146782709    6.71648196704963
H        -4.67809167992780    4.11552271233102    7.06329323735637
C        -3.68857780741483    4.94658287799312    5.36210286390332
H        -4.24776709105836    4.35974160160437    4.64552438189006

