113
CSD_code = ADOXOH | q = 0 | S = 0 | Stoichiometry = C48H57ClN3P3Zr | MND = 7
Zr       -0.00029634350799   11.23391843107589    5.10284946604315
Cl       -0.00164118151434   11.23434551133021    7.45460871481938
P        -1.70819824807156   10.26830240736877    3.10521426183703
N        -1.35305860323329    9.74575196999497    4.63654650033665
C        -1.86139466267710    8.64519490872432    5.46208012135078
C        -0.63887013596605    7.93099771195437    6.07752290114400
C        -2.70985455847313    7.62367017647836    4.69377686045782
C        -2.71847292551355    9.22004503742121    6.60808258164076
C        -3.53279074490095   10.03678252084945    2.87967518632998
C        -4.16124607316281    9.29539919450036    1.88731703487863
C        -5.54344212098090    9.26612427123385    1.80964251026164
C        -6.31570033012684    9.97279987976283    2.71544808603216
C        -5.69847458718520   10.71559760341999    3.70988673182491
C        -4.31995884054549   10.74824618038802    3.78192729216823
C        -1.11340821692073    9.08849492246090    1.81182549037212
C        -0.31994469531068    7.98075970350857    2.08086496443329
C         0.23682618195756    7.24339919150316    1.05123671791451
C         0.01983246329665    7.61908236848760   -0.26412305354176
C        -0.74571314166676    8.74090130224586   -0.54397043074444
C        -1.29811867813510    9.47754623386570    0.48697992338803
H        -0.16457992296484    7.28876288797312    5.33667069807174
H        -0.94255128425877    7.31072614780838    6.91898744562005
H         0.08820191513034    8.67538911233639    6.43047035315870
H        -3.68773492711491    8.03680325385618    4.46100954188488
H        -2.84893758343710    6.73303881253680    5.30366297670371
H        -2.22840758462178    7.33879005271570    3.76194150466400
H        -2.13404080512405    9.91220445451767    7.21589935184789
H        -3.07327783073929    8.41444230537681    7.24816221481842
H        -3.58436439857255    9.74017569985560    6.20323599110634
H        -3.57614166671733    8.72999124773404    1.17748726670538
H        -6.02139290159101    8.68318799558884    1.03511930243059
H        -7.39346386099962    9.94541207548854    2.64845210705711
H        -6.29457383227442   11.27005955897241    4.42145333164368
H        -3.82140868249475   11.32639320453770    4.55183727329400
H        -0.13106643105493    7.70363852780389    3.10892541935253
H         0.85374962033332    6.38451397579657    1.27546520009041
H         0.45927198884038    7.04830303750771   -1.06934988149832
H        -0.89967952421809    9.04819480059543   -1.56886736801041
H        -1.87394186060903   10.36983873112518    0.27702971853284
P         1.69050396979301   10.23820895922970    3.10583341504300
P         0.01565557121392   13.19459033519924    3.10450899568288
N         1.96525575524843   10.80718058159067    4.63717670057192
N        -0.61379433219739   13.14907769028561    4.63616326373678
C        -1.31166253898761   14.14033487222557    5.46176544677081
C         3.17214508088700   10.91635501308911    5.46339204192020
C        -2.54166325992895   13.43973219519339    6.07786895796867
C         3.17980302162050   12.33197361859170    6.07936556785065
C        -1.77143891797290   15.38593342238891    4.69317179354226
C         4.48137341990644   10.69194525549992    4.69577985489621
C        -0.38450207803407   14.59486605518775    6.60728233299852
C         3.10185522859822    9.88632840520634    6.60909016854727
C         0.72974098069449   14.88949538549504    2.87873955694458
C         2.80360686919237    8.77411157619258    2.87983262624841
C         0.40367582092905   15.80465230117227    1.88600004891475
C         3.76012900008853    8.60132125023369    1.88755401968011
C         1.07186388323404   17.01493536703836    1.80775903618337
C         4.47684939629615    7.41915226590864    1.80931810817000
C         2.07065079942408   17.32881389377997    2.71337952401165
C         4.25102912087662    6.39642901579006    2.71447769534800
C         2.40336898732646   16.42278177761667    3.70838984660789
C         3.29883297785629    6.55873296416550    3.70875354809177
C         1.73994971239961   15.21400795519422    3.78099193797754
C         2.58102263152468    7.73603648472900    3.78133387413868
C        -1.30379989012909   13.27095549526298    1.81162329141034
C         2.41480983164504   11.34337237271612    1.81242175540126
C        -2.65985048375586   13.13851995582248    2.08108271144157
C         2.97897839856264   12.58369457558814    2.08130928848459
C        -3.57720757934253   13.02603985684770    1.05169823582685
C         3.33939895313215   13.43436370770070    1.05159477800115
C        -3.14378026453782   13.02634080848887   -0.26380312556016
C         3.12116800945628   13.05917790970402   -0.26368459830926
C        -1.78950679849590   13.12745783855640   -0.54405598439585
C         2.53089769465210   11.83596432893300   -0.54337553156333
C        -0.87493219658051   13.23643684479979    0.48664483207366
C         2.16906582430821   10.98939511367204    0.48764435398067
H        -3.33520671071714   13.34990642180053    5.33727123735860
H         3.49964044738564   13.06387643697415    5.33892499440646
H        -2.92651420371738   14.01377510592569    6.91893762666873
H         3.86832512951370   12.37849470677375    6.92125322662354
H        -2.26105139799131   12.43802816100510    6.43162320706448
H         2.17155084399349   12.58978766919220    6.43180174103141
H        -0.92422140563256   16.02509467080873    4.45905558195607
H         4.61250163128970    9.63843762948649    4.46326634380762
H        -2.47184309853178   15.95288676803895    5.30351975873261
H         5.32200970371792   11.01677510309495    5.30600380933711
H        -2.26028654992274   15.11143905464454    3.76207645116625
H         4.48787719434888   11.25114631241303    3.76385218401911
H        -0.07743490831250   13.74261932196299    7.21514053582117
H         2.21035409380504   10.04701945166554    7.21693840948941
H        -0.90430466884182   15.30518328413185    7.24746914109867
H         3.97697228700621    9.98080681061371    7.24925843947953
H         0.49892623573816   15.08435750453871    6.20210445668080
H         3.08338018161661    8.87653235968762    6.20387514074883
H        -0.37899579459021   15.58187355843354    1.17629544049136
H         3.95716710741166    9.39119703290869    1.17820812961345
H         0.80742967986917   17.72046865770406    1.03288559082835
H         5.22082855260995    7.29730739087035    1.03486112665710
H         2.58780812380435   18.27474864625414    2.64582709462753
H         4.81382821080384    5.47690545795409    2.64705922797940
H         3.18199305008170   16.66061569220525    4.41991788957139
H         3.11663723137719    5.76476067045520    4.41973835468276
H         1.98977839596868   14.49302225509692    4.55127254209797
H         1.83078855263826    7.87798812104731    4.55109910306309
H        -2.99396177616323   13.11322908379268    3.10923005855852
H         3.12560975706170   12.88549633449093    3.10929865703784
H        -4.62950061101100   12.92188806935190    1.27623868267886
H         3.77603880240686   14.39751610897717    1.27571229533981
H        -3.85816115646899   12.93219836422377   -1.06884909880678
H         3.39582034053761   13.72506272887133   -1.06895181854849
H        -1.44673319496159   13.10725567100267   -1.56906628631359
H         2.34073424615761   11.54939954260907   -1.56820172677202
H         0.18573332529562   13.28796687218114    0.27640626686084
H         1.68335476863898   10.04499211101795    0.27783350781083

