26
CSD_code = ADUFUD | q = 0 | S = 0 | Stoichiometry = C10H9Cl2N3OZn | MND = 4
C         5.99373309574252    3.46459918045051    4.71903400765378
H         5.65683909808487    3.13213525299604    3.75428888412167
Zn        7.29358892204611    7.06446255585404    6.31848297005517
N         7.21045480117989    4.97628921386961    6.06885610074318
N         7.62482226013441    6.68432187135778    4.13723959905261
C         6.82825223949505    4.58655698280096    4.87880207386629
O         7.04199419908863    4.83850626714414    8.30594442434844
C         7.26846045975754    5.45074585337350    3.77262881563458
C         5.56119452283022    2.84889549475401    5.86323372461569
H         4.88909265704009    2.00161716301869    5.83089569119211
C         8.08996865120115    7.22446030474598    1.87374309538059
H         8.42019423083101    7.95682484160026    1.15493429381080
C         7.72698600320583    5.94678433319889    1.48118450295003
H         7.77014054918998    5.65537680736404    0.44241873891977
Cl        8.82219751343939    8.56554353804718    6.69161961976260
Cl        5.05529057991570    7.10476919433611    6.28806914876493
C         5.42263872368173    2.70362993991059    8.29290314441124
H         4.93107311636699    1.75563727152010    8.08852771984754
H         4.71844927801836    3.39922476629761    8.75370734029587
H         6.25036210299243    2.56329040838815    8.98885614222633
C         7.30830102817881    5.04076198926332    2.44351066945188
H         7.03751976903050    4.03401767214822    2.16850906305043
N         5.93205632728776    3.27563341140991    7.07118817827230
C         6.76246040109236    4.40800447596275    7.21691560806985
C         8.02323870389934    7.54738631501207    3.22347705377246
H         8.30259076626962    8.52482489517626    3.59122938972980

