127
CSD_code = ADUFIR | q = 0 | S = 0 | Stoichiometry = C42H76N2NiO6 | MND = 6
C         7.03480441110171    2.24496167413059    0.97858414598313
H         7.84222055799913    1.52611807585467    1.01946383778044
C         7.24882883823334    3.56933742207289    1.31844531755435
H         8.23719546202765    3.90191851504124    1.59467518502393
C         6.17953175697685    4.44948313904412    1.29334498188235
H         6.31329760738776    5.49137589608523    1.54329765289247
C         4.93359817023757    3.95407619311853    0.94828759355298
H         4.06624771314058    4.59494852074220    0.92943262585783
C         4.80777996602376    2.61470024719855    0.61968474238663
H         3.84747568166420    2.19665140365925    0.35332798298877
C         6.35394111500882   -1.48323411292882    2.36349738505623
C         7.46297923654308   -1.92015427473812    3.32937838704402
H         7.93319009660122   -1.01628348680714    3.71882381951951
H         8.21137393299624   -2.45821582319013    2.74128841419782
C         6.93438334311475   -2.80493168401169    4.45090798109678
H         6.34063033342637   -3.60376796489593    4.00194272630977
H         6.26196256237607   -2.21936632725342    5.08070738134380
C         8.04016486508194   -3.41732974521458    5.30900898556262
H         7.58944573639537   -4.14393642140847    5.98973071388207
H         8.74037676703770   -3.95874283832403    4.66779422884971
C         8.80562194930817   -2.38494629145598    6.13427655727023
H         8.09635371026327   -1.80287890838584    6.72744819631283
H         9.32849233244686   -1.69463921751233    5.46999846226503
C         9.82120377960475   -3.04157361000322    7.06656827883269
H        10.53118949183504   -3.62438200900229    6.47456951280568
H         9.30324921398828   -3.73465737965401    7.73397905729991
C        10.58332185160151   -2.01533860730658    7.90145418074304
H         9.87208911451538   -1.42949461659614    8.48872061664860
H        11.10763179186607   -1.32518877200606    7.23599478076592
C        11.59078054737362   -2.67288628718746    8.84130818404778
H        11.06633044820152   -3.36597395532735    9.50347631410779
H        12.30504052923329   -3.25562991202830    8.25462270507368
C        12.34672636229147   -1.64763496253415    9.68286514895409
H        11.63164194232207   -1.06339036666260   10.26703226007267
H        12.87420811340231   -0.95592198060840    9.02161698175194
C        13.34924980936166   -2.30639098352488   10.62713960828513
H        12.82142908967392   -3.00027970148919   11.28579891137925
H        14.06641365421562   -2.88839597065412   10.04330273134477
C        14.10117916725248   -1.28218823152339   11.47356819748928
H        13.38335770925319   -0.69730513373220   12.05373579538946
H        14.63327827510550   -0.59086642312505   10.81562475947524
C        15.09746883939240   -1.94262335320161   12.42328956609374
H        14.56467322871185   -2.63451677183245   13.08008155210255
H        15.81573177102652   -2.52707262669811   11.84322395620064
C        15.84842480852657   -0.91969725326549   13.27215629749267
H        15.12975522369142   -0.33296073653643   13.84952669419189
H        16.38423488206510   -0.22966140269067   12.61575950149434
C        16.84008174900417   -1.58191079604835   14.22540300868813
H        16.30351158339954   -2.27064003370679   14.88250761658405
H        17.55792432670876   -2.16967704156465   13.64809772782485
C        17.59349533199742   -0.56111695600003   15.07468844514945
H        16.87604478709448    0.02769363069871   15.65101061737341
H        18.13244643495572    0.12606399344030   14.41826077096963
C        18.57852056278282   -1.23030630571077   16.02534293990670
H        19.10461111756067   -0.48660032695111   16.61949466849628
H        19.31361652694459   -1.80747523436457   15.46843227981331
H        18.05730947858088   -1.90419824240952   16.70198231083976
N         5.84180991899864    1.77784796944788    0.61889446853171
O         6.72288936291218   -0.62431549966984    1.51044306622332
O         5.22188026338760   -1.96668298044716    2.44952028927262
O         3.63111640390792   -0.10420839045428    1.40662779247932
H         4.09904103663447   -0.81079480102241    1.91575996714062
Ni        5.64768691963658   -0.00038132615667    0.00019146963640
H         2.90182050233456   -0.54197236623800    0.96348133015275
C         4.26032685196380   -2.24488215893744   -0.97982142403561
H         3.45340152626644   -1.52552451842462   -1.02138676701882
C         4.04592876718789   -3.56891606347951   -1.32074203507157
H         3.05767485553631   -3.90075384323315   -1.59826614626018
C         5.11472986393839   -4.44966237976439   -1.29516693484904
H         4.98065794379235   -5.49129220996854   -1.54603710521812
C         6.36054862575370   -3.95516565348029   -0.94842288190950
H         7.22755815136782   -4.59648478619947   -0.92913361912488
C         6.48671664795043   -2.61610133104563   -0.61866059866404
H         7.44696348918011   -2.19886331455595   -0.35086368635810
C         4.94231042558768    1.48305628811784   -2.36274320847143
C         3.83382324307036    1.92081051567439   -3.32882577592996
H         3.36228988329066    1.01732103163617   -3.71755183596047
H         3.08626320363668    2.46041398744096   -2.74106641939771
C         4.36374100835501    2.80400275212760   -4.45098736942180
H         4.95843064964069    3.60247203320944   -4.00260251203719
H         5.03550533461379    2.21706419541542   -5.08021933261272
C         3.25880992880091    3.41702161733760   -5.30973829547555
H         3.71050130043859    4.14259859681184   -5.99090972796532
H         2.55908714074316    3.95971030226608   -4.66906667249288
C         2.49235927870485    2.38489236223170   -6.13440310158190
H         3.20107389580830    1.80172977542646   -6.72716236717539
H         1.96876924966107    1.69553618730908   -5.46970633930884
C         1.47746086718622    3.04189460866754   -7.06717797804167
H         0.76799685395119    3.62575303243405   -6.47559074216827
H         1.99610647845362    3.73405583820080   -7.73500773623293
C         0.71442777286884    2.01581946331155   -7.90142615751889
H         1.42514578106399    1.42902762906163   -8.48836973403392
H         0.18958059851972    1.32650703483468   -7.23552199171174
C        -0.29254955709459    2.67359755015140   -8.84163951648039
H         0.23239436435449    3.36595754131079   -9.50417612771941
H        -1.00640758134233    3.25715449092005   -8.25527487329346
C        -1.04918062661294    1.64838773280400   -9.68263447308777
H        -0.33447679204746    1.06340713293032  -10.26653145722837
H        -1.57703667694863    0.95733685284346   -9.02099254838878
C        -2.05138072793021    2.30720256842815  -10.62721501461611
H        -1.52323400813436    3.00054662737602  -11.28618550321285
H        -2.76828825039376    2.88979775752134  -10.04365344838652
C        -2.80373966156367    1.28291837169891  -11.47317052886220
H        -2.08616109431593    0.69759478846354  -12.05319524229881
H        -3.33596636048992    0.59201015484973  -10.81489547602885
C        -3.79995578571645    1.94324837462687  -12.42304392583229
H        -3.26707557450624    2.63485274742682  -13.08007119918085
H        -4.51810159748669    2.52798891448551  -11.84312772474160
C        -4.55110104439229    0.92017035754919  -13.27156807291464
H        -3.83253939237287    0.33321551356095  -13.84885173532971
H        -5.08690829971912    0.23035620108039  -12.61493582039099
C        -5.54279112547842    1.58221269429943  -14.22490102486007
H        -5.00624816026811    2.27084737796736  -14.88212683528247
H        -6.26063844926054    2.17005355546608  -13.64767837723697
C        -6.29619714540894    0.56127195055683  -15.07401971339290
H        -5.57874308497955   -0.02761142787886  -15.65026303343170
H        -6.83512800586161   -0.12582133956365  -14.41748444644996
C        -7.28124660615056    1.23029469951734  -16.02476700507085
H        -7.80730082719036    0.48649152314860  -16.61883001733003
H        -8.01637109027825    1.80750249958948  -15.46793473731923
H        -6.76005816406029    1.90412312601208  -16.70148692517881
N         5.45319192906265   -1.77864477253324   -0.61848993388225
O         4.57272800972053    0.62397089875851   -1.51013432678405
O         6.07452595701554    1.96631899338858   -2.44792518725245
O         7.66407765752534    0.10163824235780   -1.40670470090752
H         7.19670532304193    0.80920576860735   -1.91495032492164
H         8.39420073521630    0.53792330332830   -0.96346389246691

