91
CSD_code = ADUFAJ | q = 1 | S = 0 | Stoichiometry = C26H57N4NiO3(1+) | MND = 6
C         4.46755964167047    2.83293697144281    2.23973834774702
H         5.42706328002601    2.47375209487943    1.84934652160961
H         4.61654065060124    3.81804942448406    2.68848805470847
C         3.42288714504264    2.95344503673356    1.13916815997410
H         3.72505293391676    3.71351312371271    0.40867181049842
H         3.30931065072275    1.99844207471648    0.60865649872526
C         1.06900854010109    3.45631789728073    0.82406350310728
H         0.83656577507617    2.47730865664986    0.38402731532508
H         1.38927760479974    4.11901657585142    0.01006862301858
C        -0.18390668985536    4.05846264426733    1.45661922246409
H        -0.90103265388878    4.28716241838079    0.66878707971758
H         0.09036987451320    4.99470699664937    1.94634946375972
C        -0.84635436135390    3.12431123971814    2.46667730037753
H        -1.78907098889328    3.57402350470570    2.80575214318654
H        -1.08436362887178    2.16648629362075    1.99217723825506
C        -0.55692572931303    2.05176108768531    4.65867864854127
H        -0.80679899768467    1.07009495402698    4.24248241060170
H        -1.47890727682016    2.49718377566257    5.05455482630190
C         0.48651368604562    1.91673898405929    5.76132086081631
H         0.67642578564557    2.90164203055359    6.19595199440011
H         0.13916138178297    1.24137389302582    6.55213280693149
C         2.84840615119826    1.56038243179962    6.13672357028226
H         2.59867208783029    1.00070839027307    7.04730701630935
H         2.95189122487133    2.61878856535407    6.38930623795768
C         4.16926961995370    1.04476087055203    5.57417112022732
H         4.04081666237180    0.03654421880105    5.17062236690640
H         4.88928702303603    0.98622857057176    6.39014482498705
C         4.73341369557047    1.97116461858929    4.50100661265123
H         4.72596663547974    2.99837592266216    4.87351833920635
H         5.77027518464415    1.68676621209550    4.27851074872299
C         2.59402077286137    5.42180083115757    4.18545849670204
C         2.92441937418681    6.59620935815779    5.09496469523496
H         3.85508950292017    7.04341664611396    4.73905556875028
H         2.14124015983978    7.34629593505558    4.95755107905089
C         3.03526717680423    6.20489797173469    6.56363966133352
H         3.83634910004063    5.47062270763160    6.68183109031439
H         2.10442510395290    5.72603907863835    6.87737385964701
C         3.31314965473545    7.40920087875601    7.45775083284974
H         2.51384623551316    8.14325333940132    7.33351282620576
H         4.24687115627484    7.88353491968223    7.14806895893322
C         3.40969429406059    7.01538698193930    8.92957410842168
H         4.22058269768274    6.29417098745142    9.05972513376236
H         2.48109836326466    6.52507252466873    9.23348436270226
C         3.65774008524505    8.22062820418144    9.83291896348153
H         2.85116981994223    8.94467699290240    9.69681996629924
H         4.59024492880763    8.70759152605243    9.53929978444762
C         3.73525800010655    7.82528403116509   11.30540051165480
H         2.80767613466355    7.32386572511525   11.59296916902688
H         4.55177001188808    7.11289558779144   11.44656742372421
C         3.95540391973696    9.03158564053757   12.21454201584767
H         3.14264701175187    9.74663532728172   12.06723760084506
H         4.88671926721369    9.52985834026287   11.93601427764276
C         4.01506095783041    8.63429302447901   13.68735364629559
H         4.83638397757887    7.92973120331697   13.83891403558770
H         3.08852263050310    8.12296792492924   13.96002486936059
C         4.21005657869117    9.84087525180476   14.60193665427031
H         5.13992210028437   10.34938940594851   14.33706227450947
H         3.39200258979274   10.54788542827124   14.44501494111980
C         4.25415064894297    9.44094299710929   16.07462214677608
H         5.07871521922335    8.74210478211186   16.23468949550906
H         3.32820158535009    8.92212054199368   16.33460033715003
C         4.42931064508041   10.64686520879379   16.99413458310867
H         5.35770322907358   11.16362364871304   16.73994829979203
H         3.60713232813664   11.34755278147291   16.83028020500020
C         4.46204205554947   10.24400721697800   18.46638594732195
H         5.28856005684840    9.54868395444712   18.63201958571358
H         3.53642267954075    9.71999252785827   18.71706447985312
C         4.62387895437767   11.44880777939193   19.38970251051816
H         5.55019953983004   11.97237534431755   19.14160937976775
H         3.79772607792315   12.14430986935906   19.22346077213777
C         4.65264158951036   11.04503526904368   20.86186868426377
H         5.48097821517024   10.35269450376645   21.02933065387062
H         3.72768572310666   10.51870513949631   21.10890408023574
C         4.80827627988506   12.25185595083580   21.77878069783942
H         4.82685196620252   11.94177132681095   22.82093213090443
H         3.98063848445717   12.94441282069482   21.64151389200477
H         5.73438744623169   12.77942378808419   21.56113642736715
N         3.93292599045313    1.93653880013281    3.27643063805003
N         2.16200833566678    3.32927246145263    1.78120336408888
N         0.03383970695595    2.88299155305021    3.60619791049704
N         1.75076729544558    1.45243867973153    5.17287870474894
O         1.49554927301897    0.19696041266571    2.41625269174820
O         2.33715778035796    4.30653518030768    4.69982700226043
O         2.58150126572544    5.62667200153977    2.94688412141390
Ni        1.97301237267246    2.38198209174347    3.45111922565599
H         3.95675037537557    0.97844350057426    2.91585326263602
H         1.86205020783453    0.07421219469643    1.53674398894619
H         0.55880151600761   -0.00507054452624    2.35224717761518
H         2.32672544612906    4.33297893331218    2.22926520181261
H         0.25328904727283    3.79458638714648    4.02847201761070
H         1.64761214829143    0.46585764366003    4.91624990835606

