98
CSD_code = ADUGIS | q = 0 | S = 0 | Stoichiometry = C48H41ClN4OP2Pt | MND = 4
Pt        9.09906760330152    3.45338324830454   15.82173678090722
P         7.09011587936840    4.39195501664702   16.35486726531076
P        10.40926670897374    3.90495121790124   17.67518993351343
Cl       10.96821549538032    2.30367390875005   15.01655170868435
C         5.23209438950515    3.59059162966809   14.46382381481899
H         5.39148315325997    2.60260261582866   14.87679487395234
C         6.15326061674159    3.29660955017590   17.47192592717625
C         6.18135869653389    6.39650397933536   18.14473818843209
H         5.37582605234910    5.73373000577150   18.42487782392265
C         7.80818880313083    0.67951371217292   14.68760948181983
H         8.21760999212593    0.89799278660780   15.66776937875354
C         4.39710503135180    3.76434169529922   13.37767642146008
H         3.90833161726232    2.90911100172574   12.93556373470293
O        10.03086314139519    7.21704881937189   14.28812758673252
N         7.26870915283444    1.49856860131069   12.49456066994797
C         8.26612330759416    8.09553488913721   17.45713604474019
H         9.07966613415173    8.75607575434809   17.19684519945383
C         7.76710990639329    1.69419299938845   13.71643033681343
C         7.31425430034230    8.50020371215532   18.37857727729989
H         7.38261702954941    9.47748555767705   18.83349388584077
C         4.77505722604538    3.39454567875347   17.64196291295324
H         4.21248665544456    4.12513238923277   17.07632896620974
C         6.20676494769747    1.47354289857493   19.04528233029506
H         6.76518487452198    0.72168212880046   19.58363168853750
N         8.61376536326750    5.00954471816188   13.70800561178599
C         8.17912773050522    6.84343810200142   16.87868514249669
H         8.91028063300176    6.50706650121559   16.15388764896294
C         4.12426400824392    2.54279198717435   18.51633735713177
H         3.05457272199580    2.62217887473942   18.64529255953070
C         6.85897867409644    2.32355726455042   18.17112678140823
H         7.92982630037234    2.23438474060168   18.01252808241587
C         5.88031699221952    4.68676804271211   15.02944855660357
C        12.03500735638654    4.46634445372507   17.09163697370574
C         5.68307492007080    5.95484698029155   14.49567246555273
H         6.19938972843067    6.80399615118406   14.92069106152476
C         4.20070854220603    5.03093868927112   12.85033207894394
H         3.55448609827439    5.16469898588811   11.99565696723578
C         7.13085546859967    5.99315695272350   17.21444927915162
C         9.98682627240155    5.18536860525182   18.90860038697981
C        10.70849442360841    6.36562889077764   19.03796181339660
H        11.56477017920103    6.54427137777322   18.40325369756389
C         8.49721763898403    6.10668776686996   12.87671865116703
C         7.33308117831869   -0.56796503009606   14.35469112713644
H         7.35338467697536   -1.37367399938362   15.07527232229843
C         8.87846999610772    4.97291141988924   19.72502846739271
H         8.30801965794617    4.05929115958639   19.62062968780705
C         9.06492628395808    8.40505247685867   12.39760734911962
H         9.60553645394963    9.31168654154816   12.62158488144683
C         9.21326312044277    7.28076809426723   13.19494030507909
C         7.66335838139972    6.10772839164171   11.75713670481020
H         7.13045997667942    5.19741373107428   11.52857191461039
C        10.33932330627325    7.30651239339627   19.98311816820071
H        10.91074355960978    8.21794943670675   20.08342487431720
C         8.51292355384841    5.91336354279366   20.66719967025676
H         7.65539525820071    5.73615322719464   21.29970723154944
C         4.83957912793524    6.12344892290622   13.41244010341918
H         4.69398737757572    7.10980192647371   12.99751506356264
C        10.78037641006547    2.49475732738168   18.76777187132649
C         6.81979311175746    0.29511693233029   12.19642907612395
H         6.43174184745762    0.18870821250905   11.19091289194416
C         6.27725766003536    7.64950271513098   18.72304334711626
H         5.53932474769984    7.96335537927217   19.44701062028394
C         4.83745360062009    1.58657115506081   19.22211708357683
H         4.32301019667646    0.92354899151993   19.90180135882011
C         7.52604536795146    7.23416697164977   10.97245971877485
H         6.87515851303592    7.21652864850016   10.11094724028750
C        13.22034478841931    4.21947194549314   17.77202123826744
H        13.21043985745434    3.65578582151856   18.69457997985781
C         6.82471245030063   -0.77510028249274   13.07615165638666
H         6.44561906108684   -1.73921548095477   12.77571936156920
C        10.67591106683077    1.20940888513005   18.24564473718034
H        10.39556282616092    1.08324976601520   17.20836347954825
C        12.05116431784153    5.17305745358378   15.89213554686723
H        11.12223542820673    5.33224192605600   15.35250257435466
C        10.80407024809551    8.34171436927589   14.61514546340959
H        11.37361989596131    8.06255076338345   15.50138326581704
H        10.17755966819504    9.21117246006876   14.84419211675942
H        11.49823467657370    8.60332872123266   13.80929068274373
C         9.24514926087111    7.08259015739687   20.80024326692551
H         8.96086798457797    7.81732036570768   21.53877125569789
C        13.24966173427536    5.63381005447892   15.38115040425126
H        13.26450082655778    6.16929897198435   14.44330458385400
C        14.41655406943902    4.68393143368563   17.25294341293382
H        15.34084209908828    4.48527229673613   17.77622818742861
C        11.17049180792372    2.66692600944606   20.09350958193764
H        11.25119892321556    3.66129918235479   20.51070060666730
C        14.43263526070942    5.39021719045949   16.06157306294527
H        15.37098205834772    5.74099575444932   15.65681275452673
C        11.34333157063981    0.28591559502676   20.35510599079393
H        11.56314622913002   -0.57110956536261   20.97484780187468
C        11.45083009092967    1.56407318554513   20.87962047418849
H        11.75628128206623    1.70313848015539   21.90676927257937
C        10.95721826690962    0.11041207749567   19.03659967205167
H        10.87705203457737   -0.88414223746499   18.62314730020301
C         8.22394591196113    8.38384192433060   11.29538978739695
H         8.12309678586140    9.27306136781999   10.69065927891559
N         8.17402052854537    3.90409763222147   13.22828544902723
N         8.21908185798512    2.93494232492948   14.05975932603731

