75
CSD_code = ADUGEO | q = 1 | S = 0 | Stoichiometry = C40H29CuN5(1+) | MND = 3
C        10.29445743384303    7.24973210308152    1.81410184709655
C        10.60093823997747    8.60874873653370    2.21289689413228
C        11.41736647094892    9.18832736189823    3.15574004594756
H        12.01192543157143    8.59184006999963    3.83112639180699
C        11.46792181977261   10.59239526804465    3.21408646923395
H        12.11121158019458   11.04798893841125    3.95199672661559
C        10.73634965576067   11.40169163844831    2.37576559704324
H        10.80912350400645   12.47554708323617    2.46046362806783
C         9.88598945203562   10.83854831072042    1.39637199814047
C         9.07341503710144   11.50890730111391    0.45300599246819
H         9.06037389874249   12.58830489871918    0.43633769568448
C         8.30773832922043   10.79590653300514   -0.44001487318748
H         7.69794408245957   11.33156676176852   -1.15211148863284
C         8.28231658891631    9.38993095903270   -0.47192443577694
H         7.66915864100586    8.87306075862348   -1.19495550593268
C         9.06251939187412    8.70774883466296    0.43151554545095
C         9.33398599807192    7.31035378740985    0.70994943878245
C         9.84855339775565    9.44333376596911    1.35108384631024
C        11.71107310870217    5.11578703980536    4.07999749958551
C        12.98156056605386    4.97979839311002    4.78636663755460
C        13.01944224316613    4.58656104297258    6.12595104134593
H        12.09897081865182    4.38251093743857    6.65319910325775
C        14.22897768768126    4.48679651926528    6.78679593018621
H        14.24919306302099    4.18710725610414    7.82357646498145
C        15.41207342547110    4.77576759947894    6.12515136445738
H        16.35444647542273    4.69415496251831    6.64462178500418
C        15.38289316546414    5.17894076534150    4.79821814021796
H        16.30343846544627    5.40978978231015    4.28418962416377
C        14.17821856648238    5.28691408042881    4.13342527738623
H        14.14264308626943    5.59820642551997    3.10075608097614
C        10.54632050300913    4.31636045080100    4.48713384207633
C        10.72661908172291    2.97540162299071    4.83632106530686
H        11.72246284964215    2.55878732815176    4.84891946977746
C         9.63970576220410    2.18404032399672    5.14853674919011
H         9.79307427524908    1.15196516573296    5.42697800201910
C         8.35820925180134    2.71497466742563    5.12479071090632
H         7.51274693021368    2.10119200464484    5.39779438331757
C         8.16755179326266    4.03944643924333    4.77593174727544
H         7.17417754907958    4.45920718248444    4.77077712920341
C         9.25100396582850    4.83554635408716    4.44239531057977
H         9.09688317550012    5.88444781731734    4.23300918969079
C         7.07737793350635    5.46631916905216   -1.03247519364640
C         6.37482581352223    4.87094316080828    0.11831973024008
C         5.89606067579735    3.56315437523024    0.03475264311502
H         6.00282530237998    3.01603341058567   -0.89019701120440
C         5.30220311257994    2.97000794806956    1.13201526959626
H         4.92621565208276    1.96029438946863    1.05528221928723
C         5.16416312145723    3.67334331635841    2.31886913138838
H         4.67835266059906    3.21457646916078    3.16704559593632
C         5.63040647273051    4.97339688125487    2.40698243299635
H         5.49958823533919    5.53800683770135    3.31779881750897
C         6.24701695936652    5.56608934990857    1.31968560040348
H         6.57521303457535    6.59348321597788    1.38507779523217
C         6.54417424565262    5.31764205721238   -2.38128948010062
C         5.18405278790350    5.07965509287624   -2.59145891443956
H         4.51255759191877    5.01346163183485   -1.74793495972707
C         4.69105035940703    4.95537305301446   -3.87634620525748
H         3.63796037051377    4.77553007066300   -4.03034621910077
C         5.54231489468591    5.06625562320763   -4.96447666835438
H         5.15327268302730    4.96615046540343   -5.96606980271439
C         6.89269945240697    5.31369731564944   -4.76534161261822
H         7.55482506935635    5.40565164543421   -5.61273425120402
C         7.39176262460026    5.44409387332507   -3.48526966771589
H         8.44049607613202    5.63559595426581   -3.31755577205529
C         8.45463129408308    1.95558484300117    1.92517762526355
C         7.91577954495084    0.66664638152325    2.17954624283280
H         7.61944104405416    0.20017727658971    1.23951471007164
H         7.04388512646028    0.75980845377397    2.82629365825435
H         8.66426577487850    0.04397743452444    2.67006001191782
Cu        9.42433467687590    4.70426010039859    1.47513753217700
N        10.67641791330800    6.08866829451160    2.25561155365631
N        11.67004860644037    5.95678396604653    3.10783665673499
N         8.87672869578901    6.20163722338556    0.21537250402247
N         8.16441458301648    6.13315364520995   -0.88417059716031
N         8.90666284804336    2.98800980275074    1.70061426295116

