67
CSD_code = ADUGOY | q = 0 | S = 0 | Stoichiometry = C30H27ClF3N2PPdS2 | MND = 4
Pd        2.27188527166219    9.83319267389384    3.46869741380440
Cl        1.62306498238047   11.95558593132326    3.90341847863954
S         1.97886568055835    9.92002596096033    1.18386322236312
S         2.93461913314863    7.72404983945760    2.82049426224563
P         2.56388725536888    9.77094860814503    5.67986400018438
F         5.06110744220562    5.00861787779146    8.13708242146950
F         6.04579411423391   14.36834457031869    6.89625616193301
F        -2.77652421332225    9.61379912221087    8.18806534683005
N         3.22348670531492    7.79794290909810    0.17968404970015
N         2.56239287292970    6.00298493099537   -1.88514057483113
C         3.37580495957351    8.35875614094089    6.49664063065179
C         2.80706833003352    7.10679488827670    6.26796856344349
H         1.92478527549152    7.03680066104043    5.64299817387355
C         3.36659279031668    5.97229593935292    6.81867009741631
H         2.94390921465121    4.99394163265233    6.65370685907533
C         4.50658293210334    6.10891553960217    7.59473280275510
C         5.09540383624539    7.33886625403801    7.82833075648906
H         5.98588603080315    7.39976431460934    8.43412108556170
C         4.52469352711930    8.46924680432620    7.27073723932049
H         4.97344000782902    9.43799128296626    7.43725806360967
C         3.56480967131774   11.19688862202820    6.18074010978988
C         4.58770116992120   11.50069111038768    5.28013024009601
H         4.69057923046426   10.89658958949345    4.37175697760241
C         5.43235973725158   12.56558227555112    5.51459922660245
H         6.22604346623910   12.82504808609597    4.83197761675697
C         5.22747419047522   13.32741073653441    6.65484606574804
C         4.20693387143537   13.05850095182927    7.54882111262776
H         4.07150097497658   13.69187955112247    8.41134371719219
C         3.36949742386570   11.98268479648902    7.30732251698725
H         2.55440437200317   11.77434308994908    7.98294870691092
C         0.95039428258082    9.76967934437677    6.50917076020728
C         0.81436347699308    9.70635578513316    7.89322826521446
H         1.69321876837416    9.67486561842265    8.52149989390984
C        -0.44386311566358    9.66150108197000    8.46326340283884
H        -0.57755538299654    9.62094237465944    9.53293459353609
C        -1.55255151586591    9.66059079455197    7.63271406110969
C        -1.44171706725044    9.68541373155310    6.25251930458716
H        -2.33128015706504    9.66590686854768    5.64301201861691
C        -0.17920569588704    9.73587359111544    5.69289220666114
H        -0.05658953923412    9.75653617553026    4.60275492523119
C         2.76254302990711    8.41583522243409    1.26809136787562
C         3.74251601976822    6.44991991322483    0.19186960193670
H         3.89327239459405    6.12419962334591    1.22155833933182
H         4.69941580416337    6.44319344679974   -0.33814657631186
C         2.75735048037978    5.52940585730337   -0.52761371120556
H         3.16370233408479    4.51719726561395   -0.56433057289894
H         1.80693866961544    5.50643385313325    0.03708210711356
C         2.01050876693730    7.34360467651688   -1.87187039151364
H         1.03273468374637    7.38342956668390   -1.35789275873888
H         1.87380933271722    7.68118550164824   -2.90118765995816
C         2.98595869642263    8.28227439278515   -1.16022017291173
H         3.93977395949032    8.28864109089766   -1.69612109210428
H         2.58369164395972    9.29490190712741   -1.11808090610967
C         1.76633596892361    5.07733448300082   -2.67463275283094
H         1.59183422149849    5.54467771325715   -3.64973065081487
H         0.78210270594226    4.88704405767734   -2.21115238153547
C         2.49689964753318    3.77802666123606   -2.88183843244563
C         3.82830261555057    3.79313107170060   -3.28059085986773
H         4.31891791980560    4.74400882621106   -3.42276556871953
C         4.51330743046175    2.60941652971287   -3.48193176422856
H         5.54844854989007    2.63168198774176   -3.78980948528416
C         3.87312307659621    1.39531530283298   -3.29335285652542
H         4.40670356646153    0.47020476638475   -3.45337565913226
C         2.54720913009984    1.37241311034121   -2.89859704371179
H         2.04284461035035    0.42909670405769   -2.74899617390126
C         1.86388658510305    2.55853854889045   -2.69006653098152
H         0.82910384537234    2.53513786212467   -2.37812219128988

