67
CSD_code = ADUHAL | q = 0 | S = 0 | Stoichiometry = C30H27Cl4N2PPdS2 | MND = 4
Pd        4.16683597856093    2.59280277739918    5.63752595487146
Cl        4.74534628111008    3.22311348894706    3.54394813230444
Cl       -0.30914215242097    7.94961500181246    3.54420031047851
Cl        3.28514611417719   -1.52288596728386   -0.19748970270369
Cl       -2.49182233935350   -0.37387009485228    8.00075347026016
S         3.78843563825682    1.94151607745362    7.81651819374271
S         6.24177361714214    2.89758576866015    6.59873437597487
P         2.17408202549892    2.27718528091782    4.68724622301467
N         6.18622642424221    1.58340971661543    8.90836486054772
N         7.25424402120541    2.16685138118981   11.44617596034766
C         1.42685449386280    3.88077537267387    4.29052187184492
C         2.12723478401018    5.02076276366092    4.68083666291430
H         3.10659064739510    4.91217460854160    5.16418868218421
C         1.59765602164669    6.27662979229067    4.45360889236922
H         2.13641694076871    7.16446790060194    4.74537864093381
C         0.35710484876914    6.38731723823479    3.84096916394189
C        -0.36558100576382    5.25909105609198    3.47702561365081
H        -1.33722076384099    5.36721029377537    3.02062247841262
C         0.16713988130231    4.00586692794844    3.71190311882906
H        -0.40238853671172    3.12195949685196    3.46130990470179
C         2.38994150165520    1.25799047765592    3.20483324412941
C         1.74520328993768    1.42517247928569    1.98821970310716
H         1.04484064766647    2.23433225493492    1.84888395307596
C         2.02500897365159    0.56802729620972    0.93765676624720
H         1.53688376137571    0.69453510225482   -0.01607088124950
C         2.94646400728319   -0.45270276835603    1.11207257562806
C         3.61219152176136   -0.62058432911335    2.32018075776434
H         4.34340939076740   -1.40617423559366    2.42893654389800
C         3.33446361328475    0.24185416709007    3.35985771380869
H         3.87066734527602    0.15740545185361    4.31219527486877
C         0.80589453394494    1.46349805755595    5.57243665490853
C         0.18842906244932    0.29712879089769    5.13770666410022
H         0.50157389090699   -0.16910613477973    4.21442541402948
C        -0.82863013376950   -0.26938242466451    5.88499629569107
H        -1.31443474518596   -1.17338038206650    5.55215706885960
C        -1.22110955939683    0.33155661532580    7.07122000409338
C        -0.60396812684288    1.49020412837808    7.52449759515824
H        -0.91490872066466    1.93897162763271    8.45474422588850
C         0.40989722134651    2.04840850636281    6.77376056361466
H         0.91590979403208    2.94386923462638    7.11456682352211
C         5.48995042513718    2.08455997572115    7.88707313659964
C         5.57155932205337    1.04192099699265   10.09812360163882
H         6.02805340109909    0.07108952352537   10.31219975944547
H         4.50157830995531    0.91351281658420    9.93139151224350
C         5.82484797989501    1.99209790014869   11.26809756404211
H         5.31823543616164    2.95419091975248   11.06722965417504
H         5.40804304962013    1.56460480394071   12.18168172915382
C         7.84029674274290    2.74185746730984   10.25116241215274
H         8.91419105990785    2.86363592221459   10.40610776392283
H         7.40699271259640    3.73016831202918   10.01198856814746
C         7.60535281452416    1.79664858106320    9.07222898301338
H         8.02158762314496    2.21425824526595    8.15502406142596
H         8.07492052728599    0.83100723980913    9.28203707178448
C         7.56201449307276    2.93137956595154   12.64402531365960
H         7.07144119701457    3.92082004961907   12.63408128996223
H         8.64486163294600    3.09510984658003   12.65890335491813
C         7.16702063219036    2.17391536050502   13.88291210620633
C         7.53009614090712    0.83901288823054   14.01784457735585
H         8.08250840332148    0.36587139422931   13.22026348774367
C         7.18031949393173    0.12852454646137   15.15091173142777
H         7.46552158739050   -0.90907147770676   15.24557181092981
C         6.46835664487354    0.74623637725898   16.16633173358233
H         6.19720401298237    0.19261799163506   17.05302189140625
C         6.10533536355686    2.07544444102548   16.04002387813424
H         5.54924642739025    2.56227516516479   16.82770984117945
C         6.44994422274466    2.78443207339846   14.90160660138811
H         6.16066015418334    3.82167627633134   14.80602679460043

