85
CSD_code = ADUHAJ | q = 0 | S = 0 | Stoichiometry = C28H40N8O4P2PdS2 | MND = 4
Pd        3.58315391216969    5.22233158817499    7.62941888138747
S         4.75493132905954    3.26804208481955    8.36093266933958
P         5.37718134333812    6.39865535865694    8.25814202753939
N         8.03262643979203    6.85662988661974    8.24468741013902
N         6.99252674063816    6.93828337845429   10.43471705226908
N         6.64132004716192    8.84933357375934    8.38371707486816
N         4.77959584324194    3.81520792975078    5.78437359567567
C         5.79076394090726    6.23389592996338   10.04803656341767
H         4.95981606605891    6.62065589266307   10.64999816046037
H         5.89792440752861    5.15510535633225   10.24411475422535
C         5.18144270127185    2.93326218962075    6.71483013285243
C         7.05745932237122    5.99310297189046    7.61234363881523
H         7.29030639090173    4.94572988796445    7.83511749134896
H         7.09228322086315    6.13209598641160    6.52611681060728
C         7.86125702184950    8.23708332015273    7.87561541838188
H         7.86030593355344    8.29016601469707    6.77926081862532
H         8.69616196696688    8.82383971516905    8.26862896735582
C         5.90144047167681    1.77953090214328    6.38253820589494
H         6.20161936294010    1.10305991593438    7.16692599131087
C         6.19537754509360    1.54090394029162    5.05878999164820
H         6.74230343161521    0.65431879709121    4.77262121043387
C         5.41364761622264    8.23156334001536    7.96004668370074
H         5.25737710329400    8.37615369892140    6.87749677681666
H         4.55644053043197    8.65952196423024    8.48364897849196
C         8.17601231377623    6.61617357892536    9.66112574945263
H         9.01677550186486    7.21221739998879   10.01433970329808
H         8.40575130385125    5.54868106549482    9.78683691321616
C         5.07720150359941    3.57021499197452    4.51413583787871
H         4.72942925837176    4.31217193819839    3.80617520806490
C         5.77623887535991    2.45442707626517    4.09554414312842
H         5.98398541850265    2.29773046878463    3.04983382637876
O         7.83262601485351   10.39854654537743    9.47939132738944
C         5.45800612083981   10.58360879014398    9.65505921685976
H         5.71460445014654   11.50689195457747   10.16770765596275
H         4.96433145769800    9.92185818860652   10.36529332744194
H         4.78569072310610   10.80561111679741    8.82983906718832
C         6.89948274661963    7.86301412940859   11.43563134319557
C         6.74049911425107    9.95468952554279    9.17548973215705
C         8.18415929577422    8.45366939525140   11.95664310033353
H         8.59078672499342    9.16097574495290   11.23590247774650
H         8.91930198670414    7.68342162724372   12.17509407758928
H         7.94950608152747    8.99746394836306   12.86800073109358
O         5.81413651100083    8.16816014138768   11.89313592307355
S         2.41263523538185    7.17443823836382    6.89536955246981
P         1.79090646252199    4.04389207706113    6.99913021514858
N        -0.86476303004493    3.58683895720845    7.01415544487345
N         0.17400897744986    3.50446055533421    4.82356109745903
N         0.52574090025751    1.59361851648792    6.87464820824080
N         2.38785692236430    6.62658700106260    9.47207094077946
C         1.37629107441660    4.20843105344905    5.20943751868365
H         2.20671308981960    3.82121469135826    4.60704370035569
H         1.26944776563322    5.28721978209878    5.01316877549373
C         1.98610392656898    7.50860564890054    8.54168271406773
C         0.11109304032411    4.45012247447464    7.64574780872449
H        -0.12154830022055    5.49753011464367    7.42293057491158
H         0.07686545002094    4.31136327208519    8.73202150722611
C        -0.69367877826107    2.20638646767795    7.38336623145859
H        -0.69209527227207    2.15350559572447    8.47972961230576
H        -1.52902539307701    1.61985661754734    6.99095358520366
C         1.26552596843783    8.66198233330301    8.87396415061966
H         0.96539521746245    9.33851206571136    8.08961125351096
C         0.97093858979704    8.90018064171682   10.19764667581080
H         0.42357591708202    9.78649884178987   10.48382417579683
C         1.75387978603747    2.21105041343128    7.29748023222712
H         1.91072043620808    2.06661472860429    8.37996898899026
H         2.61063966803952    1.78270339917657    6.77345829144987
C        -1.00891587122520    3.82713128204757    5.59776604800100
H        -1.85009896618688    3.23132961434310    5.24514220993213
H        -1.23835154648543    4.89468662423735    5.47202610816006
C         2.08960892201723    6.87114038742692   10.74225586103018
H         2.43734896103772    6.12915249234900   11.45019837451493
C         1.38996711850529    7.98655959535172   11.16083408924928
H         1.18169645307980    8.14292537032244   12.20649745549551
O        -0.66674870451570    0.04463514057822    5.77993634142423
C         1.70771126107714   -0.14125964964290    5.60290720364608
H         1.45050463068435   -1.06453712974915    5.09056088968347
H         2.20118030270412    0.52021632645138    4.89227472790243
H         2.38043962042106   -0.36334881116204    6.42776671925138
C         0.26606715723932    2.57952912955783    3.82274289079347
C         0.42571103951111    0.48815868695321    6.08313004853176
C        -1.01914719487477    1.98927584308903    3.30261594861772
H        -1.42561825436229    1.28225827377752    4.02373436546773
H        -1.75413032035803    2.75976471867514    3.08446295979745
H        -0.78526204202171    1.44521299631001    2.39121850885437
O         1.35102168799245    2.27385437080687    3.36465932677822

