53
CSD_code = ADUHOY | q = 0 | S = 0 | Stoichiometry = C17H24F9IPRh | MND = 8
Rh        1.65454401618583    9.58477419812361    6.14159542924347
I         1.77754296321429   10.77953200691026    3.75591319820400
P         2.72346497277602    7.79738615898748    5.17156385258047
F         3.21113832229208   11.67330954529986    7.10137594222334
F         4.40691950443953   10.56789344952674    5.67651590260412
F         5.04842099651915    8.72004483716812    7.27512057573801
F         3.45609669214263    9.06784891338041    8.67386245201138
F         4.42264491019923   11.33087170994690    9.51688036786250
F         5.82203059065540   11.54266674009176    7.87328852541079
F         6.81368400491327   10.64587142861490   10.37054782592194
F         7.22764762401332    9.41348519616873    8.65918422587017
F         5.72800676220500    8.81534822769428   10.08197826797218
C         3.47540859634326   10.39159679421670    6.66221998041224
C         4.27818632225598    9.70099283883311    7.80175186018648
C         5.18595801524560   10.64636765161817    8.64075986622301
C         6.25925694871055    9.86293836471631    9.45055202705273
C         4.29850937550580    7.98500259121556    4.26727244071558
H         5.12018925932249    8.17769122358316    4.95100678461231
H         4.22200209030141    8.81672850653488    3.56925393088684
H         4.48961497739057    7.06294929030500    3.71801215876345
C         1.70725132892970    7.02761730711713    3.85361141282300
H         2.19991882693403    6.12158210866443    3.50229984096553
H         1.60673051279728    7.72977701283180    3.02770356234203
H         0.71764077763893    6.77685884408498    4.22743078858950
C         3.07480009460987    6.33816672821798    6.22920891945791
H         3.57088346509843    5.57242186481396    5.63413163237541
H         2.14344131835585    5.93735263144677    6.62483001825061
H         3.71810019817255    6.61983382044395    7.05901114862426
C         0.46924627666385    8.82716335139411    7.88348811089927
C         0.60047199638039   10.24490457874515    8.05203566572885
C         0.04098637829223   10.87483889013692    6.90848268689151
C        -0.58238993447665    9.84268453347894    6.09063928048556
C        -0.31702200154296    8.59631780297334    6.68899148349387
C         0.67656029929346    7.79803700596513    8.94796278923601
H         1.49378512484215    8.06219040500200    9.61201191663723
H         0.88045431076089    6.81821947314602    8.52241998131414
H        -0.23746057830340    7.72419400509135    9.54184669626497
C         1.06269264947720   10.95556012454124    9.28219013165671
H         1.65554116721011   11.83535257401312    9.04218105992894
H         1.65014777296683   10.30664712069232    9.92536013894673
H         0.18357437663107   11.28713309960066    9.83834055377393
C        -0.16413540178108   12.34720786521731    6.74828042276021
H        -1.06880993847217   12.64633946941364    7.28162817523959
H        -0.27417658418965   12.62081710224078    5.70139515834832
H         0.67701529097243   12.90144192245743    7.15962949753443
C        -1.53967881975478   10.08858276871842    4.97004361713509
H        -1.47340585593466    9.31463909844125    4.20799009523608
H        -1.35711885015642   11.04749294290068    4.49329985667956
H        -2.55522804996183   10.09011748625964    5.37130579704385
C        -0.97796940734141    7.29761299688895    6.34643174066228
H        -1.84281445907266    7.16336868742207    6.99972659601197
H        -0.31438759638608    6.44807080987866    6.49819011544263
H        -1.33241163330472    7.29265589483988    5.31804549474149

