53
CSD_code = ADUHIR | q = 0 | S = 0 | Stoichiometry = C20H30F2Hf | MND = 12
Hf        7.99073811399129    2.76533066555103    5.39389092983667
F         6.67531653009284    4.12978307342060    5.36930292081827
F         7.71183699895834    2.47770232002799    7.24652535252675
C         6.24305558279684    1.19507143392565    5.22342135572328
C         6.21712865409639    1.85467307394936    3.96595014451709
C         7.40413696385434    1.52072641186474    3.26344698774864
C         8.16762866973940    0.63551916136920    4.08110624318776
C         7.45767438068402    0.44937709212656    5.30495126461084
C         5.16461578744057    1.29310354242871    6.26616176309081
H         4.20745951281725    0.96644156565193    5.85721060368825
H         5.05959384529501    2.32744686450593    6.60386199218949
H         5.40284278399949    0.67331546110429    7.12689379999047
C         5.05619101895028    2.63549601225176    3.41936111909569
H         4.31277363149803    1.95744534852171    2.99376210100453
H         5.37876544851234    3.31793410833133    2.63571099630844
H         4.57628377105742    3.21503674751720    4.20543558724382
C         7.60887622227984    1.79325633783277    1.79768054040288
H         6.86583430301710    1.24590619156177    1.21393580619899
H         8.59177215974588    1.47165923118104    1.46598489355667
H         7.49071489788811    2.85221330706391    1.56489067865012
C         9.26263080299938   -0.27224716476413    3.58908715762933
H         8.81954200693612   -1.16921265634373    3.14893312481080
H         9.91709142581776   -0.59211396527034    4.39633419052478
H         9.86917896446902    0.20032030982507    2.82041591920800
C         7.82340511201244   -0.50086847815717    6.41490151043407
H         7.20313009466900   -1.39850113957972    6.36793112181295
H         7.67443308386279   -0.03743496425576    7.39028312255760
H         8.86380731904340   -0.81107292981052    6.33765551344135
C         9.38241753631389    4.58047606829856    5.96901365551855
C         9.34393615251245    4.52657096697579    4.54311012789854
C        10.06687660277956    3.36758912329581    4.12974915442556
C        10.52029284442918    2.69443188621930    5.30321088630955
C        10.10555972518613    3.44923266606286    6.43130090862644
C         8.77090750469952    5.62931268311661    6.85544080655562
H         9.53482087054459    6.09300565011333    7.48108544677919
H         8.01788896373730    5.17961619822868    7.50779675657170
H         8.29230847815956    6.40423677304547    6.26210081078076
C         8.78875254592470    5.60127394292268    3.64580711821501
H         9.43554086620688    6.48106652150040    3.66023540959412
H         7.79447825331546    5.90688840983807    3.97196724383989
H         8.72075454548586    5.25496380694559    2.61625702440743
C        10.61623227160744    3.15921608056242    2.74425173656794
H        11.54531313278812    3.72456090494200    2.63428885162097
H         9.92731216746346    3.50802914063156    1.97860685466830
H        10.84732588265478    2.11457945015166    2.55001981386000
C        11.54104050353773    1.59065876897728    5.36985044039137
H        12.49791315078109    1.99362665208581    5.70844667620187
H        11.69999059980472    1.13560064964265    4.39656555321467
H        11.24705698099329    0.81284195967801    6.07577975744559
C        10.49622134863872    3.19110516362145    7.85849474567691
H        11.39922763858868    3.75238786606086    8.10991080472764
H        10.69857822524838    2.13468273560063    8.02322210087786
H         9.70399512208935    3.50013896962821    8.53736057442211

