36
CSD_code = ADUJEP | q = 1 | S = 0 | Stoichiometry = C17H15Br2MoO(1+) | MND = 12
Mo        3.10335539601372    5.38254851559300    7.29653586309643
Br        3.37057728436073    4.10336489823983    9.58441207583230
Br        2.99383641260810    1.28607829458593    3.95648638358724
C         1.22134679877508    4.90652211283781    7.48506080408647
C         4.57136190138750    3.65983985081782    6.68745477385711
H         5.23643624299137    3.09725864673381    7.33170208511616
C         4.92447937037947    4.76038964564286    5.89846482437549
H         5.91727204390395    5.18267738564442    5.81729347973446
C         3.81530541823919    5.09081022447225    5.07203046661989
H         3.83442806908847    5.77730105148469    4.23814316882703
C         2.77025260036412    4.19143821011013    5.35106985738706
H         1.87348559093616    4.06702472662360    4.75977830964540
C         3.21683052826923    3.29950888723128    6.38812247502770
C         2.58319079136115    1.98061638199457    6.72624599230746
H         1.50338204376937    2.02970177560577    6.55641831867622
H         2.75940525171642    1.72590798226589    7.77700908949728
C         3.18441328412635    0.87210461958229    5.86099736402250
H         2.67190984603047   -0.07298366319032    6.02910791138406
H         4.25173883078134    0.75437145174666    6.04321695125389
C         3.54637720504548    7.51698564054476    6.58322007372887
H         3.82027639019084    7.90153769752566    5.60949051370607
C         2.23257654243005    7.47055729285580    7.08509914499748
H         1.34045331317631    7.77645032115456    6.55488078848658
C         2.29732260360945    7.13058379777779    8.47941661979289
H         1.47225452009514    7.25367509668145    9.17701818094290
C         3.68704199771857    7.21016104799487    8.87709440850559
C         4.46699269398438    7.38608336943692    7.69099682579091
C         5.86317853831364    7.52217627875718    7.78029999307170
H         6.45530183736283    7.70417862141426    6.89429976676995
C         6.44434909511733    7.46835313653206    9.02519487774506
H         7.51369941582105    7.57636303603086    9.11828440190322
C         5.67426696255733    7.30727405048364   10.19060583669779
H         6.17307566467094    7.29877968533831   11.14659456998495
C         4.30731312609376    7.18214762056211   10.13707561413379
H         3.71615597406816    7.07591809147022   11.03477274440092
O         0.11325641464311    4.67639421741749    7.53270544500718

