45
CSD_code = ADUJIT | q = 1 | S = 0 | Stoichiometry = C16H24ClN2ORu(1+) | MND = 9
Ru        7.55994799004990    3.45923682418959    1.21773455599150
Cl        9.30762692223725    2.48719177482740    0.05817390540610
O         8.23372489589153    5.25918668421111    0.07136769353797
N         5.45169732143847    2.12921814887625   -0.12570562207015
N         6.41353651203712    3.47320211663169   -1.54419713817705
C         7.35817123681894    1.70076085849403    2.55051022450552
C         8.21630604499609    2.50048069013104    3.36509720041161
H         9.12653326799605    2.06041992427415    3.75388854692451
C         7.91574679434040    3.82677737830194    3.65153762801608
C         6.66927899667202    4.35048940482236    3.18997530557528
H         6.39797391034092    5.35936523679660    3.48541061776583
C         5.70687726428098    3.55194139023977    2.55474984807998
C         6.08994938182872    2.22596239370015    2.15973091233673
C         7.75770084584428    0.28803229714411    2.23826444879852
H         6.98312294567579   -0.41404670699481    2.54430238184050
H         8.67762854445991    0.03251634554308    2.75731173022693
H         7.94148110314851    0.16993362412532    1.16927245622018
C         8.80653550047026    4.65968838625003    4.52118924911744
H         8.68978143000127    5.72177325345834    4.31431175700996
H         9.85100305055756    4.38331564350192    4.39507818587306
H         8.54158506383412    4.49384949792654    5.56676276156145
C         4.31981906753351    4.07613582715666    2.31705936838691
H         4.04302068294294    4.04238347632789    1.26494166571529
H         4.23688174632553    5.10488963930306    2.65915964595110
H         3.60240645828846    3.47541438743124    2.87676749092883
C         5.20994298807198    1.49364942353264    1.15762829672285
H         5.46481794472367    0.43030105631093    1.10043367227619
H         4.14936170948863    1.57935438104918    1.41871317010554
C         6.42377393837134    3.02147446321427   -0.30446946739369
C         4.71220540401277    1.86858814445541   -1.35342294923575
H         3.65327325498687    2.11312759623937   -1.22453311027044
H         4.79268547905748    0.81460178890946   -1.63248969074315
C         5.41306661522796    2.79814556913309   -2.36537990264603
H         5.89970374060656    2.23975867190220   -3.16912483809280
H         4.72846392413172    3.52646090835893   -2.80813162181647
C         7.40957017744567    4.39254433072783   -2.04048430444891
H         7.11635890076066    4.72033595995930   -3.03828228117399
H         8.38572969301294    3.89126468392935   -2.08747042054565
C         7.54930643843302    5.61585715520221   -1.12649787645129
H         8.14622377228273    6.37469582892609   -1.64834294125815
H         6.55978586835858    6.03399668345558   -0.88494330611466
C         8.56950279390901    6.37971127026282    0.87160462888688
H         9.18062184613006    6.00579079077133    1.69625536754946
H         7.67316564334323    6.88428049990967    1.25314168087443
H         9.16170288962852    7.09194229708739    0.28770107384110

