59
CSD_code = ADUJEQ | q = 0 | S = 0 | Stoichiometry = C19H28F9IPRh | MND = 8
Rh        4.38600739631628    5.57552977160498    2.61506770636693
I         6.02229930483571    3.51406575441021    3.01685502161259
P         5.40600365239305    5.84144441277795    0.59455896203558
C         2.97717370698261    4.33689832316084    1.63271760826505
H         2.18924202636714    5.00408407516521    1.26367716668204
H         3.41148776252124    3.82603737668492    0.77353156904441
C         2.39095188904042    3.29385338356393    2.57954592164457
H         1.90487085143713    3.78352592188952    3.42592999781785
H         3.18362290595701    2.64873348688862    2.96900106121173
C         1.32136375226772    2.34607968750128    1.94682287095310
C         0.53130653440793    1.70680770854140    3.10944021590262
C         0.32177984602136    3.10064144781889    1.05042288295835
C         1.97579556585469    1.21486617835389    1.12746727794011
C         3.40724313789725    7.47075404405486    3.10548636862403
C         2.82520053318097    6.48112678266958    3.96589007437697
C         3.87118043861845    5.91660076062778    4.73869607819767
C         5.08357331351322    6.68481714312575    4.48081783041575
C         4.79091014146724    7.65176251366179    3.50588417129509
C         2.60620183143378    8.43808618193523    2.29132928865864
H         1.81915853816246    7.93004395405520    1.73731857567672
H         3.22972817673732    8.98564639462941    1.58905674616892
H         2.13242824506702    9.16140734020027    2.95882786332677
C         1.35227072902823    6.27140324678953    4.12443004563080
H         1.13194353422783    5.44341847728472    4.79401430239194
H         0.85204985974122    6.09556777443171    3.17380063825920
H         0.92156576627191    7.17545146755351    4.55949337553884
C         3.73039534892408    4.95385124246559    5.87668107011280
H         3.70415814159106    5.50816477828762    6.81690397420504
H         4.57130623765286    4.26405091258398    5.91607005994055
H         2.81670315124588    4.36910792027287    5.79683947772869
C         6.33680870663113    6.56975292073361    5.28785229027477
H         7.19606308644926    6.96438747578685    4.74976373006978
H         6.54463374917866    5.53429326259685    5.54773008367241
H         6.22056065617349    7.13567094825481    6.21442330111905
C         5.64945768486202    8.81424052128413    3.11513212739638
H         5.34214743113493    9.68890294293561    3.69255341715984
H         5.54794128952854    9.06134547833511    2.05955224631931
H         6.69849258630858    8.62266135334765    3.33056935219787
C         7.16360203325307    6.34084163858604    0.73801145785625
H         7.72544728718678    5.51747285287673    1.17675572810306
H         7.25768616852545    7.21295242100168    1.38186218258741
H         7.56455396557888    6.57226437776149   -0.24839269156089
C         5.55637856368981    4.46384999755496   -0.60086298732931
H         4.59134685050672    4.25216316475039   -1.05718196150987
H         5.91662626588816    3.56901782990860   -0.09792369646270
H         6.26500589716337    4.75113967807186   -1.37732635825523
C         4.74380864304556    7.14432320255726   -0.51833561265231
H         5.30711876123213    7.15839183695526   -1.45041006342127
H         4.81478511230804    8.11941041226864   -0.04193026522911
H         3.69763271615938    6.93100517751613   -0.73071450296223
F         2.85084694119694    1.66905897544370    0.23176775454528
F         2.63234276524952    0.36994149801779    1.91860865859567
F         1.07647456559697    0.49945930740107    0.44432637451028
F         1.34166005145409    1.26831768737501    4.07191559762688
F        -0.23009042056171    0.67927955701417    2.74259913911336
F        -0.27606782047810    2.60929169685793    3.68160007613598
F        -0.79234679242959    2.40441270788996    0.82194877415475
F        -0.06350542889367    4.25678762178838    1.59945368365265
F         0.84006636494062    3.39783499214747   -0.14252603879767

