75
CSD_code = ADUJOB | q = 1 | S = 0 | Stoichiometry = C40H29AgN5(1+) | MND = 3
Ag        2.83090311077002    4.72563559766884    2.22515720218591
C         4.62861403654231    7.10506104037503    1.78732108189283
C         5.04029850550273    8.46362351255329    2.10284186341136
C         5.91220853399068    9.02983923971332    3.00214764239876
H         6.47440703420748    8.42810565848739    3.70069144003956
C         6.06695465513124   10.42774885252171    2.98487675225634
H         6.75502069667770   10.87211208122833    3.68859496818712
C         5.38177188511937   11.24358352466467    2.11500166958411
H         5.53419790183571   12.31212654949776    2.14067653109340
C         4.47659183092723   10.69371866244301    1.17841189513179
C         3.70215374869969   11.37116580293594    0.20876588498863
H         3.76729064386290   12.44629044345291    0.13463159933780
C         2.87589134608209   10.67013518748145   -0.63822370358526
H         2.29721928590262   11.21054755478593   -1.37248585422038
C         2.74766514833367    9.27007014874463   -0.59321788716812
H         2.08879488275720    8.76143129578456   -1.28124690946426
C         3.48770313265616    8.58179051179276    0.33834044371478
C         3.65725433374019    7.17895979491930    0.68339375225227
C         4.33743876923484    9.30397534946718    1.20813685715567
C         5.88776366351347    5.00433430457429    4.15203291451753
C         7.13163712450467    4.69274879597700    4.84366503149047
C         8.35652756201189    4.87153379117430    4.19463974998563
H         8.35687439208669    5.22084944523546    3.17354395480711
C         9.53945910110611    4.59600486327221    4.84968610498172
H        10.48103565767402    4.73082634156659    4.33918812794202
C         9.52089599767538    4.14739773488253    6.16219082198356
H        10.44690536746558    3.93520447710071    6.67410872687024
C         8.31192080293422    3.98004837061827    6.81885182812343
H         8.29637398678221    3.64308923387046    7.84423929110858
C         7.12313808239414    4.25097622659548    6.16861760724123
H         6.18482197992640    4.13923613500063    6.69263321502140
C         4.60679850567463    4.43152645887265    4.60116878784660
C         4.51903218948277    3.06096569912114    4.85577656226022
H         5.41382994452923    2.45807500118479    4.80786103848023
C         3.30407567380860    2.48266261941499    5.17116420827908
H         3.25208334756822    1.42371734634379    5.37323091579921
C         2.15793739744856    3.25987528314244    5.25380818596313
H         1.21958350653910    2.80991593048412    5.53938500021749
C         2.22930726039276    4.62410610370457    5.01489496747781
H         1.36391998878081    5.24835391066972    5.18499725766027
C         3.44315472388733    5.21313052866097    4.66221839326725
H         3.52323190116909    6.29419552953282    4.61400331608927
C         1.30224569819074    5.38427251623768   -0.97888651866550
C         0.63621529219051    4.83489264782229    0.21466477791012
C         0.54606525763441    5.58208774657820    1.39892646999477
H         0.74295506321708    6.64843391473684    1.37418502249489
C        -0.01470562617914    5.01115380091931    2.54017303170824
H        -0.19438611162830    5.62841316025961    3.40889075810644
C        -0.43572899601236    3.68998959834003    2.52519205982696
H        -0.88246949600962    3.25529979247655    3.40612887997683
C        -0.32765673014251    2.94355730218383    1.36076055081392
H        -0.67263828150798    1.92103487345914    1.34348360719179
C         0.19554981674899    3.50942939757537    0.21354951601006
H         0.26456213887030    2.93222405828049   -0.69666176203869
C         0.74664288623133    5.18493094479657   -2.31130154713281
C         1.56888832555651    5.30013717465178   -3.43541866872800
H         2.61615863369625    5.51782601411219   -3.29271352913685
C         1.04669696480470    5.13101750058717   -4.70160071439764
H         1.68965597632638    5.21664126908905   -5.56438019345140
C        -0.30237562228764    4.85403931765031   -4.86735991347568
H        -0.70980417798994    4.72445100275902   -5.85817105816096
C        -1.12855149546852    4.75148952510983   -3.75941168287403
H        -2.18087030969163    4.54812199266725   -3.88758395198830
C        -0.61225609736992    4.91610009563273   -2.48814297093722
H        -1.26540455763820    4.85677982918689   -1.62955715838471
C         3.49417604391211    1.64094814014304    1.24077771270449
C         4.01241696670913    0.48913294611044    0.58633659423676
H         5.09161976711595    0.44141637958975    0.73001193700645
H         3.79521170431330    0.54580609256468   -0.48016602388206
H         3.55342715163640   -0.40847599689605    1.00106234763985
N         4.94036941969255    5.95883300961327    2.29541603334923
N         5.93454785312233    5.76973423092440    3.11934373268778
N         3.11771125581599    6.09879702268574    0.22575703147945
N         2.40982544077583    6.02770208334969   -0.86493897813677
N         3.06271820602994    2.55558767728832    1.78321337169723

