83
CSD_code = ADUKER | q = 0 | S = 0 | Stoichiometry = C33H45BrOP2Pd | MND = 4
Br        2.56852250452551   10.27154274148083    6.20264647824815
C         5.50124003508944   13.15587494972826    3.07053260738961
C         4.47323496132970   14.00066394963717    3.51746303554711
C         4.32895767905140   15.23917728614449    2.90229648979202
H         3.54729038515757   15.90878316510578    3.22499484030598
C         5.18384753758159   15.63399432670139    1.89185233361530
H         5.06435754722990   16.60386510304724    1.43271602414201
C         6.18340660179286   14.78397332428855    1.45317463572533
H         6.82891349309099   15.10532429506313    0.65263100605648
C         6.34566417593034   13.53147534784400    2.02382637711776
C         7.34026711527044   12.49665080373085    1.53410122586324
C         7.88257312514048   11.78653133902029    2.75950501811533
C         9.19638053837672   11.36745645736166    2.89788394965480
H         9.92559253431491   11.60270917238952    2.14043757292676
C         9.58841672296409   10.63076677697792    4.00141741807853
H        10.61403935722188   10.30604909161517    4.09296607967516
C         8.66865076458553   10.29317869342321    4.97508598824480
H         8.98639384099277    9.70435012586992    5.82116051404576
C         7.34707322268891   10.71546184307347    4.88629185156514
C         6.97042262123431   11.48042751158305    3.77124644912694
C         8.44053033625499   13.09736151560777    0.66131252882672
H         9.01650591257981   13.83754694902473    1.21253226324090
H         8.00783828933314   13.56662922479305   -0.21826630844051
H         9.10923018320720   12.31593685710740    0.31007757962911
C         6.56016105737343   11.45752254490626    0.70079713377310
H         7.23150954281345   10.66930964297489    0.36619288328666
H         6.11773600949988   11.93595461511082   -0.17054802487705
H         5.76293850606774   11.00484306251245    1.28624054324544
C         1.91709603561547   12.79991531541810    3.84689389436029
H         1.26355525536096   12.29406583358901    4.56943840829684
C         1.11459890580195   13.84816579192582    3.08504921262737
H         1.75847873806062   14.43753506986494    2.43392289396750
H         0.57244181560895   14.51407005827025    3.75193714301845
H         0.38112350557011   13.34037346826208    2.46028139256263
C         2.45980419218787   11.74784875392162    2.88119837893990
H         1.64349831072860   11.16225264502082    2.46325114498838
H         3.12890497043146   11.06359110330073    3.40513138653867
H         3.00843968868325   12.21674836204916    2.06443727744469
C         2.67470137679582   15.00362550347288    5.62252930566576
H         2.10416974402026   15.55548741912637    4.86854482377152
C         3.77040422028097   15.90907120831483    6.17710207021631
H         3.33923819455001   16.85739532520462    6.49607778132016
H         4.53829410779327   16.11229754592416    5.43219252894111
H         4.25024050652034   15.44875135056333    7.03702462074582
C         1.73586951783736   14.54232804204887    6.73702015037638
H         2.26393507244177   13.86190468645009    7.41064036500685
H         0.87346037489402   14.01327671199692    6.33414331268242
H         1.37986765932292   15.39084378500879    7.31898875628613
C         5.58569192172782    8.58613025918108    5.54078636252130
H         4.72228323226578    8.30640802419841    6.15817196524067
C         5.10864523839059    8.72886776201888    4.09659784285123
H         5.95176589798808    8.87682003541167    3.42189284598115
H         4.43219142489402    9.57990087717694    4.00455606601711
H         4.56721814225230    7.83675677662352    3.78829842748469
C         6.65242867851977    7.50139375218379    5.63632353324320
H         6.27897473882807    6.59979763903073    5.15281210211260
H         6.88789513177641    7.24740968417658    6.66688515571520
H         7.56459871730507    7.80340764912695    5.12358910194743
C         7.05262758610552    9.90247383402006    7.70470653561638
H         7.71936717168677    9.05397942232280    7.52015803084480
C         6.00786382487046    9.51441697333589    8.75089571827005
H         6.46763250211429    9.39454448462168    9.73050548168992
H         5.50974575056622    8.58278868985686    8.48691505516839
H         5.24554274043970   10.29506162708475    8.82315158078571
C         7.88060528973285   11.09154405243164    8.18272814668309
H         7.23413049684077   11.89308121517836    8.53123366071910
H         8.50929224768595   11.48907049263608    7.38732356902667
H         8.52085339680830   10.78743107177129    9.01009888544007
C         5.76459989618249   13.24114682308385    6.67486158188657
C         6.82415387736643   13.92808852115895    6.10593426612011
H         7.11459123639980   13.76144238340535    5.07563321520210
C         7.54260462209115   14.85352926828056    6.85027118685062
H         8.36722932693631   15.38041746098607    6.38970762063744
C         7.21227513494576   15.10442096769841    8.16898459985376
H         7.77503182671960   15.82592456407463    8.74333150152865
C         6.15413620148904   14.42520534080589    8.75172786828512
H         5.88749243509500   14.61439879278486    9.78274810973443
C         5.43860025115951   13.50137214382932    8.00729867585747
H         4.60434701721611   12.97239056594791    8.48538700050020
O         5.67619036476365   11.93911564609257    3.68785894730226
P         3.35321629830418   13.45055789617473    4.85928465046636
P         6.09948731532456   10.28017223366328    6.15479970044513
Pd        4.45667327197042   11.84692437376245    6.03386766626853

