100
CSD_code = ADUKAM | q = 0 | S = 0 | Stoichiometry = C51H40ClN3OP2RuS | MND = 6
Ru        8.98215614186398    3.97529315774407   15.70729213847019
Cl       11.24515197658084    3.62378384392652   16.34958833054115
S         7.85568988387709    2.27580062116012   17.06009609266086
P         8.85010238290126    5.50599122475195   17.42974067183408
P         9.37595934954407    2.45157522696191   14.01605569972159
O         9.39872642241551    5.51522519665237   14.37637031923729
N         7.22788175233511    4.34428933384457   15.10031750081667
N         6.16452194370426    3.67685646417480   15.51346466770842
N         5.25240091139971    2.07305612392177   16.84568678132260
H         4.37481760425243    2.20852903823819   16.37526527994657
H         5.39262007036878    1.25834456566387   17.41632614932417
C         8.32763387546120    5.91322199721674   13.83115147363300
C         7.07766754034274    5.32975111154756   14.18480801596456
C         5.85762576097995    5.80739049026466   13.57641533997060
C         4.59696569936340    5.30116782880126   13.92658038803211
H         4.54328187543747    4.53010562624615   14.67500963726610
C         3.44348207227820    5.76901768977753   13.34309008987297
H         2.48799661516200    5.35877049491254   13.63618169918485
C         3.50845510289281    6.76914787498928   12.38197856604969
H         2.60667173246416    7.14308543708802   11.91969500651762
C         4.73230105445846    7.28545670357773   12.02415940599630
H         4.75697120577359    8.06638280952421   11.28131630103531
C         5.92701139251613    6.83232336959432   12.59656552320292
C         7.20525572801791    7.39947849182262   12.20451363611985
C         7.34285694719235    8.38963957785074   11.22165589218374
H         6.47601191451181    8.76660868060258   10.70298612284031
C         8.57425844530087    8.90625739027602   10.88582505299234
H         8.64156565131394    9.66810774663494   10.12259900895397
C         9.73060300581313    8.45797218285674   11.51791313976048
H        10.69148825402505    8.86991774747902   11.24902990404243
C         9.63215082536750    7.48575083375357   12.48232313185521
H        10.50327346108351    7.10601795671158   12.99433751351832
C         8.38511513618668    6.95262306653404   12.82766471621269
C         6.34081418657175    2.72888812655476   16.39678565344086
C         9.47916969663758    5.13108941757825   19.09491015855372
C         9.92781793690789    3.85445380201924   19.40922196665511
H         9.92814261339561    3.08250040188495   18.65165062586895
C        10.38505921086733    3.57894106875800   20.68607368726559
H        10.73608581633037    2.58636257962443   20.92599541502425
C        10.39652340608031    4.57239680713640   21.64969584415649
H        10.75697645309299    4.35745755567025   22.64518918311772
C         9.94913949713902    5.84717682211063   21.33787415597710
H         9.95979167112982    6.62367789947618   22.08922829408492
C         9.49171329571697    6.12961505093804   20.06538476227320
H         9.14727236206594    7.12461821614618   19.82093025382770
C         7.09391569146603    5.86941946364099   17.72978935610467
C         6.39315157179526    5.12428988703860   18.67367925410679
H         6.93231115159808    4.44873337015623   19.32512327579210
C         5.01795358913559    5.23823972516623   18.76529383165175
H         4.48016169910846    4.65654598542326   19.49986914016039
C         4.33150367484459    6.08214695145263   17.90822834517076
H         3.25620832742588    6.16107401216433   17.97294123559045
C         5.02217294523622    6.81992642211509   16.96013369547265
H         4.48841721878461    7.46927497786206   16.28139324354263
C         6.39647655964013    6.71286195696039   16.86604580026048
H         6.93388027800926    7.27808165071828   16.11465532433338
C         9.61228189282362    7.11807086159588   17.07258566963848
C         9.05244765900840    8.33276394143141   17.45786245891447
H         8.11205257623087    8.35769274225495   17.99243766139249
C         9.69590221409420    9.51690307796585   17.14554343504591
H         9.25608501219271   10.45843811477844   17.44252913640005
C        10.89567673081549    9.49872883226046   16.45352413874286
H        11.38830111044537   10.42802067411685   16.20656408508203
C        11.46273299655348    8.29054722588959   16.08276850850715
H        12.40257014159464    8.27481424265804   15.55058671719132
C        10.82738854387132    7.10242563513600   16.39280446752068
H        11.26496519948636    6.15334192280996   16.11098817616555
C        10.28657403160976    3.11992414553149   12.59051297286549
C        11.35496427708184    3.96877684786677   12.86785555568895
H        11.60438507103770    4.18769719015685   13.89808438205136
C        12.08438789831911    4.52466277673682   11.83323166740534
H        12.90882448299755    5.18738706039635   12.05198837003729
C        11.75897790874067    4.23321165033279   10.51883403469394
H        12.32359371068871    4.67287017237171    9.70943815867211
C        10.71036117688558    3.37229747399044   10.24017149435200
H        10.46155203399990    3.13537642278367    9.21549816627278
C         9.97409472748144    2.81320199396824   11.26932772541381
H         9.15359067104923    2.14584213384722   11.04114345486071
C         7.77121028629236    1.92063952708424   13.34339371401156
C         7.05578965956980    2.75926740170112   12.48956080750766
H         7.52520001500690    3.65001781582382   12.09114392226652
C         5.74714856560239    2.46273008884226   12.16012448192609
H         5.19696856565284    3.12402367845282   11.50663158743150
C         5.13880891708025    1.33203917775340   12.68114881257378
H         4.11312421231858    1.10704136862261   12.42787831408805
C         5.84321625039316    0.49558470830101   13.53115963706198
H         5.36928640355207   -0.38491141844948   13.94123096281497
C         7.15115719176056    0.79110050628005   13.86993064609969
H         7.69855926535435    0.15416545788314   14.55281879161823
C        10.22596039169069    0.87369244963632   14.32698576164926
C        10.58271841139786    0.06124672322667   13.25385638290116
H        10.37385010882057    0.38001671021013   12.24235144874887
C        11.20853304727189   -1.14854759277820   13.48473452211812
H        11.48687582217375   -1.77674498344011   12.65089164177918
C        11.48300543184933   -1.55396486611118   14.78186428346644
H        11.97705988652773   -2.49859455789633   14.95698652872792
C        11.12854542841121   -0.74770927252827   15.84965506823442
H        11.34409502360355   -1.06019584426452   16.86048252607188
C        10.50060311349755    0.46507100258766   15.62615530895493
H        10.23174334724992    1.10132472405138   16.45833871410103

