107
CSD_code = ADUMER | q = 0 | S = 0 | Stoichiometry = C52H48Cl2N2P2Ru | MND = 6
C         6.18295588366142   11.27470445528400    0.93409680700626
C         6.37198636248905   12.34297311381926    0.05426030996491
H         7.33965794563566   12.81797988769937   -0.02363305410659
C         5.33758927826686   12.79143369639074   -0.74788436209070
H         5.50290328502642   13.62702260550429   -1.41298453855927
C         4.10141341156466   12.16942933245833   -0.70837000283162
H         3.29503043198381   12.51978683048278   -1.33556135232565
C         3.91338856491093   11.08352306882942    0.12951801551828
H         2.95946843588337   10.57685581017126    0.15359674053254
C         4.94297196558814   10.63552579689053    0.93777873627108
H         4.77953461289968    9.77819163802642    1.57393094860411
C         6.59564407489676    9.62200161175792    3.13291473432093
C         5.78568433895121   10.34573921631563    4.00722556054501
H         5.76469402552597   11.42639597144894    3.94479143969489
C         5.01704970006742    9.68751381916495    4.94556674948604
H         4.39186486965648   10.25299895500563    5.62198148379396
C         5.04682390791823    8.30287399011277    5.01980531779126
H         4.44708556499843    7.79021715609250    5.75799704107114
C         5.84013573192203    7.58172895713849    4.14593667536674
H         5.86042845469744    6.50299367182875    4.19644487927880
C         6.61116952596481    8.23667366023274    3.20015181616816
H         7.22585769408252    7.67368273288718    2.51402170387638
C         8.20368701107151   11.86652903889181    3.01329021583948
C         8.06317452643070   13.22416446733914    2.75292071781368
H         7.48651827017095   13.55291992535575    1.90375249663807
C         8.64438978154239   14.16987010118884    3.57790636483285
H         8.53506830307457   15.21943643605812    3.34759743012273
C         9.35596314759608   13.77057902485737    4.69494511778051
H         9.81208346158848   14.50355716666169    5.34384271900818
C         9.46528315759758   12.42491868274711    4.98905514287462
H         9.99936685049344   12.10435728053958    5.87237786865239
C         8.91936518058824   11.45996054571168    4.14931234986401
C         9.00077515328688   10.04520829996141    4.57271203259504
C         8.36559883026746    9.71246679761152    5.76574754671699
H         7.84382533216550   10.48745965774758    6.30947446245003
C         8.37062320771839    8.41605181352962    6.24153739160866
H         7.85710533339753    8.17517498303253    7.16040376187031
C         9.04110162716610    7.43489470098964    5.53361532358046
H         9.05332173471395    6.41616218862983    5.89217912887690
C         9.71768930890888    7.75969156385529    4.37214072348342
H        10.26635321836983    6.98874122994083    3.85483548597494
C         9.71247330642687    9.05836404534217    3.87537297271234
C        11.63771848618608   10.86687893059112    3.17887594708825
C        12.16434821279715   10.61818017838582    4.44695602140984
H        11.98758495947595    9.66239269682601    4.92255397672838
C        12.90682058747935   11.58429651817150    5.09516837631778
H        13.30921953211154   11.38277378395862    6.07800455804858
C        13.13270182735871   12.81174564042291    4.48999852584416
H        13.70588397949277   13.56963788797905    5.00431173690351
C        12.62452504652783   13.05905274739098    3.22825438308014
H        12.79885469517484   14.01162671096322    2.74975406587444
C        11.88591343752045   12.08868213085200    2.57143836104112
H        11.48323276907231   12.29428255675812    1.59290358339273
C        11.91272592191309    8.23854154423420    2.25412375205467
C        13.27177228732425    8.48722531880930    2.42731847572175
H        13.61841824819389    9.48485530613079    2.65612961184658
C        14.19251223860640    7.46044017212215    2.30723289259451
H        15.24333881513836    7.66896107571425    2.44812910024169
C        13.77416251712464    6.17466356211285    2.00964353402305
H        14.49576144013706    5.37517191743177    1.92683337613388
C        12.42805796133441    5.92398949094087    1.80041959945070
H        12.09430840626959    4.92938538571152    1.54260242281025
C        11.50491977295403    6.94936931552215    1.90677551084236
H        10.46236705620363    6.76193547991790    1.68653123097917
C        12.04959180574791   10.11222411587450   -0.82552730620288
H        12.76682632271304    9.96849943754530   -1.64281142033884
H        12.50148377851015    9.75835468368030    0.10273205962706
H        11.83337552079016   11.17481255502262   -0.72395422426934
C        11.17515149909150    7.96177585519749   -1.24408845490939
H        11.85098987337670    7.82808260733175   -2.09620283778797
H        10.29069123163299    7.34223652634215   -1.37605736614927
H        11.68295570574156    7.61967299953859   -0.34431281192933
C        10.15185990071631    9.92148597162177   -2.29225094832562
H        10.10101774246441   11.00558023903464   -2.12079245032485
C        10.90471138808307    9.70530306413517   -3.58553914225304
C        11.69343340172936   10.73730291907203   -4.08225490793405
H        11.76033388550553   11.66676891576109   -3.53483919000295
C        12.38665737972992   10.59260884936174   -5.27032031601098
H        12.99462695589898   11.40539227612664   -5.63929606652732
C        12.29630664101895    9.41167755934750   -5.98604458668800
H        12.83341324542444    9.29675430986420   -6.91570609117235
C        11.50853146564279    8.38044344510623   -5.50538717754062
H        11.42863397909054    7.45712388474320   -6.06006580596924
C        10.81815644881975    8.52465984548634   -4.31516748108641
H        10.20758974343779    7.70807363871247   -3.96262637586117
C         8.69588545807907    9.41811483116057   -2.37742957376161
H         8.66740034659207    8.32376436819177   -2.32463601328543
C         8.04014613132279    9.87988987476039   -3.65948393885247
C         7.51350502405923    8.96127340744313   -4.55650226725101
H         7.57066187388821    7.90450416357816   -4.33727250179905
C         6.91276403061153    9.38714683420939   -5.72783067149253
H         6.50913427947233    8.66173274225054   -6.41849048547041
C         6.82794325141612   10.73871835903013   -6.01185254227898
H         6.36127609204909   11.07203282908122   -6.92671253373314
C         7.34062945960237   11.66233892558234   -5.11685182484202
H         7.27392340451886   12.71858622088093   -5.33141780729058
C         7.94135254404416   11.23678972854991   -3.94670089541364
H         8.34003100763037   11.96996855745275   -3.25960782535910
Cl        9.66486525787816   12.16026101771129    0.07267551667895
Cl        8.51319051412955    7.55555223903326    0.49621182165274
N         7.99152671638851    9.93316308516377   -1.19876300095853
H         7.11783471910532    9.41785961410642   -1.06069540592430
H         7.75143925245148   10.91762508211388   -1.35141097717688
N        10.81174602384319    9.36900699117830   -1.07643745053847
P         7.57252470979732   10.55987254278650    1.90090989317107
P        10.64079115800485    9.55543464966954    2.37006075374865
Ru        9.26843782237445    9.81898795873421    0.53748668673003

