81
CSD_code = ADUMOC | q = 0 | S = 0 | Stoichiometry = C22H48N6O4Pd | MND = 4
Pd        4.24436166359512    4.40153918949411   -0.00039219294443
O         4.85587701519651    4.69855293508043    1.95750410902493
O         6.64466137952094    5.44401527678446    0.90646429908965
N         3.73022634545611    7.14250218683722   -1.78048598769600
N         1.42560841624431    7.10286328648661   -1.45452230387197
N         2.86811493443831    6.00203125467718    0.05016592936061
C         3.72568523796755    6.95493444833414   -3.21758586256335
H         2.71223457320276    6.83708479709213   -3.58801051765933
H         4.28839498443498    6.05170517091822   -3.47621955349616
H         4.18780419736250    7.81749014107307   -3.70247951053216
C         5.06160975110717    7.07924091561521   -1.21599340098378
H         5.02497026739421    7.36562581092470   -0.16342889842337
H         5.69292108724608    7.78532473157683   -1.75740090480482
H         5.50451251476411    6.06556061143135   -1.29374725047516
C         1.24552595985663    8.38725531056420   -2.08493960277562
H         2.13557842666373    8.99357046312300   -1.94125145355695
H         0.39391954472944    8.89056315670684   -1.61624269135879
H         1.03571930464830    8.30582019637778   -3.15804697770465
C         0.31303635078655    6.19394874146310   -1.60860634518765
H         0.56759405689810    5.21542916501593   -1.21102014004155
H         0.06690202143234    6.08139447037654   -2.67198385845229
H        -0.57347491607802    6.57664061711640   -1.09408567389112
C         2.67267387181156    6.66960424694563   -1.04314161261299
C         1.81391928682848    5.88269082325463    1.04124058972290
H         1.49127785315148    4.83436096766749    1.09595854611642
H         0.95531367752478    6.50636807847936    0.76755675241432
C         2.31096168246401    6.33800258939672    2.41701053947027
H         3.19667463940907    5.76119614346547    2.68226259999109
H         2.59674606852634    7.39192442982551    2.35978345059839
C         1.23832373707729    6.15391328465597    3.48641632700349
H         0.94279658760356    5.10312330766402    3.52148987074596
H         0.35238356639538    6.73792713096144    3.22311218444870
C         1.73880047850380    6.58448671155335    4.85991677606816
H         2.61657685060120    6.00656424841170    5.13993894622431
H         0.97086740503164    6.43405096915124    5.61563351048589
H         2.01236609720876    7.63746690466974    4.85365366016855
C         6.00351595434308    5.22657345501571    1.93807794158335
C         6.59051791007712    5.59387921485331    3.30099575869603
H         7.66135230454578    5.75213110710181    3.21401126743326
H         6.37790494613912    4.81090818137634    4.02450798853038
H         6.12014425253916    6.51383069070057    3.64235810111304
O         3.63231916124170    4.10502322850136   -1.95855060828498
O         1.84439049840099    3.35899509237037   -0.90652963322664
N         4.75956074572894    1.66043921478237    1.78063585949635
N         7.06386916006111    1.70186157619407    1.45539833772145
N         5.62108151674240    2.80134855429865   -0.05024281068011
C         4.76393861951107    1.84971701027794    3.21755234926904
H         5.77735340458839    1.96915385693427    3.58760866133592
H         4.20024855536976    2.75262895975274    3.47512621201541
H         4.30292651232254    0.98720433481155    3.70354324940309
C         3.42817935233316    1.72220136236878    1.21592297892939
H         3.46511377907631    1.43434886240526    0.16376995329815
H         2.79731241838291    1.01643161864537    1.75828150405739
H         2.98460753949506    2.73570099712174    1.29223101644860
C         7.24437508583451    0.41698048154924    2.08472287600124
H         6.35405390881434   -0.18906067007440    1.94164766973955
H         8.09540093201218   -0.08618877493566    1.61479162015729
H         7.45531479628138    0.49787857751056    3.15762593596153
C         8.17685198656397    2.61023889530195    1.60920252643600
H         7.92280573242076    3.58895336260429    1.21178087628442
H         8.42322548815750    2.72245553264517    2.67258036051748
H         9.06311470527252    2.22709160112869    1.09456151387728
C         5.81682475621345    2.13429074497051    1.04326494319513
C         6.67552156458087    2.92075101979412   -1.04104685726577
H         6.99890396001235    3.96885259317741   -1.09524648865824
H         7.53367818994647    2.29643370277354   -0.76737260447069
C         6.17816101243680    2.46624120935138   -2.41693098761462
H         5.29300935396481    3.04399430340752   -2.68201689738701
H         5.89120392447328    1.41263440597601   -2.35976823953293
C         7.25082725948796    2.64920301912167   -3.48647151465802
H         7.54750217453795    3.69966899342571   -3.52161273925457
H         8.13617100425317    2.06421007172963   -3.22332007622767
C         6.74956892206792    2.21911793477145   -4.85984258880190
H         5.87198077830497    2.79756383688005   -5.13939721079058
H         7.51727429294009    2.36923870366396   -5.61585548542179
H         6.47540784910407    1.16628487967496   -4.85361832221786
C         2.48486245857378    3.57662706282909   -1.93852649741340
C         1.89726326589511    3.20912740913507   -3.30115827501114
H         0.82641620027914    3.05113856446739   -3.21378526740969
H         2.10977578589024    3.99185916349916   -4.02498771952137
H         2.36730306177123    2.28896334493667   -3.64244202955645

