71
CSD_code = ADUMET | q = 0 | S = 0 | Stoichiometry = C34H32BrFNPPt | MND = 6
C         4.40597537035809   -0.34097626601579   13.21503005108235
H         4.84485679828142   -1.31382422601938   13.43756963621634
H         5.14842242716723    0.24296633185049   12.66734744592134
H         3.53637883326838   -0.49140203305562   12.56814713276484
C         5.51454334325716   -0.11210278230393   15.85099615477573
H         5.65588118649478    0.42308789800478   16.79364980540048
H         6.39243517365369    0.05725072242174   15.22626983392305
H         5.44010949932412   -1.17832219110853   16.06568648327611
C         1.70322102433147    1.98129924761067   12.09029624611778
C         0.46810162546619    2.09757829434253   11.45666353857901
H        -0.44236575997080    1.91220252284330   12.01025929811231
C         0.40853190159592    2.44621321337354   10.12176735894631
H        -0.55072880324229    2.53043449335164    9.63188911484162
C         1.57489431827279    2.69467889974664    9.41362936492429
H         1.52272814099486    2.96857785989054    8.37024332014242
C         2.80165103689209    2.60054724336851   10.04661960077422
H         3.71120648043575    2.80578981745160    9.50248801026841
C         2.86863644515277    2.24740385213313   11.38367115796720
H         3.82678532661359    2.19042719123240   11.87751867275329
C         0.48059583877366    0.33640868094512   14.08155580789078
C        -0.16535841980480    0.20065735942142   15.30898613572568
H         0.02570311221071    0.91484726452229   16.09984315480790
C        -1.04473979062966   -0.84290169887558   15.52505204553420
H        -1.54736063857145   -0.93211536235860   16.47706552166462
C        -1.27301202359871   -1.77643174640263   14.52749229500445
H        -1.95813487058137   -2.59312104695229   14.69870986546020
C        -0.61319792310806   -1.66494514743018   13.31529486544675
H        -0.77914192549167   -2.39815744328292   12.53972207873401
C         0.26377407186734   -0.61920617170324   13.09370046219193
H         0.78309727900667   -0.54017513125126   12.14838642370824
C         0.99209446087344    3.15490511489366   14.44539462621111
C        -0.36235845798599    3.28421938456462   14.73388121798427
H        -1.02521681962393    2.43454413264440   14.65562450477302
C        -0.87215965088780    4.51119835916084   15.12150058707656
H        -1.92443187388582    4.60071158359921   15.35031678676683
C        -0.04432637569014    5.61790983678698   15.21451254205454
H        -0.44782777736132    6.56976706406107   15.52610826199183
C         1.29852601339114    5.50131420680377   14.89566237778370
H         1.94765998775454    6.36234037371811   14.94883069196066
C         1.81454552050637    4.27849970016066   14.50712858213196
H         2.85926297190984    4.19740683404969   14.23910789357246
C         2.79453230335146   -0.89995884383616   15.69643763214796
C         2.52795237988601   -2.15060750513285   15.16240366516840
H         2.89310261309962   -2.41448279331740   14.18174758517418
C         1.78379731772719   -3.08468946465758   15.86630241270870
H         1.58480419713157   -4.05066221017158   15.42673339955866
C         1.29128877967748   -2.79823831516399   17.12974942449915
H         0.71477568278969   -3.51606354530253   17.69088758590999
C         1.55122676926825   -1.55665500646359   17.66542173981080
C         2.29037410929691   -0.59413910818444   16.97490114373543
C         2.52209305026689    0.71861010660053   17.52601076344132
H         2.13667269571170    0.94065136075672   18.52145216170108
C         3.43588664568522    2.90864639059211   17.34044222799305
H         3.27757435171491    3.60945174206259   16.51277340934037
H         4.50548615999659    2.94223606638155   17.58293026700766
C         2.60912785064546    3.32390182913360   18.52590742110674
C         1.27890745107345    3.68528042884743   18.34274897303109
H         0.85826532243162    3.68468607424212   17.34691450997034
C         0.49734536179632    4.04927621818193   19.42365704038752
H        -0.53408511243243    4.33029377511298   19.26922459974465
C         1.03661185178495    4.05493835661061   20.69954224946871
H         0.42618024734361    4.33900877409287   21.54371719397963
C         2.35981143955375    3.69608681060970   20.88971177159074
H         2.78471179046642    3.69943856438921   21.88254208549016
C         3.14176323783308    3.32890682548121   19.80801588878413
H         4.17443954428895    3.04764374522865   19.95988658392447
N         3.15367679612346    1.58498388276135   16.83693176231724
F         1.06131186311301   -1.25411516848004   18.88945654211470
P         1.77209130710980    1.60077797614669   13.87601689511568
Pt        3.82523022202793    0.67141839555751   14.93311026604430
Br        5.16898669375853    2.74896840163021   14.31670384367538

