131
CSD_code = ADUMIV | q = 0 | S = 0 | Stoichiometry = C60H64Cl2N2P2Ru | MND = 6
C         7.65747992339032   16.41773892656097   11.18196759307769
Cl        5.19143083198296   13.73737430109818   11.90786921738039
N         6.78863464412894   11.93278374753358   14.05281986253816
P         7.99261939844962   14.69869750404293   10.62984150320607
C         6.40467277337456   16.79041299492393   11.67348778608871
H         5.58100793220112   16.09114774169849   11.64044498409959
Cl        9.76044079797361   13.05853947270999   13.09471639925465
N         7.40724152360931   14.72006584287867   13.77609692305300
H         8.26506555466764   15.27834488917514   13.79281436766102
H         6.63882704154244   15.34388770862370   13.51122096666475
P         7.73870154151252   11.44970442865750   10.75389968364619
Ru        7.51819080614530   13.16779057174329   12.28042107078779
C         6.19520579094705   18.04069140971411   12.23418676128598
C         7.25818123099427   18.93249723736515   12.31009876298135
H         7.10084437908379   19.90878967532859   12.74766648340642
C         8.51802776446905   18.58097186164889   11.85035474003517
C         8.71066790649683   17.31991657644108   11.30040032248378
H         9.69926981830771   17.04288660533400   10.96501713238610
C         9.57051846571353   14.98517490162340    9.75108559990433
C        10.77102992418002   14.44997065670345   10.18987433817651
H        10.78834727326920   13.83245057062834   11.07510391724717
C        11.94576177678957   14.69835477218358    9.49396662524546
C        11.89947775613435   15.49801476476676    8.36048583142976
H        12.81198906523109   15.69166071270877    7.81246278611204
C        10.70772146651413   16.05525325138637    7.91419791653815
C         9.54430752973871   15.79452586659062    8.61876163257278
H         8.60489678687581   16.21878307103195    8.28697631431113
C         6.93920987773858   14.36472623306369    9.17381240334205
C         5.74275681930666   15.02905098515388    8.93352281636234
H         5.44120778182231   15.84150817497442    9.57477434352704
C         4.93211147303132   14.67047215037088    7.87188148145291
H         3.99778279575874   15.18906409793149    7.71316845063485
C         5.32157949496637   13.65638569596879    7.01534849427878
H         4.69373986553831   13.37176870870431    6.18382666596644
C         6.53012799763832   13.01798361462716    7.21812819903286
H         6.85220708036747   12.23871569398915    6.54203570785671
C         7.33754050123803   13.33892258957397    8.30397827615953
C         8.65053215070367   12.66765204748477    8.41588885662885
C         9.55430247001586   12.87895383233099    7.37896648519766
H         9.26531050490367   13.52415473954448    6.56127076441849
C        10.80936045308625   12.30303510776241    7.39572263277046
H        11.50215591291862   12.49362879212931    6.58928598110940
C        11.16522255788944   11.47922084127192    8.44827997051100
H        12.14207433006585   11.01849882259232    8.47433332440384
C        10.26163443616775   11.22393188278951    9.46340650026316
H        10.54292487239534   10.55019747631714   10.25724831465583
C         8.99930879303080   11.80627802533209    9.46606437596941
C         6.44949128149570   10.85057958087769    9.59648451719443
C         5.11997544400045   11.21222211412242    9.72577333257196
H         4.81475798285762   11.85787407840836   10.53273292960307
C         4.17385777906353   10.78689699937417    8.80107699581041
C         4.57734532051421    9.96862080273628    7.75849117420568
H         3.85041458008023    9.63492068880728    7.03002633742338
C         5.90373604091952    9.57049258503644    7.62441340288535
C         6.83369577723175   10.01877530027263    8.54530990194959
H         7.87084579205174    9.72592489469348    8.44634569206628
C         8.31801977700116    9.84664058642676   11.42566543998728
C         7.60068200876481    8.66417358834564   11.27254490258737
H         6.67335097670838    8.66071060218042   10.71736317638217
C         8.06158004451512    7.47959163326564   11.82870532933358
C         9.24808858167870    7.48689152575473   12.55086262449600
H         9.61125317201492    6.56358025444044   12.98139490893866
C         9.96338102270131    8.66040082571992   12.74651974692968
C         9.48379453290310    9.83727745728171   12.18828352145887
H        10.00209415201552   10.76817582301591   12.37623045823702
C         5.74555254891150   10.99570182490362   13.62724224733063
H         5.32396938458284   10.45945342444029   14.48651615821880
H         6.17425252999658   10.26781264072581   12.93661667680627
H         4.94731016369856   11.53206129375667   13.11598366935678
C         7.81261619155888   11.15782139376552   14.75293123778218
H         7.39155888742698   10.64377825063347   15.62461710484599
H         8.63809684424622   11.79418497865932   15.06460226481390
H         8.21451636977760   10.41032972717426   14.07101154139264
C         6.17706047245320   12.97091064797617   14.92786153827728
H         5.31549249938293   13.34872977796365   14.36103857646988
C         5.65659402582249   12.46754208769966   16.25547753559630
C         4.29602395319636   12.21174639418664   16.38758619285656
H         3.64131921708540   12.36831750504411   15.54210577362735
C         3.76937251842946   11.76734191444022   17.58676585288871
H         2.70990790469270   11.57422516164627   17.66900728300930
C         4.59737865940141   11.57589090052244   18.67892783277603
H         4.18927858056653   11.23168784812284   19.61759065801030
C         5.95188774819281   11.83370455397404   18.56179496968300
H         6.60482159259194   11.69102972521083   19.41041607386750
C         6.47799710456863   12.27632128608876   17.36119336382484
H         7.53674423667963   12.47386854593298   17.29693012081383
C         7.14269697983734   14.16194426419071   15.10601262009315
H         8.09790562779534   13.81890247055017   15.51915815243150
C         6.53110948260554   15.19666134977593   16.02453487733987
C         5.33445474255519   15.81455935172242   15.67707898116668
H         4.83225942646273   15.55227343173017   14.75650042848321
C         4.76941304253967   16.76346552677028   16.50840923792192
H         3.83689759176688   17.23243299915218   16.23041523467913
C         5.39337475165249   17.10923690105304   17.69515688322300
H         4.95057674025079   17.84953945803535   18.34477368604264
C         6.58745168418322   16.50363120018641   18.04430436723612
H         7.08135598238658   16.77159499750037   18.96655130804425
C         7.15352889739446   15.55416636772325   17.21184731585103
H         8.08922581056498   15.08954704339963   17.48834979230499
C         4.85020482036327   18.41806136972948   12.77905219153399
H         4.12537819208535   17.62692936963489   12.60381238051175
H         4.49015103428299   19.33198727073270   12.30874427119924
H         4.91706730652550   18.59899518656914   13.85212796598600
C         9.66364630621534   19.54448761235246   11.93094630249226
H         9.49252164222942   20.29109766346546   12.70294519135334
H         9.78104218117734   20.06126638586326   10.97790709801409
H        10.59301798002660   19.02013719997039   12.14242544982348
C        13.24466070199745   14.10740656187232    9.95114230183952
H        13.98472793584709   14.88954692678872   10.11717817765819
H        13.63773294924041   13.43163667024903    9.19241026985734
H        13.10640755100839   13.55232808784053   10.87473110592690
C        10.67993233503048   16.93872669343743    6.70226555575385
H        11.50312267314956   16.70370069246958    6.03142626861061
H        10.77337159180472   17.98391543742266    6.99961588957993
H         9.74074812026769   16.82634781262016    6.16483748913738
C         2.74381795339145   11.20999677397609    8.94509178348870
H         2.25596676323626   11.27252426978022    7.97490798523501
H         2.68589843616480   12.17748728568366    9.43754040939693
H         2.19773892331219   10.48764337518402    9.55317266871383
C         6.31542571386729    8.66453087977156    6.50175989611364
H         5.75833770629148    8.89370738118191    5.59561296548534
H         6.11324373112487    7.62575661008113    6.76564484498003
H         7.37948925930177    8.76069328335074    6.29800920883974
C         7.29506992019455    6.20228808463531   11.65474206722993
H         6.35726513708336    6.38051101088176   11.13447547423353
H         7.07888643473865    5.75159311705327   12.62248832283596
H         7.88060405741086    5.48669985871590   11.07815696978779
C        11.23276966510280    8.66470544426190   13.54305292434566
H        11.46647429581606    9.67138092622081   13.88012482506314
H        12.06085089432231    8.30881495923475   12.92918988346241
H        11.15101145533673    8.00815163867133   14.40704434589035

