59
CSD_code = ADUNEU | q = 0 | S = 0 | Stoichiometry = C20H36NiP2 | MND = 4
Ni       -1.88814182571573    4.92192883500149   10.37411304849367
H        -0.68695433938396    4.20336352501591   10.91557815564826
P        -1.52431088296584    6.74604520371634   11.38077316227964
P        -2.60822047824699    3.30468259415477    9.21687721133502
C        -3.46418241559769    5.86555165887717    9.66176467636929
C        -3.87894285431635    7.10432629524215   10.17854144655521
C        -4.98522477788654    7.77055731387731    9.67055698364789
H        -5.27502781021637    8.72458389014618   10.09236776812540
C        -5.71801714439821    7.22208311781378    8.63468776830645
H        -6.58037864823985    7.74146034256146    8.24147923718102
C        -5.33702454470288    6.00249591848934    8.10735240606336
H        -5.90336959288669    5.56314111908626    7.29598876389998
C        -4.22841576513347    5.33521947259772    8.60910294760781
C        -3.80685588074720    4.01859509223551    8.01453138895913
H        -3.29668996466422    4.18995246856165    7.06037775533399
H        -4.65400290143773    3.34908355134296    7.83380929521230
C        -3.10137882115868    7.69554198745207   11.32322652701024
H        -3.64690477676086    7.53886492747703   12.26020503816792
H        -2.92867747536409    8.76997285709489   11.20382828463059
C        -0.34130083616330    7.84869750521975   10.47267795896665
H        -0.46024228492969    8.88167828970712   10.82297528089902
C        -0.71522813759548    7.75605344663726    8.99549738062983
H        -0.00067037328423    8.29621614809425    8.37554471859031
H        -1.70942688659986    8.16135117264640    8.81396762251994
H        -0.71592163027984    6.70368096104097    8.69311847480755
C         1.09243232020697    7.37844418536097   10.69143560200057
H         1.15701796105893    6.30818972585595   10.49425004638590
H         1.42242612307371    7.56625798792481   11.71076727264909
H         1.76901027552521    7.89778250353152   10.01405480990721
C        -0.99996112929232    6.80247478458678   13.16131846372144
H         0.02907169999486    6.42497939658053   13.17469712096294
C        -1.04011420578814    8.19560026373826   13.77659149091805
H        -2.05245812092162    8.59398923634946   13.77639966557509
H        -0.39679237676517    8.88462623437040   13.23351547214348
H        -0.69594796930263    8.15375155929268   14.80929174012720
C        -1.87240611532320    5.80837288365300   13.92329000317728
H        -1.49182511562006    5.64632554270296   14.93014709904041
H        -1.87669801939584    4.85353424727253   13.39209290745197
H        -2.89876483997397    6.16408172246402   13.99988356696316
C        -3.65219984250953    2.12697526525531   10.19829226706128
H        -4.27497631948796    1.53375183898417    9.51701642491890
C        -4.53954773820912    2.98335054592397   11.09799533009761
H        -5.11606240315608    2.36374521116278   11.78388868823851
H        -5.22969131833209    3.58780709746459   10.51156286160594
H        -3.90755544666232    3.65909666812368   11.68338176715797
C        -2.76641896925083    1.21206956328010   11.03679976440120
H        -2.04172623122035    1.81338753402898   11.58614796114905
H        -2.22884047882798    0.49884034068992   10.41592897946619
H        -3.36821486117457    0.65374254531074   11.75259844291995
C        -1.48258272684717    2.24139086481298    8.19173196548432
H        -0.89536519767021    1.65979387810976    8.91184709098502
C        -2.21283200461146    1.29544643638355    7.24675356788123
H        -2.81032176369109    1.84820638238152    6.52494643130485
H        -2.86757067262097    0.62030085636467    7.79356515579161
H        -1.49128619607735    0.69398058065266    6.69514457716158
C        -0.52532265479379    3.17227185114023    7.45208500010742
H         0.28563405980864    2.61170190652433    6.99061571967758
H        -0.09898640569789    3.88628560210318    8.16072976831551
H        -1.04211226776950    3.72871706353223    6.67168967400758

