69
CSD_code = ADUNOE | q = 0 | S = 0 | Stoichiometry = C26H40NiP2 | MND = 4
Ni       14.29349037783241   11.68232361005263   15.27154327291876
P        12.96992716004230   10.12420828883785   15.86803557576203
P        15.89419748008218   12.95394086297520   14.63628355950245
C        15.64254115709642   10.24594402707602   15.18440260598918
C        15.38737393201651    8.96580041682059   15.70145948078062
C        16.33366574384021    7.95359446218542   15.62659859664847
H        16.10779871393955    6.97622844640542   16.03387169066287
C        17.56299490487414    8.18908408731430   15.03876895810911
H        18.29995730855532    7.40041564980100   14.98363434935906
C        17.84156276213978    9.44004636558840   14.51989750309650
H        18.80032247001537    9.63094755223359   14.05480464516585
C        16.89548472980051   10.45328166415162   14.58706511301603
C        17.18717071911916   11.80498406735503   13.99067061688934
H        17.09592700364649   11.74959121233060   12.90031250987336
H        18.19664151247150   12.15446143333055   14.23004659044571
C        14.05759524453041    8.71815274292337   16.36276999309738
H        14.17463099528875    8.73413719788945   17.45200035904743
H        13.62896859168937    7.74923077641017   16.09275213030240
C        12.08236266136750    9.52746501675466   14.34671527275477
H        11.31961018906686   10.29407604212910   14.16080072139143
C        11.40381195864905    8.16769589032303   14.46513512980117
H        10.80462792369553    7.98037601092103   13.57484586650919
H        10.74679199780624    8.11990941819098   15.33068707719357
H        12.13833585154884    7.36887517649523   14.54103993919662
C        13.08011568673781    9.55539493400954   13.19028574259006
H        13.82003385413628    8.76411397899465   13.30072576942223
H        13.61204199807788   10.51522335655602   13.18381642738262
H        12.57418817558376    9.42758338999248   12.23401747820869
C        11.67406107801423   10.10286797276491   17.20302934780706
H        11.44177505126702    9.05044266397683   17.41538195739303
C        10.40699890076058   10.84180962497685   16.78644977446918
H         9.73326144447278   10.93182785287971   17.63762678760510
H         9.87911293918569   10.31855941804506   15.99294130167113
H        10.65377163429053   11.84326054149557   16.43887146646509
C        12.26966243878054   10.74789481317089   18.45188238312674
H        12.45736114427066   11.80162691443138   18.25986896289801
H        13.21095435297498   10.27834772477392   18.73391726666497
H        11.58170039702640   10.66662988244739   19.29214609532797
C        15.83126630204998   14.31606381473628   13.37175717139513
H        15.21451721389463   15.10305018551052   13.82193819501532
C        15.10232069250385   13.79958655237591   12.13448653920112
H        14.91490447377230   14.61117883228064   11.43338331734280
H        14.14751244030873   13.36524908075580   12.42422361808881
H        15.68815317063746   13.03767020860085   11.62280606883816
C        17.20135066494710   14.88046885781544   13.01176891783507
H        17.81804954711637   14.12372230000266   12.53192818830690
H        17.72672483502878   15.24730760343284   13.89016247005130
H        17.08630153606380   15.71026006990305   12.31543260827116
C        16.74968813940722   13.71086284247189   16.10438572822489
H        17.81125795258181   13.85695610876686   15.86704647047654
C        16.12378060611368   15.04746701361087   16.49153712523848
H        15.04150624487671   14.95639027736586   16.54758498808149
H        16.36576144054362   15.82443831942270   15.77002541493177
H        16.49571738284275   15.36542309628281   17.46502064171242
C        16.62109973261868   12.69506544609825   17.23895679659996
H        16.96557205769832   13.11344448636940   18.18402050041378
H        17.20142997567030   11.79929513844875   17.02335590407743
H        15.56972958689662   12.39914920650078   17.34616856964914
C        12.91531739082336   13.04847702526246   15.33859117289712
C        12.05744948439221   13.24624702306987   14.24849955441361
H        12.15841338417712   12.63320411156194   13.35785871333150
C        11.05670059680243   14.20369934906963   14.26579146579280
H        10.41570154668651   14.32484654612108   13.40215573359680
C        10.87029933399730   14.99952286809124   15.38175407752615
H        10.08978636745614   15.74732672339304   15.39755497848179
C        11.69170312960422   14.82047025913617   16.47998705888923
H        11.55406066179019   15.43004109854188   17.36375693891597
C        12.69112080412900   13.86094772341221   16.45770172623165
H        13.30537281988117   13.74691434459997   17.34585702761191

