47
CSD_code = ADUPAS | q = 0 | S = 0 | Stoichiometry = C17H15F12IrP2 | MND = 7
Ir        4.10369963331411    4.48840038847387   11.83865361359266
C         3.81788122600795    2.95967856068024   10.47069772523277
P         3.89010391776482    5.66873155874540    9.87323397152643
P         2.35148825260519    3.34748972496225   12.76704549870801
C         4.63245207978268    6.01130013900065   13.67260105849911
H         4.46522937965193    5.29131518569199   14.45961866831598
H         4.19583375020927    6.98204546313095   13.84652961901189
C         5.64872152874890    5.89048798734986   12.76057184896492
H         5.99180952956511    6.77628033618683   12.23231032609826
C         6.23023971772009    4.62604837684243   12.35407753386501
C         5.74423763787000    3.44209010132831   12.93314802805076
H         5.43688988400354    3.42128661844163   13.97080054076577
H         6.18444216359842    2.51204730974393   12.59768998534011
C         7.38108439242452    4.61642052777782   11.38932061603144
H         7.39664328438951    3.69423370657935   10.81272086140254
H         7.34988728034195    5.46618478454482   10.71081864508124
H         8.31336920180621    4.67424147641145   11.95396500941369
C         3.26797150515971    1.73608309443021   10.86794876195425
C         3.15399272186328    0.68567222881817    9.97057929353186
H         2.72664531687640   -0.25128134909809   10.29547104679698
C         3.56545403616187    0.84281545466822    8.65909735893535
H         3.47908359438959    0.02354434558643    7.96280889067845
C         4.04198997387874    2.06852649364507    8.23170961036440
H         4.31050676074468    2.21409629919029    7.19575316068605
C         4.15795854205673    3.12409725702440    9.12456963274516
C         4.59742220778521    4.48951642835831    8.65055423806971
H         4.28094503117966    4.69217053916700    7.62284728671446
H         5.68840032444137    4.58215616362977    8.70509920578588
C         2.19206151566541    5.96603309010879    9.06663433160343
F         1.35538339083698    5.02113800389939    9.50945068146812
F         2.18179112077406    5.90911957765057    7.73105078064014
F         1.68830178071672    7.15153677761341    9.42081150103391
C         4.66591222535625    7.26639404058900    9.19104763858476
F         4.47369031483430    7.46432867569955    7.88475240083852
F         5.99760318897937    7.19012806428484    9.37901129250518
F         4.24630405269691    8.35315256032293    9.83945086356919
C         2.73820158072274    1.61566084919004   12.27770846058795
H         1.87354456380277    0.94795641306488   12.34006973607030
H         3.51605799572953    1.24717242588848   12.95593075292341
C         0.51152572962555    3.34212375155629   12.25889886135159
F         0.40847567688894    2.90753870969310   10.99958197442188
F        -0.02079710572324    4.56171126633478   12.32084758712146
F        -0.24878403332978    2.53140591040842   13.00823549096478
C         2.00326498000224    3.07500108958322   14.61707051769933
F         3.16397304934365    3.20075507885505   15.28423909898301
F         1.16295107269045    3.98193685402626   15.11516150902017
F         1.52835602604390    1.86252765991747   14.91490448445007

