69
CSD_code = ADUQEV | q = 0 | S = 0 | Stoichiometry = C26H28AgN3O9S2 | MND = 4
Ag        7.08972026117865    8.74632955312140    5.39994509857695
S         8.06322524642350    7.25195187994784    3.36087231754627
S         6.19871288137791    7.95153344704987    7.81221862140200
O         5.46233698282672    9.10642893540261    3.38018290842426
O         4.94426081295183   10.09425573393023    5.95258848656290
O         8.04696048734085   10.63446359985002    4.24375657750404
O         7.43608414196018   11.59049454133194    8.01152467597671
O         8.32640417253329   10.05601531324623    6.78262041008687
O         8.45768173887600   11.48858535743860    1.88034273126463
O         8.40477566521155   13.60199977481201    1.53518826557466
O         8.94980899889111   16.07175384314967    7.06697405773818
O         9.16995032779896   16.67653199267809    5.01432234348180
N         8.01326845847042   11.23161131208763    6.98930659628965
N         8.45594008170337   12.64103143967610    2.27861178357946
N         8.96515203849131   15.84447103387604    5.87405390495616
C         9.69950203014480    8.71136795389242    0.33287721483717
H         9.26555078661802    9.68378248390264    0.51235365949527
C        10.06744012381136    8.33362607348955   -0.94731998875199
H         9.91386541943084    9.01423732794111   -1.77152056394527
C        10.62903990005123    7.08821026208605   -1.17091844074636
H        10.91555187483050    6.79459000634037   -2.16994725727894
C        10.82364642845382    6.21842956599107   -0.10987262330655
H        11.26169430852025    5.24615092958380   -0.28129969032328
C        10.45964015439235    6.59403167939707    1.16978809044319
H        10.60211929232499    5.91718914976104    1.99984964452149
C         9.90055226012974    7.84590123825320    1.40189073935314
C         9.49217318738541    8.25141932378959    2.77847470251948
H         9.21336340676012    9.30100795880327    2.82423277515779
H        10.26930664036766    8.04040790464449    3.51285525460808
C         6.83412839157091    7.64582935574533    2.07228044532806
H         7.33831475113525    7.53514470387184    1.11242964741856
H         6.05992359885666    6.88645290034343    2.17353072030326
C         6.22559559295152    9.02950602507453    2.18539381662267
H         7.00639833206622    9.79760905111860    2.18108914993266
H         5.56223878612401    9.19848604019143    1.32273587968510
C         4.88604980447265   10.37761769139269    3.57525950636083
H         4.21561249576928   10.62039785680265    2.73754093311577
H         5.66691362995959   11.14439495555359    3.63846570537539
C         4.08174782877885   10.35098821189371    4.86618116109224
H         3.57475218411281   11.31639319504469    5.00645648087842
H         3.32300362497009    9.55679350327910    4.80010270223447
C         4.24812650355749    9.88870368573824    7.16402733144703
H         3.43862555426992    9.15893745792675    7.00156331320469
H         3.78663879237347   10.83271346447535    7.49239566292939
C         5.19163842486522    9.40680519805471    8.25397715255779
H         4.62442723484181    9.16486474279163    9.15219094544461
H         5.92904701723921   10.17721496843209    8.48667684463384
C         4.90640916941779    6.65095605716245    7.57101543269046
H         4.05193659983050    7.12100856992770    7.08863360993502
H         4.62929262717094    6.28890533150995    8.56056888123730
C         5.47521375699219    5.56593526823035    6.71853681970551
C         5.52826854412210    5.72296613716608    5.33696988640286
H         5.11933716631247    6.61846554346452    4.88095370442246
C         6.07202057916600    4.72838122878440    4.54340212227524
H         6.10524783142812    4.84847587395352    3.47152743785099
C         6.57493382591403    3.57511897452900    5.12146868537664
H         6.99987514137138    2.80152749677650    4.50015952014216
C         6.53196297489723    3.41695468113353    6.49585514891759
H         6.92439926929495    2.51979315691396    6.95066843950650
C         5.98684692895106    4.40877667245789    7.29140717984989
H         5.95568155148468    4.28643665883183    8.36409875102999
C         8.29154610583041   12.20418605976381    6.00522050146091
C         8.48414835893094   13.50593500093838    6.40158716875185
H         8.47433024814910   13.75775656735459    7.45318402231769
C         8.72097966238511   14.49897816454974    5.45282160366146
C         8.71950797711735   14.18371466998745    4.09987621393174
H         8.90049263282122   14.95790072362783    3.36612898708006
C         8.49047047236017   12.88941542152508    3.68226099377543
C         8.27808791891137   11.79574911815581    4.61020519557448

