24
CSD_code = ADUREY | q = -1 | S = 0 | Stoichiometry = C9H5Cl3N3O3Os(1-) | MND = 6
C         8.28472949083276   10.61124691504792    3.04518088625040
C         7.48730897153604   11.75724491362610    3.26340867818463
H         6.79796656595940   11.74862816229795    4.09285456984340
C         7.59144726898756   12.84384855228365    2.44099603347953
H         6.97480786318880   13.71342975948436    2.61902488067606
C         8.47132529639445   12.90318301774875    1.35134591175380
C         9.31260988394312   11.78722621545158    1.06771928723139
C         9.20594395008168   10.65783725320924    1.91823337870954
C        10.25203190741493   11.68601892405164    0.02153306478909
H        10.38083064788807   12.51300722245005   -0.65770633966212
C        10.99186207469067   10.53749382980831   -0.12136614467754
H        11.71454582796734   10.44482253335767   -0.91656045955343
C        10.81386604629497    9.47713416776881    0.76492674110763
H        11.37493890360790    8.55557801698781    0.68679997879345
Cl       11.02720980835726    8.99087753895892    4.68561065976153
Cl        7.77818621640717    7.22910935632059    1.95354978892203
Cl        9.02370128227834    6.47535664534732    4.82488408674628
N        10.77443114779503    7.01398487341311    2.39540712761274
N         9.94344471782476    9.54882987885303    1.75199183985237
N         8.46492687947207   14.08526600909666    0.59250374072867
O         8.24886682301149    9.57563007219209    3.74965692350914
O         7.70265249772079   14.98632394993135    0.93076601913618
O         9.20682885427280   14.19856945305802   -0.37998646869995
Os        9.61893707407137    7.89975273925656    3.19792581550530

