93
CSD_code = ADUSEZ | q = 0 | S = 0 | Stoichiometry = C50H38N2P2Pt | MND = 4
Pt        4.46053753653175   -0.00053760712189    7.64192156995033
P         3.08060601100151    1.46698494682373    8.71121774562507
N         8.89034301079010    5.32165768428568   10.09699983099769
C         2.36805587408947    2.48851198570300    7.39315077875991
C         2.91363553051302    2.37121749432791    6.11896260939444
H         3.74302396625775    1.67726441106418    5.96078814911736
C         2.40607610033635    3.12315545964891    5.07529970231827
H         2.82881109316675    3.03201650472111    4.08551456663311
C         1.35159021301168    3.99308787709721    5.30175151839851
H         0.95353002456603    4.58142084330743    4.48816920807128
C         0.80070417915323    4.10745224775162    6.56906202961797
H        -0.02442471057811    4.78344744406723    6.73978299852956
C         1.30302046539933    3.35605191324527    7.61558314686546
H         0.87138692298583    3.43410888396006    8.60465590045112
C         1.58709196309113    0.94951543924568    9.61732433968103
C         0.63415358043957    0.22709926296567    8.90243843702215
H         0.81675942201577   -0.00367471339971    7.86178263500280
C        -0.52279780303741   -0.20025571380218    9.52357176099792
H        -1.25661513062252   -0.76239150638705    8.96518732506369
C        -0.73853438168962    0.08956071628444   10.86212480895681
H        -1.64229003437856   -0.24577195413682   11.34905104065397
C         0.20592622809100    0.80800168861127   11.57535034208053
H         0.03816057010818    1.03615426611968   12.61794609256172
C         1.36867974810080    1.23807267584768   10.95901821209572
H         2.10105211391718    1.80118756505011   11.52049173192046
C         3.89056660399756    2.63490619275411    9.84548080999141
C         3.91305358427067    4.00902090226710    9.65610209358265
H         3.38307652948949    4.45133137438564    8.82452672573276
C         4.63408079749164    4.81123675580031   10.52501185421194
H         4.66049726383577    5.87980754151741   10.36978078858977
C         5.33234053012476    4.24999065348799   11.57952576564137
H         5.90445046033105    4.88016681116134   12.24381358306623
C         5.31615253309829    2.87631471207101   11.76912821031435
H         5.87124956857954    2.43651740208793   12.58473762512523
C         4.60425923240988    2.07208262675830   10.90211349033794
H         4.60740078509062    0.99389636557173   11.01812136894064
C         5.92406064168619    1.29878906978652    8.03129840963876
C         6.65232246048614    2.18722644740319    8.42430311139130
C         7.44552358707407    3.22695519988335    8.94830785392645
C         8.30558125308695    3.00756433902332   10.02960185820015
H         8.41495429836500    2.01621803949665   10.44499010970098
C         8.99251119281024    4.08287555613719   10.55631697256058
H         9.66258437277702    3.95521327694166   11.39827492623465
C         7.34790137624242    4.53168980293911    8.45379323193602
H         6.69723454607042    4.74859960640883    7.61922091232837
C         8.08579869258936    5.52609067694194    9.06387653252202
H         8.03252470119549    6.55043692857992    8.71454887593318
P         5.84185864851804   -1.46715628892753    6.57406897571807
N         0.03509160231481   -5.32371350121352    5.18132890141704
C         6.55349647561498   -2.48905482830252    7.89230757006091
C         6.00661566966228   -2.37261685641658    9.16601999273721
H         5.17705653692304   -1.67878283322602    9.32380900761134
C         6.51311797130182   -3.12526587146316   10.20969104616702
H         6.08932395339452   -3.03487608444618   11.19909215564787
C         7.56782000013847   -3.99505934973523    9.98372176639738
H         7.96492400107969   -4.58408495649363   10.79727290062655
C         8.12013110659129   -4.10842544652013    8.71693488914073
H         8.94551024111051   -4.78421375080462    8.54662515719377
C         7.61889481999794   -3.35630083041131    7.67041480621621
H         8.05171377736259   -3.43347284665650    6.68178878927498
C         7.33593731891642   -0.94843860884968    5.66962620239367
C         8.29010839463832   -0.22973772936378    6.38663332801555
H         8.10847099891557   -0.00261898252376    7.42825560455876
C         9.44723104584098    0.19849289519357    5.76641283069768
H        10.18213853300468    0.75752774420912    6.32647241503011
C         9.66188572527706   -0.08659960678992    4.42667682132393
H        10.56590429073285    0.24920285076002    3.94056385575291
C         8.71610541942663   -0.80115183889247    3.71128343417298
H         8.88295925049514   -1.02563115364255    2.66774104252044
C         7.55321234119947   -1.23211597228925    4.32670298280616
H         6.81977912767892   -1.79211524292219    3.76351384707173
C         5.03342421868151   -2.63459019976939    5.43832381061108
C         5.01264902753501   -4.00901902232394    5.62548221155557
H         5.54308661083866   -4.45202045418769    6.45639621447253
C         4.29277605413315   -4.81068501403179    4.75509364768229
H         4.26765523109584   -5.87954233137992    4.90854508857358
C         3.59407008697605   -4.24857419077751    3.70134022550056
H         3.02292617070765   -4.87837397282889    3.03586909213408
C         3.60852898285209   -2.87456821278416    3.51398113397558
H         3.05302377438270   -2.43411865706612    2.69900582612507
C         4.31918545918147   -2.07089756498118    4.38250771646149
H         4.31461065165958   -0.99249454625173    4.26845685158994
C         2.99733290863813   -1.30014764688286    7.25170555393528
C         2.26937557916050   -2.18833597366874    6.85757554174448
C         1.47723373975083   -3.22824002694541    6.33221609557731
C         0.61753794771877   -3.00905263891968    5.25061502939783
H         0.50718268258184   -2.01756505056714    4.83580564413887
C        -0.06802665630428   -4.08473256341990    4.72281261831079
H        -0.73806890106253   -3.95711407543665    3.88077881566752
C         1.57593456812530   -4.53328231495604    6.82579779280007
H         2.22645281204557   -4.75014945894354    7.66051237272623
C         0.83935112717414   -5.52801925321027    6.21470564797037
H         0.89346317058013   -6.55253583854912    6.56339315578956

