79
CSD_code = ADUXEF | q = 0 | S = 0 | Stoichiometry = C36H39ClP2Ru | MND = 8
Ru        1.31135910119441    7.85941971618975   12.60520781125902
Cl        0.62220266047568    7.05754986396747   10.43970465217965
P        -0.90657824869973    7.59206613203303   12.91711291341673
C        -1.64975882642909    7.93459084590251   14.54942330588053
C        -3.02253749851318    7.88287254665363   14.76658787577216
H        -3.68880877352655    7.67566480714931   13.93984460880266
C        -3.52810335075060    8.10584975628589   16.03397137486219
H        -4.59465228414833    8.06710615283897   16.20239730280114
C        -2.67152614344547    8.37803472331920   17.09028004180299
H        -3.07311108310669    8.55233358590304   18.07786757241128
C        -1.30367857420254    8.42752569281077   16.87925493053620
H        -0.63448796626784    8.63822578623193   17.70169776943940
C        -0.79736982400847    8.20709042043661   15.61029450863360
H         0.26855437694287    8.23452027447597   15.41462671085282
C        -2.11170027478721    8.38699002148704   11.81632918135448
C        -2.55691196254922    7.81082689098827   10.63192676697829
H        -2.23582289218145    6.81787654889276   10.35821759328883
C        -3.39283623919906    8.52424651999985    9.79083883905801
H        -3.73659965137861    8.07330167516547    8.87130284401139
C        -3.78212537051909    9.81284463027161   10.11574016366681
H        -4.43143163681021   10.36616471108877    9.45287093692534
C        -3.33157971641094   10.39623944947878   11.28961595953227
H        -3.62897402708469   11.40406241059710   11.54358521136768
C        -2.49684577767961    9.68887531577276   12.13254891766633
H        -2.14015247655494   10.13520792835278   13.05252479256098
C        -1.26398288671825    5.77565670682428   12.80302345985841
H        -2.30442619359768    5.56879261351311   13.07488755892674
H        -1.08345762436935    5.47400948148966   11.76634431142624
C        -0.28147822729058    5.06022924552241   13.72618024566314
H        -0.27598412140434    3.98317287461748   13.53576276769242
H        -0.56467305322010    5.23293134702478   14.76887328098701
P         1.42892985596482    5.76637254848835   13.45143191162952
C         2.25660293597459    5.47731524155085   15.05483779380555
C         1.63830683806123    5.75715148789513   16.26999535611413
H         0.60486715183017    6.07055063652865   16.29521615642374
C         2.33746262092594    5.64031207359614   17.45794199145644
H         1.84111549801229    5.85267854880339   18.39411709897533
C         3.66868008332881    5.25826586872386   17.45087718582867
H         4.21344283273179    5.17062308774716   18.37931822447125
C         4.29854782332644    4.99371458360564   16.24574413815369
H         5.33840067457817    4.70011218419498   16.23169940702105
C         3.60026155426309    5.10618680158693   15.05778814015199
H         4.09384960534484    4.89468305391170   14.11927509743175
C         2.21757493819174    4.43844732594136   12.47436572390878
C         2.21331002521267    3.11639678906671   12.91355604501619
H         1.73429345452914    2.86093304624214   13.85012454727608
C         2.83800323677009    2.13838444847813   12.16421280330863
H         2.83155283043616    1.11268577748160   12.50499850299721
C         3.47551169378246    2.47067686273830   10.97798216070726
H         3.95978085189355    1.70111891041669   10.39429074706919
C         3.49394144407869    3.78532667028194   10.54549556084100
H         3.99274429592723    4.04508840692479    9.62314049383980
C         2.86974808163384    4.76817799827032   11.29404311682111
H         2.86262351397591    5.79726980087371   10.96037649145327
C         1.81980019510255    9.85563799179103   11.83072709257156
C         1.62115168974589   10.00457466829299   13.23725233225616
C         2.57117625494235    9.17366944278515   13.90875011308781
C         3.42127928403628    8.57488799283037   12.90272977236729
C         2.96983400256846    9.01035589951419   11.63418618076299
C         1.16009391216707   10.64260778465468   10.73839972006686
H         0.16373621010775   10.97020772909256   11.03240539962862
H         1.06059941209944   10.03329695137560    9.84088008564887
H         1.75874997480876   11.52316318100363   10.49199239621217
C         0.72818642008186   11.01245214674014   13.89636412360048
H         0.20932994925282   10.59897974023970   14.76067802314619
H        -0.01471537020353   11.38782574585109   13.19623091958608
H         1.33307546746890   11.85685884281445   14.23573634462448
C         2.90182276619113    9.21735952544878   15.37258421926943
H         3.81280596819568    9.80178099578232   15.52244035408595
H         3.07463592593302    8.21915028807492   15.77600660106200
H         2.10204073011778    9.68732971791051   15.94115406802809
C         4.71370351014354    7.87091406027979   13.19435816378631
H         4.93172894633458    7.10780257438325   12.44871087962834
H         4.68386133718384    7.39642114841882   14.17322953338859
H         5.53133107049938    8.59636021805218   13.19027245629674
C         3.62751219063497    8.77431118540641   10.30956371299107
H         3.98570192861889    9.72274736509491    9.90444461938667
H         2.92044648555119    8.34939383664478    9.59532111367156
H         4.47303846390408    8.09616013885655   10.40690887051669

