76
CSD_code = ADUYED | q = 0 | S = 0 | Stoichiometry = C32H36O6PRh | MND = 8
Rh        2.68254297419020    2.89590188940106    7.78607944441601
P         4.55609513559947    3.26012797647346    6.60576103980877
O         4.01132683554123    3.03827949019794    9.36769789806169
O         7.60805950023983    3.11674858559395    6.34595383202764
O         3.69456070851141    3.81725717314099    3.89983258588903
O         5.89531314128514    0.70914305256468    6.49198313379123
O         2.62022794841084    4.97319247303565    7.76712526711838
O         6.24101178125548    5.02965255283444    4.77309158484899
C         1.66758112253567    1.35648875370535    6.60262684142746
C         0.80048405086786    2.47467043250252    6.79494996582314
C         0.50730273831567    2.57769347187256    8.20718353862229
C         1.23622724400517    1.57119745593999    8.87897061079055
C         2.00873533352405    0.84548138731781    7.89868216620148
C         2.01994838951736    0.73137838466626    5.29002232844249
C         0.10463729087514    3.25143506876665    5.72044298090001
C        -0.47769207445822    3.54504004090735    8.78467241820484
C         1.22168587507028    1.24405001158715   10.33880351114170
C         2.78725545412866   -0.40459653422167    8.17432811697406
C         5.83875007849178    3.13823811022074    7.86947251061189
C         7.21591095373357    3.15961572079933    7.65333558361381
C         8.07321501689486    3.19260266002288    8.74240713769453
C         7.53872995131499    3.20793740985207   10.02734691835551
C         6.18528317065308    3.16993066653300   10.25398976776644
C         5.28582305176862    3.12283172521678    9.16795273961305
C         8.97803924962311    3.18287210333165    6.05705988169995
C         5.00510053305169    2.34709639022688    5.11880334192268
C         5.74222528279301    1.16608906477760    5.22717373242065
C         6.20995582455679    0.54007649827787    4.07754023068827
C         5.88289555792971    1.06854660898657    2.84049414082697
C         5.05475588677592    2.17110294277112    2.71785643000057
C         4.58537196548417    2.79875754747649    3.86606357041957
C         6.84955803976519   -0.29198584373655    6.74664068330038
C         3.42220328854273    4.52624744515809    2.71640542734066
C         4.47146197977761    5.03526567716918    6.29458719054716
C         5.34152358370892    5.76775081451362    5.48816111977156
C         5.22648566269410    7.14832438271718    5.44289931463924
C         4.24703166061118    7.77261318102158    6.21000795125227
C         3.37692820723025    7.06254605445890    6.99918750289767
C         3.45925922812584    5.65481321277652    7.05953751908296
C         7.17748581038126    5.70479844965848    3.97832489279263
H         1.24896517082070    0.00623316539057    5.02082422892067
H         2.07826350420656    1.47785967599715    4.50185475407470
H         2.97474830503466    0.21371763021782    5.34193439014483
H        -0.08656852105842    4.26974570064758    6.05065180920306
H         0.71059617509920    3.29063857012457    4.81825695766115
H        -0.85085574036198    2.78025883127246    5.47877823865104
H        -0.55049809136781    3.43359849045748    9.86315433613158
H        -0.17068115396538    4.56754919280252    8.56843104398458
H        -1.46261288639871    3.37964874933061    8.34468336699607
H         0.47335036960786    1.83174352685594   10.86388902056288
H         1.00172839598428    0.18541741010336   10.48034512647501
H         2.19503882551725    1.45728066783542   10.78061760988882
H         3.23890375126579   -0.36158601144979    9.16235707589578
H         2.12693028817855   -1.27395937133923    8.13058414508408
H         3.57992800490584   -0.53333476544902    7.44126564371676
H         9.14374272486242    3.21613007947204    8.61519860627150
H         8.21584072425759    3.24464961061165   10.86936467958984
H         5.78436362798472    3.17496659548355   11.25545763055730
H         9.52928353563792    2.34504282594942    6.50085836144015
H         9.05601978179246    3.12597516574838    4.97172846761994
H         9.42097893691013    4.12307436762710    6.40330303713421
H         6.81553987416247   -0.35071230388493    4.13389939649903
H         6.25642913582757    0.58882783071414    1.94763391614336
H         4.77982939639708    2.52406174624579    1.73646342886020
H         6.91255023416222   -0.37064411473631    7.83105229614537
H         6.54199028192726   -1.25772609126365    6.32914599177033
H         7.83009770267795   -0.02078041141491    6.34497939292485
H         4.34188182639530    4.87817473607615    2.24018361164651
H         2.85596736644938    3.91661331078068    2.00272436028903
H         2.82096423791065    5.38314961490240    3.01716852226928
H         5.88409733203146    7.74844028665150    4.83446151525324
H         4.17105191331455    8.85053620173606    6.17501125496550
H         2.61935874329399    7.55935010469203    7.58487603793542
H         7.77879307817137    4.92965094805844    3.50421309377059
H         6.69314993877803    6.30886476651506    3.20161022174032
H         7.82743577625869    6.35153077872991    4.57788357804059

