73
CSD_code = ADUYAZ | q = 0 | S = 0 | Stoichiometry = C31H35ClO4PRh | MND = 8
Rh        7.74394327132240    4.07890660508718   12.63567467037277
Cl        6.50771189733519    5.36182402501328   14.10010301409445
P         7.25865012036596    2.51742793200101   14.21146447339367
O         7.70234051500559    1.18881390100227   16.79203499101412
O         9.38699530710112    4.42953928549831   13.88566119456742
O         5.01708242036133    1.52778386495854   12.98590815775310
O         6.34800286301597    3.73861565216831   16.83704341711393
C         7.33002199995039    5.41148491826253   10.89702328607843
C         6.55897070239513    4.19162873099273   10.81480381244944
C         7.47203774039948    3.10073010534076   10.64820739572791
C         8.79384336612157    3.62422633980847   10.76724733895080
C         8.69888090611969    5.06158250930562   10.89281303868881
C         6.72811950887674    6.78029838653356   10.90444127468993
C         5.07311795039343    4.15600043118280   10.63541144294579
C         7.13067657160388    1.69856528542574   10.24820061609324
C        10.07276317633592    2.89000502346382   10.50966718144584
C         9.88698248905898    5.96899946573196   10.91556346567059
C         8.54832245874721    2.85048346534717   15.41622997781844
C         8.66295924068755    2.14208905705568   16.61028593951632
C         9.69322140753346    2.44612708069685   17.48220256196069
C        10.59309804617147    3.45058877424752   17.13123083438677
C        10.50329734506978    4.13867851548820   15.94629266052302
C         9.46809016861583    3.84313040568420   15.03381206868811
C         7.69659362933811    0.47350330592412   17.99942878872056
C         5.61998290370929    2.53898318400476   14.97702673958460
C         4.59844947516852    1.99635177543079   14.19616816122319
C         3.29023807745514    1.97778787226351   14.65779957482550
C         3.01146688780002    2.55824133200759   15.88348865502915
C         3.99891669620463    3.15920250905756   16.64041464442944
C         5.31721012890342    3.17075401388568   16.18796947313469
C         4.13513893962739    0.70749484446188   12.25805340668016
C         6.09801764891263    4.54059097634487   17.96341453508668
C         7.60224393584377    0.75247488806821   13.88610492431070
C         6.84537479804011   -0.31387468444736   14.35052628832137
C         7.24767721134632   -1.61171218091504   14.08923087621922
C         8.40552489358510   -1.85648247308980   13.36869600561712
C         9.17515431907952   -0.79578116799714   12.91874324569960
C         8.77411315448878    0.50117964824820   13.18026570521454
H         7.49763099488482    7.54594088129388   10.85080572765732
H         6.05819894425525    6.89073358158740   10.05101331182931
H         6.15198683896609    6.93888293705325   11.81671258792613
H         4.59711744680690    4.88378010809145   11.28917461891899
H         4.81738302135875    4.39990464705460    9.60144408920590
H         4.67895761132357    3.17232494884375   10.87184622150938
H         6.08563282412403    1.63639105283029    9.95747759000773
H         7.74402130511044    1.40801262741570    9.39475315539809
H         7.31184402300948    0.98835907566353   11.05440630785916
H         9.92038862976961    1.81397970061752   10.54150056912796
H        10.45343811936867    3.15718035526594    9.52107482081170
H        10.82862461925262    3.16285885666865   11.24422096071429
H        10.50019861099464    5.80102239935648   10.02900374905671
H         9.58476515081854    7.01240142860919   10.94493954631842
H        10.49427027726948    5.76506429797358   11.79747504761112
H         9.81176729528785    1.92967215210858   18.42136545116418
H        11.39211140047511    3.69022578588901   17.81915979987562
H        11.21480660862010    4.90833168591665   15.69079209461023
H         6.83904908386211   -0.19661722247694   17.94777898732588
H         8.60991502870402   -0.11941858473667   18.11973932839784
H         7.58393501702277    1.14047557958524   18.86077533103765
H         2.49158237342599    1.54886847081687   14.07423443386248
H         1.99468037639267    2.55680448807039   16.24762326682833
H         3.73587706401439    3.62693032629449   17.57538541387294
H         3.28132278232176    1.27478786317520   11.87131096849646
H         4.70945565126196    0.30463100607995   11.42538617204241
H         3.76727234417422   -0.12198723754216   12.87016546035408
H         7.06662173877402    4.95001207541972   18.24664276371190
H         5.41519882155283    5.36031991686354   17.72188901475426
H         5.69258442651762    3.95498490226168   18.79663115965047
H         5.95353340900925   -0.12769143354520   14.92999854183639
H         6.65752556856687   -2.44067664056581   14.45452237841364
H         8.71241385705276   -2.87252327860781   13.16672250141092
H        10.08701030342545   -0.98327237876870   12.36945656274215
H         9.37124626013110    1.34476202190418   12.85421822762427

