98
CSD_code = ADUYIH | q = 1 | S = 0 | Stoichiometry = C47H47O2PRh(1+) | MND = 8
Rh        1.24702604984254    0.97412275398993    3.80983209136975
P         3.26928251648260    0.45188281243429    4.73279169906954
O         6.19171686841583    0.33754936654170    4.79398136359426
O         2.58810572286935    2.23414817549162    2.54130557555923
C        -0.38177641021916    0.41423753609798    5.13179281692072
C         0.00854249416198    1.74853118285421    5.58171373580593
C        -0.19332723073407    2.63089049155762    4.51879419590577
C        -0.73533247458915    1.87232333093579    3.39342806465578
C        -0.94831263363731    0.53707064191798    3.81509455338351
C        -0.61755839584722   -0.71040494140091    6.09051219039647
C         0.34005157393508    2.07416882297434    7.00207750306807
C        -0.03855299650374    4.11608063417687    4.52204236719743
C        -1.30885827698774    2.49292052976216    2.16091252670417
C        -1.72859922984183   -0.50149715459649    3.07612294443091
C         3.76132051593050    1.41908960140617    6.19982080770566
C         3.44199441494640    2.77438873304397    6.14368014488268
C         3.82569508754575    3.62657756430838    7.16056518277358
C         4.53106808801490    3.12872890180779    8.24534825651618
C         4.85692209453242    1.78390830518953    8.30063228352822
C         4.47950221791793    0.92647680682375    7.28086030610724
C         3.80187201148704   -1.25069573594140    5.04476563922659
C         3.33012712346550   -1.87663220111412    6.19553295865793
C         3.67027770492146   -3.18893868644234    6.46449470937436
C         4.47207322802644   -3.88915320030278    5.57821137217013
C         4.91810414148143   -3.27926110805681    4.41707433014556
C         4.57889000690844   -1.96781481774321    4.14287564127916
C         4.43370003366828    1.15247158320994    3.52964406306156
C         5.81773959128176    0.98813012088700    3.67322603073691
C         6.66522053472530    1.48747156206729    2.69075657643484
C         6.13112339186792    2.16731397840626    1.60896252752330
C         4.77303103665101    2.40682595761536    1.49892553797139
C         3.92478709435628    1.91976084921623    2.48501805306834
C         7.56107517438533    0.07546419351388    5.01270832704504
C         1.84738612968722    3.96403049539100    1.01752545188535
C         2.46280045226719    4.90789303089568    1.84941125047863
C         2.34736055436056    6.25770280620854    1.59447180812799
C         1.61781721481623    6.72369714791501    0.50450980471240
C         1.00556688401034    5.78775381476948   -0.32219119245966
C         1.11252518327564    4.43468665521655   -0.07466631102910
C         1.50815100916725    8.18973928259248    0.23816362472092
C         1.88599824060875   -1.77427253211628    2.49653575413477
C         1.37060249453496   -2.44515644988391    3.60717962555633
C         1.57118535917217   -3.79718913160762    3.78669929023088
C         2.32016791207440   -4.53547004135909    2.87814266272853
C         2.86415053483143   -3.86837196462462    1.78485225462207
C         2.65643099852713   -2.51928991482160    1.59427043084616
C         2.53447693660470   -6.00307488358807    3.06190590012250
C         1.95411714248044    2.54423504017536    1.31982566321835
C         1.49220552160377    1.50368756241435    0.59403906517433
C         1.58286161892381    0.13238298752818    1.01751806308420
C         1.65984270437918   -0.35354506923988    2.27695219413784
H        -1.36730532630079   -0.39024497223989    6.81633775302499
H        -0.99486611229997   -1.59730441731270    5.58906354966544
H         0.28405674460350   -0.97059545086133    6.64230837455767
H        -0.58017748041595    2.07461744052240    7.58896767460821
H         1.01319835684363    1.33595060331412    7.43372218934658
H         0.80177923683248    3.05310046194231    7.09408117395017
H         0.52186814685774    4.45351487300368    5.39041353655587
H         0.46321768664874    4.46913106444765    3.62107780594515
H        -1.02644986288258    4.57819511724728    4.55176006883709
H        -2.36041092158627    2.72503915845675    2.33941699562251
H        -0.79751073348174    3.41645616717230    1.90054838954744
H        -1.25428410012699    1.81263250204322    1.31379920834982
H        -2.78226101581933   -0.40860816473870    3.34508718166507
H        -1.64056505397332   -0.36693018071838    2.00094734013120
H        -1.39977913469450   -1.50767410852544    3.32189839680372
H         2.89017155116593    3.15113688805284    5.28851919815683
H         3.58050377409480    4.67740246657823    7.11146422598131
H         4.83073608976220    3.79033300399807    9.04352329404421
H         5.41455278149544    1.39927794503038    9.14131896324718
H         4.75483594331064   -0.11618285274429    7.32076543415660
H         2.69624481482029   -1.32634212909601    6.87908768760219
H         3.31027809883717   -3.66675561577502    7.36347265285026
H         4.74259713264908   -4.91251124145279    5.78835485530335
H         5.53139725436720   -3.83018481790077    3.72018357855761
H         4.91297572541149   -1.49987222142012    3.22838931687539
H         7.73215465593691    1.35496325462741    2.76055900739592
H         6.79344364513728    2.54305662661745    0.84500707010905
H         4.38234067909534    2.97710286508948    0.67151852664076
H         3.04289793592415    4.58067454559917    2.70094164728097
H         2.83232082277754    6.96625280950805    2.25002511696019
H         0.43304070218671    6.12486499663709   -1.17348382992871
H         0.61704138103180    3.73975497116402   -0.73370086572082
H         2.48873691632456    8.60272693777803    0.00314308181019
H         0.84087231936561    8.38796507384022   -0.59605368000232
H         1.13476284209849    8.71084201813975    1.11856362174728
H         0.80794233703037   -1.88569777927126    4.33707691202352
H         1.14845205834527   -4.28922817098176    4.65087208708084
H         3.46289731953825   -4.41896365117822    1.07365677727479
H         3.10953279877047   -2.02862378843917    0.74541109184203
H         2.36546132823285   -6.29552415906463    4.09523952863205
H         1.83950660069003   -6.56120533993689    2.43349375898172
H         3.54352268449909   -6.28719459223973    2.77107992480778
H         1.05398286245563    1.68764955054811   -0.37427122957944
H         1.52897826372041   -0.58150402300890    0.20118373162041
H         7.60898055469680   -0.46708009252027    5.95475685754052
H         7.97995620467581   -0.54524989352048    4.21608060747786
H         8.13429353055187    1.00256089524997    5.09834169410387

