57
CSD_code = ADUZAC | q = 0 | S = 0 | Stoichiometry = C20H32N2O2Pt | MND = 6
C         2.55218823201831    0.33775943475982    8.37142984574583
H         2.17979352086091    0.71945066136783    9.32176940514456
H         3.64390264445924    0.37943964718369    8.37003592425883
H         2.25062125940937   -0.70560317053179    8.26493667368087
C         0.09914374762507    0.50561751416096    6.97304053255085
H         0.17550121104142   -0.50123160891762    6.56207016048962
H        -0.63805591978217    1.06653515018724    6.39543708725942
H        -0.23003969934378    0.45298514609529    8.00931863708513
C         1.33001047294104    3.03339995246923    7.74343860685265
H         1.58520064830175    3.04706777727483    8.80300370790993
H         0.24881218991321    3.17405652572111    7.67772462268896
H         1.79727600836383    3.90760556639895    7.27795820420069
C         0.52866953447109    2.92122913202132    4.21506210316755
H        -0.38181943718735    2.87199685796109    4.79683302107876
C         0.59129937863341    3.65283731684406    3.04261826670733
H        -0.27735336845165    4.17651703174339    2.67660306457449
C         1.80471363136055    3.71777424788164    2.37578547292387
H         1.91169037756239    4.31081886323735    1.47951742953162
C         2.88510686236603    3.01343086105566    2.87807713089360
H         3.84744277898975    3.06616479136289    2.39787857617466
C         2.71806443351818    2.25936418904251    4.03324349974568
C         3.85618286981807    1.45363258217264    4.67414877348325
C         5.19765521792514    1.69898109536105    4.01235575483015
C         5.87988338691364    2.50479029261778    4.84688581204478
H         6.86954941849335    2.89115178487527    4.70115318224612
C         5.08524776320946    2.72624301171264    6.04125729872930
C         5.49905994071839    3.62600788194861    7.17248929416365
C         7.02275741436007    3.77401933906798    7.23318714550778
H         7.50307544615726    2.79883709017900    7.27507015396390
H         7.29504974848173    4.32640493808273    8.12979559823725
H         7.40669544406568    4.32073028910569    6.37506647134755
C         4.86440757490545    4.99714240905013    6.89014334243379
H         5.18078769024475    5.37776593794327    5.92008060698416
H         5.16480722269003    5.70785634430901    7.65639034434529
H         3.78041490483591    4.91787036470755    6.89464860028109
C         4.99162010038932    3.08351733503912    8.50888834992389
H         3.92548906381868    2.88734494582347    8.45659905536573
H         5.18191357833968    3.80483829615274    9.30030917690008
H         5.50291693018281    2.15591261111040    8.75520519207679
C         5.71723002835592    0.96656692300469    2.80851578734991
C         6.66141515863505    1.85669184386314    1.99215429593292
H         7.01030151143932    1.31248034142072    1.11783586086268
H         7.52882912958646    2.14993745624026    2.57732164409528
H         6.15521539383722    2.75894993516419    1.65288753307794
C         6.50207467674742   -0.22693330495518    3.38680029140971
H         5.83357242377401   -0.84702885619739    3.97847724593546
H         7.31535917053402    0.11673899018267    4.02199742618583
H         6.91604647674874   -0.82446043940649    2.57801397670408
C         4.61611607963597    0.41005991948072    1.90096333474126
H         3.88329102051728   -0.13430229171449    2.48926594832223
H         5.05712990900743   -0.27856961374825    1.18348090209312
H         4.11118565574108    1.19410198951070    1.34208078640491
N         1.56786234522049    2.26042248749676    4.70216269921583
N         3.96246575632406    2.09677522465302    5.98874292002943
O         2.46005377891179   -0.27858302152691    5.42069739377319
O         3.64336330007279    0.08837031765282    4.73563828152387
Pt        1.93680596229245    1.34901966230071    6.70230754681316

