84
CSD_code = ADUZUU | q = 1 | S = 0 | Stoichiometry = C38H41IrO3P(1+) | MND = 8
Ir        8.33357106538107    3.73317535509747    5.43345696276654
P         8.39796564746134    4.68150359826546    3.30440615957325
O         9.72504993624908    5.42713665896228    0.84684089874232
O        10.44600633964377    3.68882398376615    5.12092994552521
O         7.32953819661106    5.98387324813244    6.65849456649391
C         6.81172438543658    2.03047000375183    5.08097942994606
C         8.04503815995898    1.47962307341205    5.48387236202607
C         8.34652957709076    1.97501313093347    6.80669878712651
C         7.28812982669398    2.83334221224322    7.21526293938432
C         6.37127259824672    2.94118226103510    6.11714076306334
C         5.98397676581606    1.63168277292476    3.90661239211908
C         8.83292898584123    0.40873857136198    4.80298559723830
C         9.48336524601934    1.48786179439193    7.63696900800568
C         7.08208696944400    3.39383029977836    8.58500775551215
C         5.01593014280150    3.56714163941001    6.17902159448399
C         7.80352662349378    6.39760246816468    3.23676523345421
C         6.48237415925698    6.64172137688303    3.60945628271515
C         5.99152014797761    7.93377785535504    3.62810563505723
C         6.81999930722981    8.99309737216626    3.28782621338611
C         8.13990748604678    8.75661203787865    2.93953546582930
C         8.63558033787112    7.46368200806219    2.91805039091976
C         7.61767942921102    3.80887346098621    1.92201604078709
C         6.51290942168738    4.28948630801656    1.23048847236291
C         5.99916664985255    3.56216796743362    0.17036048979044
C         6.57923925875775    2.36043912937550   -0.20110458034390
C         7.68262650107038    1.87952404099907    0.48799356445469
C         8.19752507213246    2.59708719481283    1.55014295953642
C        10.15510710684506    4.61627776573245    2.96661760656193
C        10.66826776068097    4.97362998446758    1.71426587027563
C        12.02563342025600    4.84487697802689    1.48258601651954
C        12.83453688979202    4.34849270145564    2.50233712687866
C        12.33584927594510    3.96998049694211    3.72726921725463
C        10.95682483060834    4.07618054045706    3.99022344689242
C        10.11844514900588    5.75745600609148   -0.46683627383230
C         8.43538361562183    5.58690617583098    6.10928819394828
C         7.13611214306084    7.28446197734557    7.22319770568175
C         9.62211614098890    6.49738038422064    6.11432062607951
C        10.21681778873683    6.43356181500633    7.51253229852230
C        10.66466557888155    5.21415321956060    8.00634105605031
C        11.20180397934820    5.13545440343667    9.27875718382281
C        11.29951496040620    6.27136400483857   10.06634409145721
C        10.87064500143791    7.49025973424970    9.57061845591860
C        10.32538463115851    7.57256361707730    8.29960650090067
H         5.50363700881614    2.48936571414007    3.43875970248024
H         6.57632735411249    1.12125041916911    3.15228399560270
H         5.19989744501969    0.95139413155075    4.24335165326836
H         8.69121281390863   -0.54022864124009    5.32236576623799
H         8.52091023564873    0.28189132932388    3.76943974447489
H         9.89620341463105    0.64288217987297    4.82084420031947
H         9.34173651395890    0.43108736010768    7.86753732597594
H        10.42253141011660    1.58660721293572    7.09431671456855
H         9.55740160906596    2.03905250250501    8.57034293363708
H         8.02699431687641    3.65966429188480    9.05460532963646
H         6.44907270977933    4.27670660962880    8.55531551408620
H         6.59057046418596    2.64616168241758    9.20933968416779
H         5.04360788645158    4.51275275870184    6.71496891096372
H         4.61930269789090    3.74218537760577    5.18210927822412
H         4.32856915071700    2.90088037894577    6.70263405558996
H         5.85133975996393    5.81112749672402    3.89635588467105
H         4.96553202580217    8.11876611489281    3.90920337276164
H         6.43681691608873   10.00194003631234    3.29982591965293
H         8.78600252305336    9.58273945842165    2.68373204629321
H         9.66587236007951    7.27993269155922    2.65594691111678
H         6.06936591159713    5.23549740909152    1.50304427677727
H         5.14537424726655    3.93910284083016   -0.37223658889368
H         6.17656308647977    1.80092719469284   -1.03128205901865
H         8.14031493783761    0.94704849802963    0.19264557415689
H         9.06400917301709    2.23905755638627    2.09096582820058
H        12.46335084641931    5.11331337026271    0.53585626677760
H        13.89348026046544    4.25006875414697    2.31748947444188
H        12.98079026756420    3.57337026980584    4.49428356256779
H        10.55965056063538    4.89668523467832   -0.97651303692168
H         9.20726790971937    6.05560178361849   -0.98193387764192
H        10.82857189564499    6.58926710978806   -0.47244735069006
H         7.81974521639245    7.44709014855230    8.05735617619294
H         7.27674770673675    8.05707753968035    6.46535248722201
H         6.10676964113700    7.30507248485463    7.57570162284576
H        10.36563041632217    6.15462120872347    5.39465163951051
H         9.34192643656974    7.52645888350975    5.87596801246387
H        10.61267883502248    4.34212633131124    7.37346433725502
H        11.55430103171308    4.18715225290524    9.65557354621158
H        11.71925668410893    6.20936136296894   11.05828767069183
H        10.96062543129585    8.38238355065896   10.17112213205765
H        10.01046437782658    8.53318748167606    7.91568690914431

