85
CSD_code = AESTPT | q = 0 | S = 0 | Stoichiometry = C46H30N2O4P2Pt | MND = 4
Pt        0.98585409740563   11.63578313831434    4.37110549277162
P        -0.51212578247022   10.00927660930622    3.75079597999496
O         0.83614783736730    6.43885417727996    2.76381443451317
O        -1.22263846823823    7.39498216281439    2.88491380820789
C        -1.73785342811323    9.29498758757108    4.88109206816279
C         0.63512621624591    8.72197235889655    3.26212960754099
C        -2.21451891608082    7.82177428125904    6.72873997014544
C        -1.37288936126319   10.54131334928695    2.24550174429473
C         1.97741898187200    9.10027306534643    3.26113109827129
N         2.32782680305119   10.29309763392719    3.71678797547497
C        -0.00738956207437    7.48301395527084    2.93566210953688
C        -1.30958320288549    8.36053425467549    5.81657661467632
C        -3.05532235241267    9.73286585604601    4.86842455690703
C        -3.97159608228301    9.20370687948665    5.77858006170335
C        -1.38043089681908   12.12642080079368    0.43421814578119
C         3.03248554900595    8.20496120897377    2.74444253433754
C         2.95669877667243    7.70030281348459    1.44998487607655
C        -0.84340724290679   11.67157582680734    1.62341718545736
C         4.12777789199702    7.88919863331515    3.54164921453422
C        -2.44783537960356   11.45333180755271   -0.13992481629610
C        -2.43604589120562    9.86044264247192    1.66168117272863
C         5.11999668626767    7.05500220241736    3.05904557605245
C        -3.48929731362845    8.28231311290180    6.64967914550529
C         3.95494865894197    6.87413626186924    0.97018442695739
C         5.03400206169527    6.54540771110286    1.77473707356399
C        -2.96919620708936   10.32400958778318    0.47162538975610
C         0.34945685742038    5.24453912764806    2.44685737093038
C        -0.02722222812324    4.29671812172054    1.78159310383829
H         2.11565375637858    7.96127724716235    0.82453043412291
H         3.88699848737682    6.47997807146264   -0.03235246291593
H         5.80680148880574    5.89090240416338    1.40059659373118
H         5.95980024889085    6.80047386783148    3.68868662519030
H         4.18511495339675    8.27777990248019    4.54933804602106
H        -3.38397581490121   10.47470863931663    4.15348049761278
H        -5.00100303509784    9.52513283560269    5.77191719417610
H        -1.89936302658603    7.08223991878591    7.44750360994269
H        -0.27716106751162    8.03727994651262    5.83046121548374
H        -0.00282387471519   12.19006416525593    2.09017519220590
H        -0.97025289075330   13.00265465544902   -0.04610506220807
H        -2.87016042999145   11.80706040844766   -1.06880901933771
H        -3.79314054406164    9.79603006766384    0.01507161586788
H        -2.81816119424851    8.96440359035716    2.12575036437062
H         3.32445629433226   10.48664913366074    3.65239936426517
P         2.48580771462742   13.26306013151972    4.99255893784554
N        -0.35430392741136   12.97984505204368    5.02638264407000
C         3.71136245772504   13.97687096756054    3.86179164577362
C         1.33882825251198   14.55029643214573    5.48184126282295
C         3.34662779219807   12.73084354653457    6.49773094219713
C        -0.00351980998956   14.17235968730830    5.48259739888371
H        -1.35104166275984   12.78679630364817    5.09047465978395
C         3.28365882757441   14.91265153767984    2.92739490704508
C         5.02820544427671   13.53702413583094    3.87293801922862
C         1.98198081545398   15.78844392278373    5.81010360156110
C         2.81495748340207   11.60237512765797    7.12122013481948
C         4.41144343176781   13.41005650392109    7.08040146171041
C        -1.05845530657396   15.06776842374802    5.99945443904596
C         4.18861404467074   15.45070549890163    2.01481409378251
H         2.25171858105910   15.23746810076723    2.91463441066185
C         5.94446258430291   14.06545391483809    2.96235746064523
H         5.35635015553339   12.79415253384823    4.58705808136701
O         1.13909722550470   16.83263929424795    5.98454177004974
O         3.19734369684890   15.87567020295804    5.86015189385790
C         3.35130652347046   11.14774935230683    8.31078908802140
H         1.97318196282488   11.08510873039747    6.65520181276854
C         4.94392088041361   12.94670807358585    8.27084762910571
H         4.79535398112958   14.30476252686575    6.61525515042035
C        -0.98353411083303   15.57074418325367    7.29461390021467
C        -2.15283380186984   15.38516543984704    5.20165729714006
C         5.46279037999672   14.98823433153922    2.09235238460303
H         3.87392581547764   16.19122091154563    1.29685492693451
H         6.97339805706414   13.74247077916227    2.96786910297923
C         1.62654261504983   18.02600465881077    6.30396568929885
C         4.42027749062156   11.81925323831159    8.88388117000662
H         2.93936885286730   10.27295760643415    8.79222542041859
H         5.76911866941036   13.47344790266204    8.72656481077950
C        -1.98171962967270   16.39691310880363    7.77454324390734
H        -0.14320998512164   15.30849141304932    7.92049555208951
C        -3.14499891159991   16.21933568015130    5.68441719509150
H        -2.20953752201279   14.99779738260165    4.19346473728371
C         2.00407545025280   18.97201149120258    6.97125996885525
H         4.84204958871380   11.46574890373061    9.81310031157716
C        -3.05985314491194   16.72727971103641    6.96943250477952
H        -1.91442215476972   16.78979694737736    8.77762362450334
H        -3.98409951920852   16.47512613640302    5.05435253802925
H        -3.83261074205803   17.38176015048935    7.34369404608527

