105
CSD_code = AFABIS | q = 1 | S = 0 | Stoichiometry = C46H50NO6PRh(1+) | MND = 8
Rh        1.81071332642565    2.22975280670149   10.81681974469966
P         0.19114456907106    2.45558898091359    9.15131466831188
O        -1.59389034666064    2.77173653538940    6.93624649952437
O         2.98698762130767    2.59382245498138    7.98969291974938
O         4.31410143078673    4.70569534906138    6.82718150595621
O         4.37779435938459    5.79918398595201    8.79144791587879
O         2.50929196089513    5.96782274488369   11.00760200109765
O         4.38838444600080    4.79646784155528   11.40518017479462
N         0.26244748636050    4.09245144346574   12.72684959658736
C         1.76872988717717   -0.02435451911484   11.22303845640998
C         2.11685240941106    0.65746048055755   12.41438788833175
C         3.32493999302368    1.41305954451816   12.16335342609778
C         3.76094475484788    1.10849656645725   10.82530075346130
C         2.76490535737592    0.29814144442499   10.21650967205104
C         0.78460529449144   -1.14390756429815   11.12600005932840
C         1.47610190784877    0.46639315438450   13.75291293041542
C         4.17695536216553    2.05451653393611   13.21297515416043
C         5.09646667960557    1.45539753495749   10.25560194726324
C         2.90119526147909   -0.41210249961039    8.90689856491690
C        -0.93243468231579    3.86448202885164    9.45146742892989
C        -0.33653472839062    5.11003875241985    9.63256186950280
C        -1.11172873247417    6.22525313125823    9.89182987790201
C        -2.49032352961870    6.11091063983032    9.96403570604347
C        -3.08917780139066    4.87775072224589    9.76532846991845
C        -2.31756398417786    3.75611350976305    9.51277606383418
C        -0.87385618992722    0.98413393153296    9.09373746532493
C        -1.68537187823284    0.72714461193420   10.19684596767845
C        -2.51798356993239   -0.37632014866531   10.20874935131850
C        -2.52345105910610   -1.25030567030562    9.13256360771899
C        -1.68359320544247   -1.02439585308482    8.05404892106730
C        -0.85736200574151    0.08633289356482    8.03193922016312
C         0.67659985270797    2.70214110087651    7.41708674370754
C        -0.33422903739999    2.82573187751454    6.44918115562092
C         0.01179516274501    2.96081055944285    5.11076018592562
C         1.34631909519376    2.95825680375413    4.73955357601198
C         2.35217348784083    2.84333045644516    5.68147357483627
C         2.01184847453830    2.73342570503473    7.02037144029560
C        -2.68105732822103    2.89348353722085    6.04478864512747
C         3.25613345479840    3.74265386026770    8.72746967737615
C         4.03523559752114    4.78742208537366    7.99589619917452
C         5.04606032808939    6.91341494533610    8.18293853987351
C         4.03990697682289    7.91001164503295    7.62927678468922
C         2.82763121255580    3.83099733712506    9.98819408853132
C         3.20170474420642    4.99364470329103   10.82909321029240
C         4.94536075230331    5.88011590600306   12.15982995491827
C         6.45816413822893    5.81747263479688   12.05464144964092
C         0.83577579381530    3.44334565469987   11.94666263312779
C        -0.46852156814755    4.86089203469285   13.57405887307359
C        -1.81623258871925    4.53596466688162   13.78467264317710
C        -2.55438752847648    5.34444048651665   14.63277189590558
C        -1.97216978339369    6.43367188979525   15.25908898269408
C        -0.63365562786384    6.72254263269593   15.05909781843202
C         0.14659712187495    5.94229788209105   14.21992557139709
C        -2.41999172570085    3.34529769461142   13.11143557644681
C         1.59588880514595    6.22430252092805   14.00592895282462
H        -0.08891890417302   -0.97183349679553   11.75020534913800
H         0.45353287257921   -1.30565214906482   10.10402180157216
H         1.27070212091960   -2.05859590515226   11.47156055057762
H         1.56232049965059    1.35716293587992   14.37150660967116
H         0.42354604710447    0.20942781270536   13.65679845154997
H         1.97729198328378   -0.35337636134889   14.27058682365070
H         4.89556759521753    1.32306858015195   13.58692883927192
H         4.73024124440250    2.89539938771327   12.80233991238997
H         3.57881620159448    2.40276772173647   14.05212975852489
H         5.81555712357272    0.69361216199947   10.56289685041319
H         5.06671344647583    1.48009031925218    9.16987267159625
H         5.44285797061716    2.42036630060565   10.61865959098751
H         1.92798135566957   -0.66925003648826    8.49413998515240
H         3.43262509905432    0.20086088388506    8.18435429622801
H         3.46386569248801   -1.33489994865338    9.05825524041453
H         0.73931104382052    5.20491091895416    9.58512104321706
H        -0.63389038321886    7.18090915242787   10.04125003561867
H        -3.09705554429084    6.97915877983265   10.17033542944072
H        -4.16433579097566    4.78566834804704    9.81070653710837
H        -2.79507034816134    2.80148207144690    9.35108335169031
H        -1.65311006631694    1.40162232191977   11.04296283222765
H        -3.16072326601933   -0.55944390802346   11.05705537706686
H        -3.17381347615370   -2.11121450598290    9.13927752881814
H        -1.67332523057954   -1.71550976501563    7.22453227763078
H        -0.20538331900191    0.25963753786042    7.18715455549136
H        -0.74938804665079    3.05926887774192    4.35403976174771
H         1.60313730084289    3.05330490544016    3.69624355628813
H         3.39158597547955    2.86190210563825    5.40013043037640
H        -2.66314453502503    3.85456041333670    5.52433178649404
H        -2.69095935467437    2.07838114163485    5.31586740481980
H        -3.57551154873877    2.83608948937880    6.66208272186439
H         5.64124204552887    7.35846254628925    8.98282911089028
H         5.70102686782829    6.54161447962593    7.38876707505115
H         3.34789444400405    8.21386339181102    8.41108420781949
H         4.56342322505003    8.78468951484549    7.25525013284713
H         3.47751710009693    7.46089263617892    6.81416701669878
H         4.55311176910103    6.81902597970858   11.75758996035088
H         4.61908759510875    5.78218734843681   13.20110513772575
H         6.83279192738955    4.89083826053682   12.48181325812988
H         6.76385687241957    5.86706528250532   11.01302211075893
H         6.89462980305052    6.65344936085135   12.59287518731721
H        -3.59452249321912    5.11527557187825   14.80630573310068
H        -2.56309047049985    7.05399564516846   15.91468653335488
H        -0.18344590639828    7.56402341963343   15.56274174387883
H        -3.43461271841992    3.18198957813588   13.46310606773235
H        -2.44449698206577    3.49782373670336   12.03215913556302
H        -1.82958370911657    2.45192634701804   13.31706439668316
H         2.19557232020070    5.35863383922086   14.29002641955596
H         1.78917300553463    6.42874956433556   12.95302948246272
H         1.91216134089491    7.07908741718263   14.59644992749852

