124
CSD_code = AFADUI | q = 1 | S = 0 | Stoichiometry = C54H63N4P2Ru(1+) | MND = 5
Ru       10.72027108716365    3.42102042717752    4.48293665654728
P        10.78848781448029    2.12865033423869    2.56572229118689
P        10.91918914364747    4.74266423586184    6.38164857955094
N        10.09709708436039    5.74462169983957    3.01416032958150
N        12.23932001818658    5.90874603840278    3.07740312731029
N        10.30846305916742    0.57970220685420    5.71317779811699
N         8.61264011150252    1.84744090330355    6.07724350088671
C        11.21861197479957    5.10519007427514    3.42477996116266
C        10.40649942860130    6.95676425566409    2.43173420222716
C        11.76376222243669    7.05536169544377    2.46521026205308
C         8.80494116467959    5.16379869237488    3.30067581382455
H         8.32708596576791    5.72131346694974    4.11779514173079
H         9.01880022764634    4.11930535299669    3.64349570870209
C         7.85020031537787    5.11642835859822    2.11224512966694
H         7.39090815679691    6.08561901577645    1.94220660725840
H         7.05274182137296    4.40288318275621    2.30746243495716
H         8.36877117943538    4.81292928505874    1.20781457419696
C         9.39962317382285    7.92428142300449    1.92754561187988
H         8.58935249617600    8.04297545947476    2.64552034986381
H         8.98167620456314    7.60095399942636    0.97430868858100
H         9.86755244457313    8.89343778721002    1.77843907611174
C        12.64226104511225    8.14974370799859    1.97894971089787
H        13.05695685497095    7.91769098693603    0.99766440261256
H        13.46951120625490    8.31982283740271    2.66491987116018
H        12.07180790716146    9.07054207715669    1.89102670919192
C        13.62548812367344    5.60994801028160    3.34310538057291
H        13.62952097610383    4.80501339720793    4.08221969457315
H        14.10422894454949    6.49033377308502    3.78219619024432
C        14.38633149795175    5.17226141773130    2.09558905423281
H        13.95676675093122    4.26015143528776    1.68836795130795
H        15.42142501045564    4.97283866743210    2.35695297112825
H        14.36844993092034    5.94382857750789    1.33081048411820
C         9.84986829425810    1.83586334305929    5.51347381529008
C         9.38054473304594   -0.18507946678598    6.38826434603931
C         8.31093355805753    0.61687982482438    6.62967107976649
C        11.62161358085719    0.09499465312325    5.36439359030226
H        11.96789089300096    0.66293364412211    4.49536186711097
H        11.54140518737918   -0.95928622611726    5.09297988493474
C        12.61718301883288    0.27450002858872    6.50739285147161
H        12.75156728080467    1.33334529972662    6.71589959433082
H        13.57651737031916   -0.14808611893274    6.22371328264845
H        12.27397111549755   -0.21989272052940    7.41283509174523
C         9.58121215147214   -1.62341968531046    6.69986315295356
H        10.48898811867639   -1.78355435421708    7.27863456763660
H         9.65480778334535   -2.20452451656146    5.78006373082686
H         8.73685110322416   -1.99867606753461    7.27015257540244
C         7.05001333119086    0.31665202165332    7.35598139881443
H         6.24085238694937    0.07380847136454    6.66666363336062
H         6.74055411617183    1.16109489608200    7.96879919591468
H         7.19952543057848   -0.53926816831403    8.00846302677409
C         7.77365859454953    3.01264743905110    6.19948988761993
H         8.38570652266746    3.87626445471465    5.90628034821740
H         7.50102031681777    3.14195858411226    7.25307526763593
C         6.50733646307140    2.96637199105431    5.34937085796959
H         6.74523544467617    2.86514285660475    4.29364536617800
H         5.94548522447687    3.88698677890878    5.48738278351237
H         5.87261171427006    2.13420899466233    5.63743669158055
C        12.37828804686932    1.54392571437289    1.87097230548458
C        13.57391135263538    1.74706435852474    2.54714568466663
H        13.55269790315056    2.25406491492376    3.50351690385913
C        14.77001544914323    1.31491026098589    1.99995249007043
H        15.69494223229288    1.47878520899734    2.53237251389858
C        14.77954568183173    0.67745527369997    0.77125363490855
H        15.71103608122426    0.34081921141854    0.34239918878864
C        13.58964959487667    0.47413433855935    0.08858083213261
H        13.59453720828676   -0.02119085606260   -0.87079925213350
C        12.39460291539774    0.90631457337338    0.63085994321935
H        11.46902346334934    0.74915707649604    0.09351587142797
C        10.14822029383505    2.83771529827436    0.99306022318895
C        10.86582064999882    3.91842738336288    0.48266763625741
H        11.73992877622522    4.26574175195015    1.01659983701250
C        10.48100234148505    4.52837996501915   -0.69519806505868
H        11.04581535947510    5.36514160266310   -1.07920520215191
C         9.37401627635887    4.05895388494820   -1.38608900542143
H         9.07078322976522    4.53031566179721   -2.30843516601390
C         8.66567899882761    2.97536141309297   -0.89489589440025
H         7.81227085193459    2.59714386231628   -1.43775082918698
C         9.04613663407157    2.36543108520845    0.28960360130323
H         8.48701621948397    1.51458514829919    0.65119946412608
C         9.82353502016561    0.57445543768974    2.65879227678080
C         8.47829843483953    0.71115522434623    2.99415777448285
H         8.06483544737680    1.70877172549136    3.09332132029181
C         7.67814983248229   -0.39573394691592    3.19254310112787
H         6.63568717059715   -0.27433078996119    3.44869958927788
C         8.21966613533678   -1.66474543326750    3.05953478237127
H         7.60088271365521   -2.53497874682431    3.21722030588055
C         9.55451547221349   -1.81188289262566    2.72301322999915
H         9.97688071816224   -2.80009626345945    2.61399450099054
C        10.35807464312420   -0.70057562536106    2.52748620347989
H        11.40066414895202   -0.82959664913386    2.27499520343510
C        12.56567607590397    5.06429926253390    7.12567875046726
C        13.67253548023380    4.29417153458820    6.79918320025245
H        13.56801566350533    3.52011330337139    6.04971286315054
C        14.88839740156591    4.51076010640929    7.42473273510331
H        15.74365926925895    3.90671451890204    7.16063442781510
C        15.00506201784810    5.49574071858767    8.38968527057173
H        15.95183020317097    5.66651952060589    8.87900543314090
C        13.89936621529502    6.25876903821313    8.73355730022065
H        13.98395581726415    7.02160866907235    9.49304205490083
C        12.68509651687996    6.04204958545231    8.11237082856368
H        11.82537140394880    6.63580121786053    8.39082025429094
C        10.35133174888129    6.46354736634727    6.10876738212909
C         8.99982664415488    6.80087201591889    6.16094632961818
H         8.26856859483918    6.06738369724968    6.47949793231452
C         8.58081585867082    8.07902828526803    5.83325100062555
H         7.53181793334266    8.33136384545436    5.89523877800272
C         9.50121131041213    9.03018106617141    5.42617145916889
H         9.17219001739567   10.02542669964224    5.16915002714445
C        10.84452452960268    8.69918988972301    5.35329624011699
H        11.56583142724818    9.43760451565151    5.03672409577618
C        11.26624045989598    7.42678048324452    5.68974084585543
H        12.31607139843292    7.17227832474219    5.64112124876407
C        10.14146810310867    4.27602890203222    7.98124684621420
C        10.37275439041104    2.96182736976601    8.37945287486898
H        10.96737514546034    2.32526063944849    7.73845153184146
C         9.85938729314611    2.48328368964882    9.56872293188721
H        10.03972334786198    1.45978088560543    9.86249476623301
C         9.11621490445109    3.32187549548420   10.38455431499907
H         8.70698657367169    2.95314343858175   11.31282408076064
C         8.91493519588202    4.64045052661425   10.01388591734126
H         8.35753496683492    5.30340636854751   10.65902361737817
C         9.42733556591907    5.12227799273698    8.82077009564386
H         9.27001847669366    6.15872365961178    8.56037768107546
H        12.10284366974800    2.93252946087902    4.79716572638628

