83
CSD_code = AFAFEU | q = 0 | S = 0 | Stoichiometry = C34H39N4O4PRu | MND = 6
Ru        0.91683891814666    1.55701758870226    9.94690170893723
P        -0.65946470458382    0.77477463830658   11.47053843297035
O         1.98713081045849    3.48190794990275   11.96379660824867
O         1.62556575386379   -0.27632918227016   10.67092306584826
O         0.37990847978774   -0.14119547846852    8.88068136930344
O         1.26009199570254   -2.10533378329575    9.44995451576372
N         2.51724033218669    1.47307630848937    7.31287438016747
N         3.80902492218042    1.38291933393710    9.02309743837785
N        -1.40883007284848    2.84046056846903    8.42628559537045
N         0.06269291031393    4.34514313259129    8.82886959273336
C         1.57393051111279    2.76813213751758   11.14680697140559
C         1.09399540100375   -0.91408028973465    9.65122005120488
C         2.52494402483863    1.56700840351977    8.65782108423001
C         3.78860843809279    1.24247032725136    6.83215464353191
C         4.60823618464353    1.18737982819359    7.91770788722365
C         1.33061473360867    1.54280887645950    6.50173716275860
H         0.55898001816710    0.93009980664819    6.97144565545674
H         1.53909005795688    1.15163554076291    5.50917899926826
H         0.98216845957738    2.57579587674038    6.41910685727727
C         4.09497038714406    1.08766815728746    5.38539243437394
H         5.16926820090047    1.01737050456063    5.24196791514371
H         3.72574317405201    1.93919339756013    4.81410990837448
H         3.64042352191186    0.17961890992735    4.98870231416814
C         6.07492549802414    0.96292314135318    8.00933965488284
H         6.51041672387900    0.94720490569657    7.01443169577462
H         6.29034916839923    0.00800353765945    8.48915091049382
H         6.55331271836514    1.75503331930631    8.58475391019274
C         4.27504091788604    1.34746984387226   10.38491252176117
H         4.39332706493098    2.35902407661816   10.78070345895847
H         5.22741127963131    0.82568117201986   10.43468314473395
H         3.54315537379260    0.80508244773993   10.98638320230161
C        -0.17252113703476    3.01314406077790    8.94719207150392
C        -1.95958339369695    4.04163631182926    8.03174044507149
C        -1.02842016243703    4.99707046280749    8.28665225422882
C        -2.07469887311591    1.58347470214930    8.23363621871651
H        -1.39230170220556    0.78038675016217    8.51777966751649
H        -2.34243577544480    1.46141026394646    7.18171329416098
H        -2.98423894348798    1.53487518686236    8.83630057033278
C        -3.33075845262622    4.13493310958224    7.46977984180256
H        -3.58653461089365    5.17189442252267    7.27345340137666
H        -4.05528537943311    3.72327738911197    8.17221014802481
H        -3.40919249546552    3.57740706474316    6.53652286014663
C        -1.05959746177568    6.46797607477284    8.07705849650927
H        -0.35476999288575    6.77060705617271    7.30177651663691
H        -0.79880885720821    6.99141417749339    8.99570524826401
H        -2.05458980837680    6.77747253202105    7.77132061149236
C         1.28843335111005    5.01990915776895    9.15749227349545
H         1.20607027916115    5.54378893301350   10.11214345244782
H         1.53200143067394    5.74178163326432    8.37728894557340
H         2.08512594662464    4.27842032427852    9.22940269265976
C        -0.14205584924719    0.98461281314942   13.21088074278219
C         1.19885331545573    0.79245746585397   13.53445921134414
H         1.88821973112513    0.50156492730336   12.75432378709865
C         1.63417197223809    0.94657127789318   14.83737868615581
H         2.67653816271834    0.79458382322564   15.07771291350370
C         0.73612257231340    1.29658594048588   15.83245945996813
H         1.07528132024423    1.42195794740746   16.85064656772063
C        -0.59967656108095    1.48137724052967   15.51907872401508
H        -1.30506128636587    1.74897702074692   16.29310300108562
C        -1.04044400182531    1.32491049576733   14.21664513436522
H        -2.08577783375179    1.47234265909760   13.98579125260980
C        -2.28543538659118    1.62287921530733   11.53683141307251
C        -2.23719621937267    3.01143637812744   11.43472750816804
H        -1.26589436641033    3.49078561963334   11.36776994958402
C        -3.39793175241960    3.75980826313976   11.42210395031420
H        -3.34870567305657    4.83612854945208   11.33800046231873
C        -4.62790410913374    3.12533587334072   11.51213335786701
H        -5.53971207758568    3.70466927967529   11.49238249478507
C        -4.68474451533591    1.74743286338974   11.63699724234493
H        -5.64159862682870    1.25255232689793   11.72417886515800
C        -3.52050053133564    0.99666023730144   11.65305185715648
H        -3.57432494264569   -0.07744530423542   11.76129336779445
C        -1.10291221040772   -0.99102087019417   11.42484342748662
C        -0.53677741963478   -1.88638123188274   12.32618103901024
H         0.12626694403733   -1.52691807936948   13.09995616234476
C        -0.79723054984716   -3.23951618866172   12.21744295134810
H        -0.34246461661374   -3.92796485852602   12.91502106885615
C        -1.61530642939512   -3.71476449462585   11.20767697598720
H        -1.80139068553594   -4.77477880125598   11.11394131591895
C        -2.17829974183781   -2.82946661035042   10.30509338827782
H        -2.80445161829969   -3.19548515648409    9.50380900579096
C        -1.92262893925453   -1.47556579913643   10.40859685277791
H        -2.35113323917868   -0.79556743376178    9.68608576213917

