91
CSD_code = AFAJAS | q = 0 | S = 0 | Stoichiometry = C44H37ClN4O2P2Ru | MND = 6
Ru        2.75971896825232    4.03674839705955   20.18375166665851
Cl        4.95686316223768    3.50029872803130   20.79961695073792
P         2.75262941785965    6.14201949035287   21.14711158267295
O         2.58083833981037    2.00361616828323   19.42130712633501
C         0.56608813499058    1.95626380274477   20.77543344615833
H        -0.22027921050734    1.22968647975331   20.99499415447520
P         3.44937866660974    4.35525149325258   17.97782434318810
O         1.25031819685862    0.22276546296088   19.23680295483953
C         1.59801279319738    1.29483000639537   19.67417224226548
N         2.26105837714096    3.17475032176288   21.96568177523937
C         2.82906636963961    3.14657156480467   23.15867119262590
H         3.66236479142922    3.78314658160564   23.38674718388139
N         1.27765404841178    2.27673494262522   21.97687218368607
C         2.19048199835372    2.20185900646564   23.96475102633264
H         2.42510333553617    1.94947034454994   24.97740378746904
C         1.20431853117870    1.66048431214245   23.17428165098459
H         0.48171899423662    0.89420894480362   23.36852257495239
N         0.74903870704485    4.14336781536664   19.76871390013025
C        -0.06336685846511    5.00909372638655   19.17761573411099
H         0.30787476987730    5.92453783091433   18.76205929548678
N        -0.01238950753975    3.12545506922922   20.18079310133944
C        -1.37550920056467    4.53258815838268   19.20374372812589
H        -2.24426313809171    5.00935323830640   18.80103151170859
C        -1.30538868818841    3.32110591351438   19.84970670899360
H        -2.06120375315240    2.60074635952167   20.08723275032542
C         4.17285025679163    2.85869002725740   17.20413876358269
C         5.38180703338548    2.41530404864914   17.73598136947642
H         5.81693142950314    2.93281807400254   18.57959623822723
C         6.01366158570173    1.30726607751894   17.20540288874121
H         6.94262498776141    0.96428405242910   17.63710179919223
C         5.45662618040062    0.63700757263851   16.12901209672541
H         5.94581814082509   -0.23386246702442   15.71711741441644
C         4.27004024019162    1.08988703435462   15.58064015482517
H         3.83319379632663    0.57808491209445   14.73477397429433
C         3.62884396832199    2.19653147646312   16.11012088200381
H         2.70683332981777    2.53250195319843   15.65849688875461
C         4.79214359772245    5.49619505111305   17.50820637983727
C         5.20784333625944    5.60272683405537   16.18330512468002
H         4.71508155475263    5.01950983391764   15.41682922312716
C         6.25148836537439    6.44760146873385   15.85723639138427
H         6.57096688762376    6.53441621149957   14.82866893621526
C         6.89482321715051    7.17722057332081   16.84647421148894
H         7.71150059608486    7.83371401539712   16.58378512818536
C         6.50060982141417    7.05290283268882   18.16770113004119
H         7.00849138691003    7.60507941589513   18.94479062771701
C         5.45260749284475    6.21153652297076   18.49696424465697
H         5.14704450533256    6.08163256433824   19.52701916496859
C         2.09608254811767    4.75449169884187   16.82388388759209
C         1.04457028865078    3.83990734061923   16.75272761000392
H         1.10222852196238    2.92128361123591   17.32463278876023
C        -0.05231377111233    4.08802810542929   15.95027970681278
H        -0.85446916762987    3.36625611761468   15.89492523061516
C        -0.12179610263036    5.26442274031286   15.22098029075111
H        -0.97951553245305    5.46286382182407   14.59537554278501
C         0.91216673529403    6.18192606717696   15.29381239568091
H         0.86034856711227    7.09807755511005   14.72320983323262
C         2.01651975002698    5.93130459738400   16.09020160698980
H         2.82350389568317    6.64820391460998   16.13125595433101
C         1.86653777451749    6.04966437940624   22.74928648952296
C         0.54347952912203    5.60763575332358   22.74662623780750
H         0.04281333247237    5.43737939157166   21.80253770776784
C        -0.13520694163130    5.40488049069739   23.93225998622072
H        -1.16092520363937    5.06429115907684   23.91502191814569
C         0.50009910235614    5.63541432313338   25.14261072892693
H        -0.02718886351845    5.46966516619003   26.07018192454164
C         1.81041243135796    6.07944863901464   25.15559293915621
H         2.30846228713993    6.26388176424612   26.09604655417401
C         2.49288217149486    6.28375202546448   23.96799198857664
H         3.51843235592913    6.62263232454204   23.99015793343420
C         4.19602037357234    7.15624608517383   21.65007747012299
C         5.36920357793715    6.51881478664362   22.04888054335381
H         5.43964138165634    5.44086223405213   21.98126471107026
C         6.45044421630799    7.26421608237814   22.48533857909973
H         7.35695091444407    6.76054748653465   22.78617875956751
C         6.37204505406929    8.64600215057844   22.53306866645475
H         7.21677641570808    9.22757421801368   22.87258233689567
C         5.20582175428757    9.28269708123806   22.14117505770384
H         5.13914540342311   10.36058517738245   22.17663853803585
C         4.12032022596722    8.54571367846466   21.70307385783382
H         3.21676050726824    9.05545561840645   21.40264334493724
C         1.78748672025818    7.42345580222487   20.26494394858506
C         2.18359891755850    7.69191935952108   18.95723552118506
H         3.01045380354720    7.12936048354893   18.54298806977859
C         1.53332404353256    8.65353702109602   18.20815228052282
H         1.85057716669693    8.85849532049234   17.19675302432183
C         0.47089247197113    9.35462212845212   18.75694209878634
H        -0.04485887942975   10.10202591171715   18.17275610698603
C         0.07662832981104    9.09870969338519   20.05911648772852
H        -0.74452039694955    9.65063143906092   20.49282083413467
C         0.73345559427078    8.14325755602897   20.81622845231363
H         0.42764973885158    7.96755745400031   21.83713644951941

