61
CSD_code = AFAJAT | q = 0 | S = 0 | Stoichiometry = C24H27N5O2PdS2 | MND = 4
Pd        0.60308664452717    0.21532249578396    2.46814519694821
S         0.32492921169784   -3.94811085911706    0.74140191891257
S         2.07900435637102    4.43576862373327    3.11037124805927
N         0.06796123187870   -1.63395228872653    1.81148088079567
N         1.75091415247131   -1.84254228615827    0.10074198479544
N         1.75131739936708    0.43679957499686    0.83721649996506
N         2.67827588827330    2.58441603904127    1.35265604544154
N         0.87136595297297    2.18579314228062    2.89530194326119
O         0.10626078045032   -0.25145976430283    4.46768272198205
O         2.26296333924044   -0.64675243260318    4.19901149473757
C        -0.19994130642819    6.44036369426337    4.35281871290363
H        -0.98218702885733    6.23789777516548    3.62483329235258
H         0.65815731029869    6.85806575220701    3.83167652101948
H        -0.56868009797135    7.17516565731507    5.06407328071322
C        -1.97583493801343   -1.74818944718729    3.18964548497569
H        -2.94682758346837   -2.21536246708367    3.04430742547123
H        -2.03639490690355   -0.68753389085789    2.91888719058877
H        -1.70066485188553   -1.80921693674997    4.24143999131794
C        -0.94417694991816   -2.39733021920309    2.32506169097942
C        -0.95749546563031   -3.68877104794538    1.88870279601562
C         0.79498192278109   -2.27799355524546    0.91340472844670
C         2.16747962385427   -0.60955202198833    0.07456131004785
C         3.26347192744851   -0.16565742975808   -0.78292850474160
C         3.99391824119560   -0.79806250102252   -1.76968720596239
H         3.77971511956978   -1.81845787593294   -2.04428476859941
C         3.54076704264378    1.15790655788860   -0.40875301208451
C         2.60556204593498    1.48105647199993    0.66573217204773
C         1.87403272775588    2.87059947048560    2.37008988288468
C         0.68123413196077    4.13243022401958    4.10144778026913
C         0.16869611549527    2.89942244728364    3.82694829080684
C         1.24260811534614   -0.62855010969076    4.89846598728067
C         1.30004605424415   -1.07713689934981    6.35244090958169
H         2.10195666199390   -0.54700684229205    6.85942645922313
H         1.52460067571134   -2.14094496749470    6.38309945290024
H         0.35112536373802   -0.88776968122766    6.84676117367605
C         5.00487600279529   -0.07082284736892   -2.38366242130259
H         5.59318094901305   -0.53316444115165   -3.16260733466302
C         5.27945314748864    1.24000631818346   -2.01316205352623
H         6.07627701474580    1.77299186601987   -2.51077139155018
C         4.55390161441404    1.87506874818738   -1.01407091677653
H         4.76585350910918    2.88864768265795   -0.71368517362120
C        -1.88279117073676   -4.80180208164619    2.26282072928222
H        -2.58775023533177   -4.42235411876469    3.00911055425553
C         0.20354126804314    5.15638278968232    5.08032485321115
H        -0.66998174591024    4.74977515557681    5.59950875309362
C        -1.11275973551987    2.34030195944326    4.35445072252639
H        -1.82135786443717    3.13780979141476    4.56444053107410
H        -0.94360577287327    1.76115370253112    5.26086076082780
H        -1.53371154146643    1.66683821907650    3.59871064802278
C        -2.66224086904513   -5.27990805953662    1.03614440144939
H        -3.23123312954692   -4.46127427837813    0.60143910647805
H        -3.35152214086345   -6.07310801030956    1.31454381491318
H        -1.97528567496639   -5.66137393457633    0.28450646795762
C        -1.09111336464017   -5.95508787220466    2.88243797752858
H        -0.53321714054542   -5.61071213796003    3.74999129391334
H        -0.38887237055007   -6.35776091642609    2.15618682138861
H        -1.76511295004803   -6.74878198187097    3.19493682198142
C         1.29530699925304    5.44164510090556    6.11354929362317
H         0.93829673171517    6.15711952211505    6.85010271274067
H         2.17437572862061    5.85323581047563    5.62305995280152
H         1.58126383313508    4.52681961139557    6.62715209736146

