109
CSD_code = AFALIE | q = 1 | S = 0 | Stoichiometry = C57H48P3Pt(1+) | MND = 4
Pt        3.89183331953793    9.20082302630503   11.17532011645314
P         2.10995867215718    9.14146463158477   12.66042830643504
P         5.54878603224400   10.12898806451800   12.56055214323680
P         6.48664543528313    8.38322781531597    7.30724405850153
C         2.54704841793704    8.70921318884731   14.37287312949417
C         3.20661623479667    7.49205197318330   14.53003623783085
H         3.39286002561727    6.88037202937478   13.65436314678614
C         3.60013609829913    7.06518144474223   15.78251744937456
H         4.10583971126850    6.11797841376508   15.89871899587285
C         3.34073750526243    7.85697550521115   16.89022185302793
H         3.64111571101908    7.52545341768203   17.87261131394822
C         2.69829252877662    9.07368231013090   16.73754681579999
H         2.49934190686019    9.69078826723952   17.60089519163416
C         2.30531342165685    9.50661714340309   15.48285734262751
H         1.81244747024189   10.46130244846385   15.37018988059156
C         1.41113070186415   10.81530889359183   12.75193372762398
C         2.09432038125602   11.82352594093148   12.07995206788626
H         2.99802643483252   11.56703266566911   11.52356452166066
C         1.62685778168467   13.12417189508391   12.11095330173777
H         2.16144618202035   13.90594514300662   11.59125699236334
C         0.46683918968264   13.41986708765795   12.80890360823976
H         0.09885297906705   14.43439138247713   12.83755789019186
C        -0.23065626599239   12.41424126873981   13.46069044566860
H        -1.14193464283477   12.64723238959687   13.99111532000356
C         0.23403309471443   11.11193358918066   13.43106585100234
H        -0.31603137289694   10.32276191717474   13.92522263648664
C         0.60199192873751    8.15418749700721   12.38904576287315
C        -0.06446972638277    7.47263424486386   13.40011644249171
H         0.32291660316948    7.48266321093005   14.40938331619502
C        -1.22470882439509    6.77617686075642   13.10943242899025
H        -1.74110664350494    6.24606174204678   13.89590263106044
C        -1.72495434186081    6.75839827829574   11.81805231496296
H        -2.63054356967463    6.21325713969273   11.59886371705675
C        -1.06154408331392    7.43629035565962   10.80721696361864
H        -1.45026040034430    7.42134435902077    9.79962250904264
C         0.09969942883782    8.12816027938898   11.09158797274212
H         0.63441831875272    8.65670778478360   10.31182590334612
C         6.87433153742317    8.87913721834881   12.46625281187816
C         6.44852138367332    7.57026535672234   12.25121373471682
H         5.37863623658651    7.37529186141531   12.15784760705721
C         7.36605468074896    6.54196655227765   12.15040863399252
H         7.02897892149174    5.52680320480207   11.99679940595717
C         8.72134591370770    6.81842498193599   12.24752157204171
H         9.44424638369015    6.02045755480344   12.16753720672165
C         9.15110353383121    8.12006487783244   12.44715447212096
H        10.20735530320658    8.33331385535080   12.51820167474110
C         8.23340027351925    9.15066464477258   12.56067355276316
H         8.57495831672104   10.16403392809855   12.71471911853136
C         6.34173609831218   11.64538503456761   11.93509763463159
C         7.24645057532352   12.38665169152896   12.68980854790803
H         7.46675559952127   12.09557414607906   13.70759761407739
C         7.84645889094416   13.50651156462091   12.14307783629401
H         8.54895166861456   14.07859715035719   12.73060082321899
C         7.54665512722218   13.89879132053420   10.84779944196998
H         8.01825074378474   14.77434556729473   10.42763468897568
C         6.63065419409098   13.17728491521926   10.09988988588950
H         6.38021280949528   13.49250218825540    9.09699450079474
C         6.02804613354692   12.05794194213234   10.64443488535341
H         5.29675701557988   11.49384559539853   10.07398831801764
C         5.46104493087395   10.49731158274590   14.33990713045760
C         4.74425756005940   11.63025841597477   14.71938824265316
H         4.28857396893694   12.25038401164566   13.95759066321002
C         4.62751890177560   11.96252568707706   16.05418400179140
H         4.08092385969334   12.84795994000694   16.34307360694488
C         5.21260022682068   11.15870891011266   17.02049478711035
H         5.12777030120991   11.42123642507303   18.06408727684463
C         5.90181041360592   10.01728538832217   16.64810082743898
H         6.35064299353027    9.38699722139456   17.40121589310577
C         6.02427384252422    9.68030672803370   15.31168031331003
H         6.56358105024588    8.78894725107743   15.02343449161057
C         7.08762432110764    9.75400041776718    6.29111437567834
C         7.04895363293153    9.65874960579889    4.90186653570287
H         6.63245751888207    8.77674411086989    4.43346701169726
C         7.53119779643594   10.70082718324025    4.13161552890673
H         7.50253816232932   10.63024151522402    3.05507130691528
C         8.04740723364606   11.83429665881600    4.74119914507073
H         8.42133249768010   12.64594619259173    4.13649356260066
C         8.07928971666887   11.93073788607528    6.12328807784379
H         8.47759561113030   12.81594251257636    6.59523497266841
C         7.60135459670924   10.89278312520547    6.90321073588409
H         7.61837545034903   10.96875282828102    7.98119988870956
C         7.79021408044903    7.13512865567707    7.41719535310451
C         8.70960887404957    6.95299346480916    6.38942533138755
H         8.66993116653536    7.57778086508498    5.50840205769504
C         9.67776292249916    5.97230692946665    6.50961889060613
H        10.39335326631794    5.82596930667061    5.71526508188051
C         9.73049429599087    5.18056994753983    7.64655488733629
H        10.48800793582642    4.41702233712290    7.73367776821372
C         8.81699924150343    5.36808389824455    8.67224923460224
H         8.86214290838439    4.75295433258213    9.55767161254651
C         7.84517074221418    6.34514380775824    8.56267433165161
H         7.13200433363986    6.50800815608815    9.35966567801634
C         5.04081097881751    7.68320272739133    6.49233776067982
C         4.86635517584496    6.30703019982077    6.39983607097539
H         5.62630693949741    5.63934827236701    6.78190305054737
C         3.71704120705167    5.80592839999075    5.81410570545455
H         3.57627982672231    4.73874045587805    5.73632122888029
C         2.74932625736229    6.67111080105226    5.32844640030941
H         1.85568809431978    6.27493553042479    4.87144447681152
C         2.92470991632143    8.04375589634382    5.42420804236122
H         2.16888043571315    8.71386011201725    5.04373423276123
C         4.06897623946130    8.55499485387410    6.00652673314250
H         4.21934084467751    9.62341183714702    6.08688973252162
C         3.52433291768979    8.47254130647619    9.26112423444749
H         3.33144894701194    7.40933046865533    9.12084013860329
H         2.88410709537357    9.10423439840533    8.64412922509605
C         4.85640986379624    8.89231279865580    9.47440476417508
C         6.07989288056860    8.93231703990304    8.95199205519502
H         6.94082105124060    9.29407084871173    9.50904127449746

