56
CSD_code = AFAMIF | q = 0 | S = 0 | Stoichiometry = C26H22Cl2FN3OPd | MND = 4
C         3.40281601797899    1.85872531720094    4.23205119561042
C         4.54122114168298    1.52417244594258    4.95221878989414
C         3.63967872099422    3.33306621586290    5.88558860836296
C         5.61119198529357   -0.05420674964049    3.39755834844004
H         5.31189780337643    0.59001941770784    2.56644565561533
C         6.29558738773001   -1.22632154175096    3.12539084989585
H         6.47442853606855   -1.49836926147029    2.09628882732611
C         6.74701589950664   -2.03052701759896    4.16791630160014
C         6.50156003334140   -1.63548176753650    5.48394879301910
H         6.84524481648046   -2.27451517348599    6.28188471189709
C         5.81503298008370   -0.47274966082680    5.75283260139259
H         5.58903015899012   -0.22235415644257    6.77894940203551
C         5.36204653908006    0.34255377690132    4.71446613895419
C         1.65893329135140    3.60624224036709    4.36992697049889
H         1.87677968603842    4.11027450854795    3.42085068561712
H         1.33877472813189    4.34078655053124    5.11215149868763
C         0.59856722135095    2.54846397923046    4.16152377168319
C         0.04390271469559    1.89587062021975    5.25584270540224
H         0.34261241857148    2.17474704446554    6.25644367679889
C        -0.87744077512130    0.87936525032402    5.07975793474028
H        -1.30346417785269    0.35485574319079    5.91956131958273
C        -1.23546795951603    0.52466680927934    3.79274042039137
C        -0.70816923605387    1.15976096213800    2.68148329215964
H        -1.03285144545940    0.86090805116732    1.69575500172950
C         0.22857086595007    2.16827806530436    2.86773751533255
H         0.61408557204996    2.72171578046398    2.01444824802429
C         2.91886405333219   -1.48026526256818    1.03884525893791
H         3.51737859804137   -1.75399827395968    1.90507993019742
C         2.80544181857122   -2.32641393558354   -0.05082539169412
H         3.33312301231733   -3.26741594349494   -0.05999671802838
C         2.00512076398572   -1.94650209391984   -1.11710711010982
H         1.89279100867280   -2.58585573930030   -1.97992673631470
C         1.35571019024715   -0.72436517178694   -1.04968270916308
H         0.72624368160199   -0.38287858730401   -1.85642703406805
C         1.52866289823462    0.06520913326890    0.07440497273053
H         1.05878674561709    1.03922020977553    0.14678922844182
C         3.53602607656285    4.37941620614097    6.79736761936193
H         2.71376619754174    5.07275781586917    6.73162905065319
C         4.50432745049127    4.50866148325653    7.76540617934405
H         4.44907831515671    5.30751426234098    8.48606417758279
C         5.57933282593688    3.60513199401019    7.80208706859737
H         6.35330032209267    3.71758048812566    8.54297861596126
C         5.65716317439200    2.58577756197378    6.89922374237266
H         6.47333844464390    1.88287093928406    6.86737922355948
C         7.65956005016600   -3.67728250626999    2.71353490931106
H         6.72039410716663   -3.85630822188985    2.18025066885831
H         8.18813185712619   -4.62134992623181    2.83630011154077
H         8.28233708299300   -2.98829473481141    2.13339388066556
Cl        2.07772259704153   -0.79302282703102    4.14078651634508
Cl        3.42509753218960    2.55341377637039    1.29584980638446
F        -2.15186650258450   -0.44531933209431    3.61038415637532
N         4.68520076833758    2.43519232253703    5.96442397241703
N         2.87754134402184    2.96934773329593    4.83431915483625
N         2.28848068130873   -0.30711159973044    1.10068127838082
O         7.42967487283807   -3.19729941985230    4.01553905950072
Pd        2.75648510719900    0.84464219950759    2.69638385232688

