66
CSD_code = AFANIG | q = 0 | S = 0 | Stoichiometry = C33H23Br2F3N4Pd | MND = 4
Pd        2.15172723248551    8.75544928443524    8.59060264810880
Br        1.44951328160765    7.21032433241703    6.81142867238832
Br        2.71224627339977   10.36200449488379   10.35683258531826
F         3.06891482934802   -0.14773451235440   10.68626572198538
F        -2.02266511570905    4.83799878231391   10.24189202822283
F         5.19321972891015    7.56387665039184    4.66993638510313
N         3.93337111107571    5.21344209637107    9.85564522973142
N         3.44172453566783    7.31527661314705    9.33233664316010
N         0.86944738321723   11.14563063432883    7.32973179036861
N        -0.52885632461375    9.73875491795620    8.23736550308937
C         2.98341598154909    6.10029241991406    9.47212799603932
H         1.95676257028359    5.80755736930405    9.32405170503676
C         5.10972280178474    5.92670708514864    9.96751296189132
C         6.41259513604871    5.55835005860242   10.26950484197487
H         6.67615132782542    4.53243164519599   10.47340268447395
C         7.36137353495330    6.56005289774797   10.28426175223552
H         8.38569725950494    6.31113188456453   10.51591168857957
C         7.03011786681924    7.88973589116516   10.01515864228055
H         7.80337703715722    8.64121107147298   10.06051801156628
C         5.74450750906340    8.26155423273605    9.68831496165413
H         5.48477336129380    9.29030968102806    9.49545939266552
C         4.77970110406340    7.26043339136921    9.64406086798382
C         3.72109023707977    3.84181508687452   10.06943997880284
C         4.29470192042952    3.20891598253047   11.16746858789024
H         4.89132435469194    3.77545838817395   11.86536871574206
C         4.07849658965483    1.85997772026640   11.37547480768340
H         4.51287310077331    1.34836022385221   12.21927346925060
C         3.27960988949141    1.16517519054150   10.48403353665570
C         2.69036698247564    1.78180360338560    9.39376850054306
H         2.07159935048969    1.20995954149622    8.72146460427976
C         2.91633446920016    3.12871351428200    9.18512580637937
H         2.48083618943485    3.62475194896517    8.33104798411215
C         0.78128064007737    9.98350081651729    7.99572259173334
C        -0.97947677133798    8.52374565972768    8.80054156565948
C        -0.37461335782828    8.03865270886552    9.96359242086394
H         0.32409893958455    8.65470520381570   10.52933969793808
C        -0.73285405438346    6.79271698496001   10.45130013302676
H        -0.28317320245658    6.39495532909087   11.34825010434446
C        -1.68763495592520    6.05526175049708    9.77208526149023
C        -2.31331261156536    6.53455374366976    8.63558182841672
H        -3.05149716254727    5.93112438345917    8.13306429054301
C        -1.95095563965107    7.77579942772718    8.14619150554226
H        -2.39061282527912    8.14747261468379    7.23396224958019
C        -1.29533878896779   10.75795233353214    7.70830621511687
C        -2.65984746181782   10.99676154177438    7.70781648411939
H        -3.34982406485899   10.30991188086484    8.17164943908362
C        -3.09563999132517   12.15829655503238    7.09764059154652
H        -4.15167280623509   12.37788343536086    7.07512191975122
C        -2.20321755895506   13.05531884986381    6.51555125573688
H        -2.58591965411063   13.95100343702615    6.05148006772740
C        -0.83882944818247   12.83174681044530    6.52654677782945
H        -0.15632782888993   13.54197228027688    6.08718564829864
C        -0.39169399837270   11.66874716355016    7.13267307290503
C         2.12556117771985   11.71724550629683    6.87895604809909
H         2.63762557967495   12.17297965742607    7.73544563019628
H         1.89869667443151   12.49091308838608    6.14244631986350
C         2.98119241108532   10.63097227427142    6.26754756819726
C         2.63874068285850   10.08647402449864    5.03443294023915
H         1.78056073451433   10.46652733005999    4.49901266689906
C         3.37583482434924    9.04970126182246    4.49075329330561
H         3.11055553840135    8.60904447404104    3.54374624205975
C         4.45881003457427    8.56041604607626    5.19856488127418
C         4.83273400976577    9.08458713130247    6.42440805898459
H         5.69779393855609    8.68842044955719    6.93597714693114
C         4.08083127076657   10.12046362004569    6.96463934161603
H         4.40245421757296   10.60105010054381    7.88407803491793

