94
CSD_code = AFAQOP | q = 1 | S = 0 | Stoichiometry = C45H44FeOP3(1+) | MND = 8
Fe       -0.45180112050719    9.88895354649300    2.26567206975016
P         0.30777372997799   11.59944426652538    3.36372186024368
P        -0.72542987007474   11.28346660107730    0.57942460608901
P         1.50622390479229    9.10547293704239    1.78813422049859
O         2.65143566182656   10.23587796507091    1.97808764748099
C         3.09226683685487    5.69912215262977    4.45087356501696
H         3.45546122829735    4.90918923587436    5.08993496343313
C         0.57634042512088    8.27755109892206   -0.68342643750991
H        -0.36962066157946    8.61057794131249   -0.27873295601080
C        -5.13826621031985   11.36254390772834   -0.73866019246814
H        -6.17434122779659   11.33951078849585   -1.03858899342175
C        -0.49202333905462   13.43359214882529    5.34113996118964
H         0.53680920917209   13.42327881996262    5.67101362239124
C         1.70601364979546    8.38480653327530    0.11635506799518
C         3.47386973816289   11.07690211947374    6.63748172366673
H         4.19954903938208   10.94086154167161    7.42449615883737
C         2.28015744201342   11.11893750146766   -2.15778165130672
H         3.35686176160883   11.04921747806800   -2.11203960753770
C         1.89277095025582    7.35347627281766   -2.45494897438151
H         1.96963468903648    6.96078026073963   -3.45701208600705
C        -4.28956259054654   10.32291434591089   -1.08637745060399
H        -4.66164396218486    9.48969295390778   -1.66350856720825
C         3.78975788692141   11.84940663996141    5.53179128448863
H         4.76092122812966   12.31665923071918    5.46206675564841
C         2.86317144670942   12.03485675677056    4.51891281182760
H         3.10878156190740   12.64961950986108    3.66608990808815
C         2.09932369346812    6.40357953608273    2.38067212569495
H         1.69959960826819    6.15946587682735    1.40616467835042
C         2.22373909982520   10.48440929760605    6.73676533357750
H         1.97356961094954    9.88790691452289    7.60104559087617
C         1.61252260084341   11.43620825347516    4.61001585568572
C         0.03405252539880   13.99415301826680    0.03111844667178
H        -0.77290032780557   13.99512266410023   -0.70004321464756
H         0.95875424969980   13.73955017850665   -0.48177163156001
H         0.13167179525299   15.00052069329997    0.43476343959268
C        -2.22289185789745   12.65747373089839    3.87044198579794
H        -2.53377150276610   12.02545662536557    3.05151590841139
C        -2.72871846942954   14.28349170256931    5.55597410379417
H        -3.43930312581852   14.92545458940178    6.05313970328189
C        -0.48248131689179   11.32723704287102   -2.26621974948642
H        -1.55429129308413   11.43513075526030   -2.33140845598224
C        -0.82106770175204    8.43537796148044    3.72716812188903
H        -0.17870378598126    8.06307196768770    4.50602018212969
C        -3.32005808314498   12.46766751199224    0.38261390994124
H        -2.97036220776388   13.32111536430760    0.94279409742721
C         1.29958867230140   10.65912874161577    5.72447231312340
H         0.32186974253739   10.20108655918367    5.78619218470050
C         0.66457942322112    7.76336971897816   -1.96260897826291
H        -0.21853472587985    7.68523456384341   -2.57869172819340
C        -3.13477901125291   13.48516769353158    4.49921249985422
H        -4.16213619724296   13.50477985925171    4.16709026977392
C        -4.64802178455652   12.43263396117674   -0.01136830473312
H        -5.30172678297899   13.25011073926191    0.25325701079730
C        -1.40795086003279   14.25590039639780    5.97297627183242
H        -1.08757529968616   14.87950172347520    6.79370999635288
C         0.14953900049724   11.23741749433534   -1.03094467648581
C         2.68270649291064    8.02659948816346    4.05320336949015
H         2.72129097832641    9.05527537036127    4.37844567918889
C        -1.78585075873132    9.45768610718199    3.85497904127607
H        -1.98533999789633   10.03247668913173    4.74320832057618
C        -2.51440097046863    9.52937165057845    2.64969593490196
H        -3.39680495083017   10.11754630156891    2.46742592572937
C         2.56695175816543    5.39563703924610    3.20510697224101
H         2.52160623493925    4.36946703945616    2.87325989889682
C        -2.96606942299124   10.35562766188653   -0.69436165071874
H        -2.29855943677904    9.55396194228719   -0.98073886623437
C        -2.46217752132216   11.42653796040922    0.04677090480862
C         2.93076159080802    7.93836360269903   -0.36954012344521
H         3.81093979480105    7.96726066454473    0.25567527103484
C        -2.02572527217875    8.51930377952139    1.78432950773435
H        -2.47201620807384    8.23187654649087    0.84999389769353
C         2.15771066886785    7.72835685030321    2.79980085068152
C         1.63974352370559   11.17277778241580   -3.38510188783133
H         2.21344028846870   11.13603239209074   -4.29816261191513
C        -0.26511606361760   13.01019306669087    1.15521956401404
H        -1.13922163679180   13.36870940152814    1.71217928798298
C        -0.89652502320178   12.62003735461341    4.28658795964097
C         3.02079984661806    7.43480637212731   -1.65513151686867
H         3.97488088659367    7.09766475195159   -2.03138321159129
C         1.53928708963603   11.15171618963975   -0.99310274963318
H         2.03374265046402   11.11234516195559   -0.03564302899508
C         3.15206837223233    7.01732037182161    4.87342325413117
H         3.56211321634994    7.26108202339245    5.84195144389395
C         0.87362132494012   12.87829318853512    2.16506013826010
H         1.05556533559459   13.82802910625734    2.67977761358856
H         1.79237002111920   12.54858837500885    1.67753300977734
C        -0.99242275847488    7.84002375692600    2.44799713708392
H        -0.48890984311762    6.95726006913131    2.09271893317572
C         0.26195403228130   11.28803170887040   -3.43306894238134
H        -0.24175892491306   11.35228865663837   -4.38573474393759
C         4.06642425351699   10.06136035688736    1.91977446021153
H         4.50039992158205   10.82502109439824    2.56585371741563
H         4.42303211148832   10.20521439647292    0.89817928168942
H         4.36734129983133    9.07811803863343    2.28413135801213

