43
CSD_code = AFAROO | q = 1 | S = 0 | Stoichiometry = C12H24MnN6(1+) | MND = 6
Mn        1.54880354765026    0.24470898474595   16.57145935656733
C         2.96413980404850    1.44730367586271   16.99835149593883
N         3.97692551536255    1.85564354526491   17.36104847036601
C        -0.15875309028977   -0.34066934518445   15.94817831632433
N        -1.08308749210606   -0.95654209661302   15.64865181668687
N         1.62916429027320   -0.72193032768176   18.37820022915464
H         2.54430368170472   -0.52777106087074   18.80579694316983
C         0.61373481426207   -0.10787436729933   19.25788862047631
H         0.79939840177708   -0.34422854657917   20.31228461894550
H        -0.36634278312169   -0.51212725523309   18.98137081164761
C         0.61410968312581    1.41275258382569   19.04919355568102
H        -0.13919665202331    1.88001058832527   19.69314564316200
H         1.59568949053307    1.82556968293321   19.30344600581773
N         0.34740557644278    1.68099988626798   17.62422028167551
H        -0.64332696604675    1.46111941499029   17.47011257818201
C         0.51395761757413    3.08736571819643   17.20985135184839
H         1.51314272360007    3.42328986430397   17.49865492359522
H        -0.22383875701217    3.71252680249576   17.72699875595348
C         0.32628168171304    3.26143783895319   15.69346325293866
H         0.19149954963272    4.32657478731186   15.50464097964190
H        -0.59039436132606    2.75138084250882   15.38315304900262
C         1.49328079481439    2.78622593851940   14.81186451260825
H         1.37506691091979    3.22095970744474   13.81204149507405
H         2.43922930128295    3.13846429062839   15.23107530762932
N         1.53787247438886    1.31491428220339   14.70902877486335
H         0.70106736636864    1.04772361481734   14.17797990831355
C         2.69029970408414    0.77438794880790   13.96514009662258
H         3.60642900632059    1.20723462818881   14.37978132233828
H         2.63483251273585    1.02723349288293   12.90049320093562
C         2.70223105660565   -0.75004725193477   14.14339841125304
H         3.54322041961864   -1.18791640431585   13.59285006682504
H         1.77249108779207   -1.16971186598733   13.74351015942289
N         2.77048007406271   -1.07289993992994   15.58323180063851
H         3.73969777277943   -0.89543617686631   15.87842586998440
C         2.47981596301229   -2.48217411492851   15.88631929757334
H         3.16656468357067   -3.13916724692817   15.33509614491443
H         1.45987064850281   -2.70447060433424   15.55142914197608
C         2.60967944787279   -2.78646762084452   17.38527132998107
H         2.57116846027503   -3.86980754086058   17.50558347110185
H         3.59049877918361   -2.45415318389148   17.74403141082037
C         1.50763638198109   -2.18319511952223   18.26725142547782
H         0.52475185138499   -2.41693016258632   17.84163241286659
H         1.56309902666853   -2.64600788708712   19.26215338200378

