113
CSD_code = AFASAD | q = 0 | S = 0 | Stoichiometry = C50H56N4P2Ru | MND = 6
Ru        3.13203560285726    4.66721554728815   10.63835541991723
P         4.02608967084287    3.91894134271777    8.70906753822118
N         6.11035669031817    4.43645409044448   11.61810092132267
N         4.98182629548559    2.78642911039429   12.37843650267539
C         4.84866772439433    3.93407359126452   11.65896890581834
H         3.74979217542717    6.09650239130107   10.59642907808410
C         7.00513201027404    3.61915650426351   12.27497880429188
C         6.28967738781371    2.57639300164384   12.76163526649123
C         3.94120178229346    1.88725905203850   12.78505231042814
H         3.76491995516649    1.95422761513011   13.86293846357664
H         4.20956113562016    0.85992612553874   12.53620029591097
H         3.03373124797576    2.16726059769044   12.25833158369653
C         6.53763413554827    5.67734583192042   11.04126265370510
H         5.64928175349635    6.23749522275128   10.76143916666774
H         7.15608840757201    5.50217374183166   10.15759044693814
H         7.10726633848045    6.25237443429481   11.77356254957626
C         8.45703893598610    3.92417318311466   12.35419853172880
H         8.63471763863354    4.83842976368720   12.92187565223384
H         8.87391819860459    4.05692703192109   11.35615427002248
H         8.98243982644035    3.10797291439082   12.84198295295737
C         6.71213488846565    1.39444951809924   13.55720952230998
H         7.76924699228216    1.46761457552944   13.79658593205558
H         6.54950891243093    0.47308908453927   12.99760079645672
H         6.14930087861372    1.33082678207321   14.48858825703350
C         2.77990415852997    3.11437143908082    7.62171873240571
C         1.93366259620171    4.00083000360943    6.95483421069116
H         2.15231317969327    5.05905161505715    6.99922822315358
C         0.84862449590271    3.54753458582091    6.23314625939201
H         0.19969015126295    4.25248033056138    5.73129378961886
C         0.59383290762004    2.18722363049763    6.15290810823219
H        -0.25757109562021    1.82475229577773    5.59447814777117
C         1.44675631212621    1.29606076450494    6.77990542721988
H         1.26688434465764    0.23267888116799    6.70063518530697
C         2.53112638835326    1.75241822180915    7.51125239718003
H         3.18998199937912    1.03611386807698    7.97807531883439
C         5.30422419346992    2.62615266276619    8.95788198042191
C         4.95821246970270    1.47052013324305    9.65555637792829
H         3.93174394758907    1.33849481515447    9.96595010044629
C         5.91226907438977    0.52495062715884    9.97782523936391
H         5.62298805462008   -0.37957682035972   10.49682184493087
C         7.24084011242065    0.73532188114528    9.64587054763801
H         7.99073803465477    0.00283084109141    9.90823840205458
C         7.60232354777921    1.89678872253456    8.98626513084773
H         8.63933322858303    2.07419919473268    8.73611556072498
C         6.64393668245003    2.83359540151909    8.64118259395775
H         6.94326090961551    3.73279756852872    8.12022186693634
C         4.88714450011739    4.83779519415737    7.35395237270046
C         5.40004196826710    6.10901217494328    7.56811945010827
H         5.27811601878447    6.56504349557797    8.53930927920726
C         6.06519856406336    6.78349615539541    6.55838446567500
H         6.45867579938166    7.77420115421495    6.73913152799252
C         6.22723402694284    6.18792604510363    5.31959836724202
H         6.74390904306655    6.71179286601512    4.52815198968903
C         5.72872748246804    4.91291659104865    5.09860124377735
H         5.86150556199326    4.44143216125238    4.13491684868411
C         5.06570921798285    4.24124313058356    6.10743653403461
H         4.68582642801970    3.24304635068389    5.93539179614092
P         2.23714812290469    5.41498558660750   12.56870633689821
N         0.15292119002624    4.89746967610171    9.65946242009291
N         1.28144436092727    6.54762347391448    8.89938912250161
C         1.41458139796681    5.39993328873048    9.61878156851320
H         2.51364428612843    3.23817658090144   10.68291864303612
C        -0.74177728613899    5.71463746585201    9.00232379056954
C        -0.02632894226439    6.75748615907806    8.51584519773637
C         2.32202000763940    7.44700937957206    8.49309686287296
H         2.49870283197817    7.37997289659821    7.41528281974920
H         2.05338235482566    8.47431714212933    8.74174714857201
H         3.22937752645341    7.16728700137654    9.02013976107589
C        -0.27437660499504    3.65653908987105   10.23618649354221
H         0.61395893365160    3.09654157716796   10.51633742947365
H        -0.89318668547686    3.83160298928460   11.11962673029999
H        -0.84362302220489    3.08142970987806    9.50364963757261
C        -2.19362671826724    5.40945830260150    8.92277147412007
H        -2.37105284656188    4.49511856951117    8.35515383483048
H        -2.61072857653867    5.27676690887853    9.92073112068304
H        -2.71899993573015    6.22554522045103    8.43476844679274
C        -0.44871721253879    7.93936263171145    7.72012998681447
H        -1.50581388029619    7.86618834084608    7.48069413928162
H        -0.28611649611575    8.86078515694170    8.27964347543754
H         0.11417314915746    8.00288445164164    6.78877655915561
C         3.48291371439931    6.22011376704354   13.65618672695588
C         4.32980897201861    5.33398440398925   14.32268220529949
H         4.11183510843432    4.27564180901758   14.27792388341448
C         5.41462030506557    5.78772463024840   15.04443392501998
H         6.06413573167431    5.08302019280155   15.54588284271665
C         5.66849444650814    7.14817690026117   15.12519608730427
H         6.51978024352853    7.51100510919954   15.68357902748958
C         4.81490966993717    8.03900254373409   14.49862576952620
H         4.99405855940139    9.10247715817366   14.57832107681753
C         3.73078710806475    7.58219683441893   13.76718409196554
H         3.07127646905794    8.29824310357208   13.30088853549059
C         0.95871811080107    6.70754784811023   12.32007839064648
C         1.30452352082931    7.86326211997361   11.62242750165398
H         2.33101431930683    7.99555947199847   11.31222221331226
C         0.35028078921707    8.80859772341610   11.30000937094487
H         0.63944233767793    9.71326386063784   10.78118213923818
C        -0.97828226844371    8.59792334969693   11.63179693259263
H        -1.72829470714890    9.33031228505499   11.36945624984513
C        -1.33956447871179    7.43638236465297   12.29138116525445
H        -2.37656164504439    7.25876153591740   12.54144495298572
C        -0.38098721960667    6.49981652734223   12.63662592249555
H        -0.68017805265742    5.60050406700776   13.15747264827391
C         1.37609289393700    4.49613189908515   13.92387877708723
C         0.86305412329052    3.22500032080740   13.70950773775214
H         0.98484459529425    2.76918440563566   12.73819799120413
C         0.19808521855671    2.55026595041294   14.71919915751992
H        -0.19556972241070    1.55966790218949   14.53823355148390
C         0.03635023562945    3.14549745747931   15.95818999764241
H        -0.48034068875016    2.62151058619544   16.74955027744519
C         0.53495064694335    4.42042823865057   16.17940706753696
H         0.40233522813027    4.89168627743372   17.14322842696706
C         1.19779429308617    5.09234391476262   15.17060342304333
H         1.57783329792045    6.09043680512318   15.34289379115226

