85
CSD_code = AFAVAG | q = 0 | S = 0 | Stoichiometry = C40H36O2P2RuS4 | MND = 6
Ru        5.24216174116543    4.09054581307373    4.93002668741985
S         5.89947766405041    6.40686222771471    5.37080701079872
S         7.10610788132747    4.07685063350564    6.54815266302156
S         5.45228657224071    1.70271359637162    4.45574658034898
S         7.02823485115955    3.77928705373471    3.22552991406939
P         3.91943910729540    4.43815505009794    3.09072103453537
P         3.66931965715313    3.79303797278493    6.59104144308634
C         7.13752236148704    5.73564240401171    6.29036493677246
O         8.06233999267259    6.54540873082723    6.77792798604052
C         9.10410240644675    5.96253917397736    7.53630880216629
H         8.69967327351451    5.45038838604438    8.41384724384231
H         9.75029308820756    6.78329423046542    7.83793003287931
H         9.66120587516934    5.24091249668493    6.93254004447209
C         6.66487754730827    2.15015235008508    3.37761919791591
O         7.33822692114753    1.28738313246437    2.63471363841608
C         6.99240997819965   -0.07913060336881    2.74349363234466
H         7.15205921088254   -0.43548210309260    3.76451193424503
H         7.64251296018343   -0.60759463286413    2.05050280549303
H         5.94238427439701   -0.22854937388143    2.47570233427933
C         4.41545019696910    5.67228675520160    1.83632948496967
C         5.54479212482841    6.46635670141515    1.96863136466280
H         6.17910848939093    6.36383288098655    2.83671068280444
C         5.86607935069478    7.38805745081869    0.98647708693439
H         6.74923450944772    7.99982515086173    1.09669192050988
C         5.06183969220206    7.52269004990083   -0.13086789931714
H         5.31472999623157    8.23992423042646   -0.89810259026701
C         3.92850509983017    6.73470492562530   -0.26600233216238
H         3.29791165204263    6.83792958199652   -1.13745731565402
C         3.60304471366899    5.81650287492437    0.71198128800629
H         2.72010955996090    5.20033363301315    0.60722569286448
C         3.76752132055493    2.94473147270402    2.06053157556888
C         2.96851224991457    1.89982257541522    2.52208394157438
H         2.39117643177014    2.03717454294828    3.42541562132366
C         2.93919168712236    0.69505343984598    1.84641829037096
H         2.31519345388357   -0.10801781210730    2.21124035585705
C         3.72634961031587    0.51276262526834    0.71934936055445
H         3.71311932707661   -0.43342644756492    0.19739333757166
C         4.54230540432769    1.53885363216201    0.27153721977647
H         5.17081505370948    1.39222349565128   -0.59503500178073
C         4.56866107590816    2.75112395728994    0.93908832435015
H         5.21980479162582    3.54468005149220    0.59766534465260
C         2.21342703473676    5.02663113496740    3.31863335070731
C         2.11072670575361    6.13019128133540    4.16138209335617
H         3.01698058428480    6.52161622649524    4.60873528932324
C         0.87985837234098    6.70196629827230    4.41673942705021
H         0.80377192300729    7.54959278524681    5.08190649576363
C        -0.25702567424856    6.17770827512713    3.82021373233212
H        -1.22359828266539    6.61622551056874    4.02135814721000
C        -0.15455580257934    5.09574531530335    2.96154016008128
H        -1.04081783881145    4.69791916572095    2.48784314457521
C         1.07700258447254    4.51700988241398    2.70470939470499
H         1.14657563107636    3.66889809905487    2.03811128500195
C         2.41466819008994    2.54827061033359    6.11877582951938
C         2.67321239169717    1.18370285713553    6.20306810224831
H         3.60227729668787    0.83275828863895    6.62465629341586
C         1.74012991845935    0.26610043732097    5.75307903798619
H         1.95408127938961   -0.79041447399694    5.82495028102811
C         0.53912017712168    0.69562669710631    5.21418070836618
H        -0.18757365304025   -0.02282821065741    4.86381020906558
C         0.27347620296104    2.05278680684806    5.12809533435769
H        -0.65991299033531    2.40006180612222    4.70914316261621
C         1.20465133071122    2.97368282611203    5.57182807398398
H         0.98948926749297    4.02936642298678    5.50254050473355
C         2.61067770760098    5.09088767985635    7.32449737792368
C         3.02845084670106    6.41520288158358    7.29840071028125
H         3.96191982811004    6.66790503396495    6.81532677715116
C         2.26043912829045    7.40707082803014    7.88361873709695
H         2.59481845523209    8.43357435356429    7.84955576206307
C         1.07003934206701    7.08271012277107    8.51000914493226
H         0.46501146943859    7.85521205280374    8.96184386199893
C         0.66084960819704    5.75943724632508    8.56742349471945
H        -0.25782526580489    5.49897539505113    9.07308412062025
C         1.42668294802841    4.76686534859375    7.98657084692733
H         1.11056071425937    3.73531153577357    8.05279501267370
C         4.37492724479743    3.05591573064800    8.11695651879931
C         4.06148654688225    3.51794469905691    9.39134910147632
H         3.37579129188027    4.34161045477733    9.52152505205532
C         4.63485289501532    2.93312443224348   10.50745584934939
H         4.38289008034245    3.30506569489397   11.49024253372299
C         5.52883599232116    1.88604117286467   10.37082050958439
H         5.97454946582462    1.43425814644895   11.24501453150468
C         5.86263229527286    1.43279969973277    9.10534345454876
H         6.57445424902862    0.62891248949527    8.98660245527654
C         5.29774651354292    2.01818480080882    7.98871481071433
H         5.59795283888227    1.68292985137766    7.00475560380805

