29
CSD_code = AFAVIO | q = 0 | S = 0 | Stoichiometry = C6H14Cl2N6Ni | MND = 6
C         1.59732039680225    0.10031924190297    5.43153860820676
H         2.31737295529280   -0.58810923968110    5.82784801636051
C         0.62603018009938    1.51993962770146    4.08290086984683
H         0.46457057650235    2.10738722590031    3.20324620619794
C        -0.09060073342506    1.41095763797589    5.23544532111614
H        -1.01239846527733    1.88344472545002    5.50936564928255
Cl       -2.09084379062384    0.08320882176760    7.20711286561538
N         0.52851864355097    0.52400425285610    6.06343654799513
N         1.69520894902744    0.68234731195161    4.22210174331800
H         2.42797738214023    0.53398373910525    3.54792585205136
N        -0.05823305557907    2.38283231529782    8.47179529522920
H        -0.96299629022382    2.79125353650237    8.26522621345047
H         0.65405234959363    2.88508211386619    7.95365846804257
H         0.13853386946587    2.49680392011578    9.45958873795485
Ni       -0.00000086582357    0.00005602486099    7.80597144905255
C        -1.59740103001318   -0.10005635359516   10.18022915180143
H        -2.31721783111386    0.58860162298496    9.78388178532473
C        -0.62658046980935   -1.52007816229572   11.52880032638564
H        -0.46539546861873   -2.10770340692308   12.40839204206039
C         0.09026775218651   -1.41102487922077   10.37638704353698
H         1.01197557904580   -1.88370125624950   10.10247496360743
Cl        2.09049107650545   -0.08353102954807    8.40625777232628
N        -0.52858499063147   -0.52385667751124    9.54842851153028
N        -1.69556355815800   -0.68223572075903   11.38958087336325
H        -2.42842461634440   -0.53388494708292   12.06366307815689
N         0.05877342531373   -2.38287682108302    7.14095206487643
H         0.96652965641765   -2.78849395156835    7.33963938334606
H        -0.64734272529271   -2.88788887994645    7.66474210777765
H        -0.14603890101014   -2.49678079277618    6.15480905218558

