55
CSD_code = AFAVOV | q = 0 | S = 0 | Stoichiometry = C26H20Br2CdN6 | MND = 6
Cd        0.62942030986744    9.84440089861969    2.07699969490596
Br        0.05064029177091    8.18798928354133    3.88613703896533
Br        1.97022700787631   11.97135293694526    2.25029246155652
N        -1.39729331068926   11.15050407775431    2.67955316339092
C         1.71480936201635    7.36889206426981   -0.06860348462534
H         1.85905314750108    6.67103783218953   -0.89495702393276
N        -0.51532750310488    7.68573580952898   -0.47785231592602
C         0.21594383756283    8.41603288822403   -3.99437871904406
H        -0.33646183040546    7.54660469976800   -3.66656631537047
C        -4.38981066085376    6.56467102550602   -1.61560790684506
H        -4.89526758751237    5.73405973213679   -1.14644000725412
C         3.74656565225529    8.80835050647685    2.53721857785239
H         3.61931128281956    9.62323010337700    3.24122154859660
C        -0.45405080581599    9.58923143648214   -1.92281577840686
C         4.91394201781297    8.05747087863148    2.52313337574199
H         5.70563259441453    8.27103609174521    3.22271461211152
N        -0.43819578666059   10.63869442938194   -1.19614394537113
N         0.59020671935816    7.94387212578219    0.12584939334935
C        -2.18118579263521   11.71932299703039    1.75838972020175
C        -1.59964685425161   11.42832895939365    3.95514790295002
H        -0.93898458874290   10.94055242761490    4.66323092304883
C        -3.11728440187248    6.91091008772751   -1.20948096294524
H        -2.61766922697295    6.36527837259857   -0.42400089083384
C        -1.11554305176777    8.35375853862156   -1.38516117184824
N         2.74322309537232    8.59225923329821    1.70550444279476
C        -1.91957073490310   11.42069981359357    0.36499019559188
H        -2.65422668927543   11.75754631103765   -0.36812361309265
N        -0.85953332098259   10.80321779840747    0.00703799583584
C         0.88418150215318    8.39482688973819   -5.20357059179620
H         0.85283897120050    7.50642256926102   -5.81666183221460
C         0.24841560302205    9.56090102266139   -3.19603041667911
C         3.98589106815863    6.80755161452264    0.71812746701715
H         4.03650920774032    6.01951300238569   -0.01768437565344
C         1.59187386676804    9.50752892826479   -5.62907775269598
H         2.11248450607717    9.48667447127128   -6.57462564379461
C        -2.45705006616158    7.98571473997608   -1.80968889750391
C        -3.43283799888576   12.86524815050521    3.44681434299778
H        -4.22747270362185   13.53259605045882    3.74598357069241
C         2.84099659683992    7.60265281537482    0.81245851807836
C         0.96559050302371   10.67797656909467   -3.63100956930655
H         0.99226944811023   11.55633094014855   -3.00485077089116
C        -3.09913844147989    8.70452039181582   -2.81977542086939
H        -2.59659688058775    9.53795361560209   -3.29020934350160
C        -4.37225419308554    8.34884998620391   -3.22195804185194
H        -4.86143649829980    8.90783438742993   -4.00577914010474
C         1.63193325530526   10.64690752834787   -4.83893264411093
H         2.18599935125824   11.51292803052197   -5.16839877660763
C        -5.01972814166920    7.27994535294193   -2.62342497734910
H        -6.01427700086956    7.00514017345236   -2.94105434623582
C        -3.22451087140431   12.57937111697488    2.11013576315924
H        -3.84363193887898   13.01855516557026    1.34281524560402
C         5.03388844982693    7.03947557862488    1.58979934593895
H         5.92768248224770    6.43507991865005    1.54353891059399
C        -2.60254846064633   12.28282965014122    4.39191397454446
H        -2.72829478847681   12.47972998032860    5.44415649118366

