55
CSD_code = AFAVUB | q = 0 | S = 0 | Stoichiometry = C26H20CdI2N6 | MND = 6
C         2.48155679919662    2.15274700322462   11.13607492785388
C         1.13280334575861    1.85724176884192   10.91874092338787
H         0.78662796000862    1.62660901096491    9.92289782348593
C         0.26164870217914    1.87511954621338   11.99084210484867
H        -0.78707282152636    1.66039079741921   11.84898025621414
C         0.75908241562105    2.17223582396514   13.25105970369840
H         0.11573276369202    2.19248337016095   14.11583349926650
C         2.11061589862744    2.45754775450957   13.37446077181120
H         2.53847797215763    2.69929240893398   14.34228904923405
C         3.42569200558489    2.11085274741671   10.03833254280198
H         3.06552902657196    1.76257131728611    9.06970701005956
C         6.40251229474567    2.96360718333797    8.77436584197342
C         5.99887194912439    4.39203581873753    8.54812116294083
C         7.77910814809351    5.51738607748005   11.14727018105638
H         8.63671698383918    5.74983315596394   10.51503137282475
C         7.93610860928871    5.66085672647342   12.58003634458516
C         9.18159857856957    5.98662009107882   13.12430870481665
H        10.03814623041562    6.09949305433876   12.47736921831796
C         9.29293587132570    6.15168976417435   14.49145841516970
H        10.24520746397022    6.39503330242525   14.93866512528913
C         8.15970966631581    6.00144388098371   15.27713897193920
H         8.20029716920851    6.12626554602446   16.34719789740613
C         6.96556442948087    5.67227093971425   14.65346493446071
H         6.05721971531140    5.54014827610876   15.23300258273833
C         5.23740009220417    4.75854858471521    7.36289223083114
C         5.09591090568003    3.85727717108520    6.30625453226791
H         5.57054165042793    2.88731615090064    6.35822742796970
C         4.35569653398470    4.20642644303252    5.19296814972650
H         4.25227913345369    3.50543714681864    4.37792486044707
C         3.74582274299957    5.44875196812121    5.12228960509631
H         3.16586711865437    5.71589521155458    4.25162671773733
C         3.87613917769361    6.34554324561461    6.17229059395263
H         3.39365226292269    7.30986037654021    6.12263109929677
C         4.61644122986290    6.00751773361645    7.28667274865853
H         4.71203762794078    6.69151611597468    8.11561871443564
C         7.68615423538673    2.48241854938998    8.28461520842834
C         8.43338411952789    3.24992677325655    7.38931007112024
H         8.04824569792573    4.19796949209972    7.04051276741661
C         9.66043114683323    2.79629359043363    6.94469029226789
H        10.23234941015987    3.39432640380327    6.25067311156169
C        10.15766221345625    1.58155765619368    7.38903403140491
H        11.11884009110497    1.23307665209891    7.04201007712373
C         9.42366858521426    0.81815343272410    8.28470263206947
H         9.81454364143713   -0.12351211575002    8.63919553556804
C         8.19548329036182    1.26098307146989    8.73168943714411
H         7.62279576490982    0.68201452903091    9.43948329353105
N         2.94999373163096    2.45695230696707   12.35364170178945
N         4.64826400369836    2.43846420561685   10.22378582807822
N         5.66101355404866    2.20878304464134    9.48344673599369
N         6.24384692097385    5.26026051039206    9.44732737603222
N         6.65257026934237    5.16810803668088   10.65185537525633
N         6.85070288685387    5.49895456562941   13.34832947572327
Cd        5.04929653292849    3.94261923751973   12.37377022848212
I         3.26936491864203    5.93640966253994   11.88892230376370
I         6.70900933217861    1.97707488151739   13.24365847063535

