49
CSD_code = AFEDUL | q = 0 | S = 0 | Stoichiometry = C17H22BrClN2O3RuS2 | MND = 6
Ru        5.59445146151246    3.70277831875150    1.28087484995311
Br        9.86101364277181   -1.36241797794190    4.61897825229500
Cl        7.61677786777941    3.92663537708893    0.09194403542036
S         4.57408128652493    3.41785690003913   -0.70539403191322
S         3.68983633270970    3.49566281503688    2.47126622206145
O         5.83278282925133    1.64705323166015    1.35199340517289
O         3.10906333668170    3.46301499486496   -0.68231829216629
O         3.88682071857328    3.55106466901682    3.91305136176947
N         5.64911859003562    5.86784399732007    1.29537741063223
N         6.58237811361907    3.98604243378223    2.98281786168940
C         5.87847862989073    6.23753682801010    2.66382496420801
C         5.58987931316156    7.50539249606806    3.13392770766710
H         5.17544648071955    8.24420361612473    2.46158326895678
C         5.81682345355909    7.82303275107434    4.46403433520092
H         5.57982668678534    8.80974523536201    4.82957490393892
C         6.33514365462213    6.86522954361536    5.31757970152462
H         6.49944790773400    7.10380522842362    6.35700793781633
C         6.62543397138332    5.59341337308372    4.85882059294616
H         6.97914452381080    4.84934019890809    5.55395286643799
C         6.40496754998378    5.25614994466748    3.52342012905380
C         7.32508456310831    3.08699682245413    3.54378270748508
H         7.92211002568580    3.36900412391657    4.41091639299372
C         7.46336328993583    1.72949312441852    3.14413770580303
C         8.39751449134649    0.96111525272163    3.87013949334478
H         8.97624626927809    1.44394659017767    4.64442107453682
C         8.58382702140840   -0.36771027896992    3.61277497826274
C         7.84048441478068   -1.01630223368361    2.62238009317023
H         7.99467809392007   -2.06762480651998    2.43152616672801
C         6.92651882130679   -0.30248607397390    1.90414580974165
H         6.34559509709423   -0.78042595035560    1.12927447428385
C         6.70268735678670    1.09141036189407    2.10460353016284
C         2.74796429647316    1.98822624803997    2.10634285322630
H         1.92465763909571    1.91031564416959    2.80637963261178
H         3.42933458326854    1.15132914312746    2.22355579062260
H         2.40690496561944    2.06514414332282    1.08028645146283
C         2.37797656734417    4.70360372856713    2.08912597317513
H         1.49258115433701    4.44817134246493    2.65817632085369
H         2.19537589039455    4.64940912657828    1.02193211644703
H         2.73599591153152    5.68424010145592    2.38455676601981
C         5.09423108158655    4.57850095066371   -2.01359640788559
H         4.71480184163330    4.23681697305062   -2.96892962072552
H         6.17917250972092    4.60438422787015   -1.99584759719236
H         4.68101648525891    5.55386749492748   -1.77906539839719
C         5.05223110345424    1.89119682177353   -1.55430207357420
H         4.49609510818543    1.80393978608194   -2.48009240140649
H         4.82438222347708    1.06914546676259   -0.88385796830978
H         6.12194961823060    1.94740288593035   -1.72226031319567
H         6.53669210245264    5.93190199787141    0.76636826440033
H         4.97531112217964    6.49960301030021    0.86260770269622

