37
CSD_code = AFEGAU | q = 0 | S = 0 | Stoichiometry = C10H22N2NiS2 | MND = 4
Ni        5.91776188103359    3.01217104014688    8.98271045495857
S         4.84056644375929    4.78941936960525    8.48461595143500
S         7.66931120543115    3.96634642908388    8.21622944907618
N         4.31502339365762    2.16788485636091   10.09132021727998
N         6.84079832759289    1.10503519366200    9.14240913770712
C         4.39883353114998    5.26722173906989   10.19137176902381
H         5.31906902661451    5.27232730894653   10.77954845611827
H         4.03164224380552    6.29146606289062   10.11413578195578
C         3.33521130947871    4.38377617377938   10.83213797845901
H         2.47649437550570    4.31303039737467   10.16339884367680
H         2.99479100294332    4.86179710330069   11.75587421750385
C         3.84402082352939    2.99258458408105   11.21349283877630
H         4.68163164155703    3.12281270070231   11.90747610704657
H         3.03831577953471    2.45749949657235   11.74581711994092
C         4.85311336769117    0.90647405020846   10.62103340474179
H         4.03646509098622    0.22075722509056   10.89710950170445
H         5.41984860941116    1.12606623769470   11.52941358989877
C         5.77215143876731    0.21181463245556    9.61299262925981
H         6.19711372779576   -0.69282736953505   10.07590385814419
H         5.18140719270395   -0.10661856322749    8.75038872715377
C         7.37851446149044    0.57981469661433    7.87891019033963
H         6.54365852527821    0.47870552806593    7.17677161066932
H         7.80313530253304   -0.42426182485465    8.05305094868373
C         8.44478558638584    1.44990684595713    7.21123872890090
H         9.31712073473431    1.55853860227637    7.85682457097748
H         8.76675514234653    0.92109370492298    6.30881604487565
C         7.94167300605281    2.83161691500867    6.81106811108517
H         7.00433297532435    2.76791094727338    6.25426559969686
H         8.68358938814949    3.32814009726908    6.18427958967051
C         3.20361286045473    1.88734736372498    9.17912856406035
H         3.51668440370492    1.18099721247680    8.41243860383991
H         2.90084345250499    2.80398209173382    8.67588030583603
H         2.34730635166818    1.46353502669834    9.72231943691349
C         7.90498069887219    1.17402548371744   10.14659402707826
H         8.41509204135651    0.20548529684668   10.24513444663676
H         7.49033763476284    1.45196905735493   11.11389681193004
H         8.62550702143158    1.94055428665090    9.86680237494528

