39
CSD_code = AFEHOJ | q = 0 | S = 0 | Stoichiometry = C13H17Br2N5NiO | MND = 4
Ni        4.40645338746868    7.66599994244789    3.80177163312207
Br        2.66934407279722   11.96649429747086    4.54119796067677
Br       -1.19687585153418    9.76725418027042    8.08714312834301
O         3.43289840019762    9.15104273832273    4.32185129927718
N         3.34579368195393    6.48359523004348    4.80178401141640
N         5.64178001202051    6.03267467875946    3.43434515401755
N         5.34821461373801    8.67219537284615    2.61508303477547
N         5.40797377770860    9.82561098486206    2.38617991198469
N         5.59465520691019   10.88443137366434    2.03370467666321
C         1.85562730370945    8.09116853534708    5.79382546600604
C         2.44925098682584    9.20863601164387    5.13139307131598
C         1.87772209012295   10.48337669896784    5.41584937945783
C         0.82261394725757   10.65266715131919    6.27035804628773
H         0.42226581355413   11.63723754361647    6.45621091035825
C         0.27234638363161    9.53109965073284    6.89732111655841
C         0.77172109484656    8.27672268297043    6.66897274422225
H         0.33685889678870    7.41876491207587    7.15991551212961
C         2.35035377534894    6.77642739582019    5.56429414221127
H         1.82444849047547    5.97015601202148    6.08280917879252
C         3.70342296772175    5.09021501389079    4.62246552052022
H         3.17278538800805    4.70033073361920    3.74461580328899
H         3.40726262112730    4.48406912998560    5.48925150916368
C         5.21368641181239    5.01283417575931    4.40760926323867
H         5.50496675932691    4.00514436127499    4.09116476436193
H         5.70185507258620    5.22667937680989    5.35992658666898
C         5.40224676227066    5.59955446710508    2.04191107044776
H         5.57932035612553    6.46813461910240    1.40272462025180
H         4.34724590836563    5.33056355849541    1.95012565706378
C         6.25924042721084    4.43761348857261    1.53895260793595
H         7.31293156142779    4.70004121762847    1.51883389030154
H         5.95369778100591    4.20212710137912    0.52291575603257
H         6.13361765573908    3.53884623760124    2.13815757446074
C         7.06150442728502    6.37464896530199    3.64482040429890
H         7.38921849930319    6.93727051300377    2.76936913955119
H         7.66193270301915    5.46098761994562    3.73107855188690
C         7.25993586538016    7.24826660184136    4.88081601491435
H         6.47266677178541    8.01767663678311    4.90981842892242
H         8.22148684330934    7.75033503270783    4.82759205843097
H         7.22702913336770    6.67690575598786    5.80564040064172

