53
CSD_code = AFEJOL | q = 1 | S = 0 | Stoichiometry = C14H30MnN4O4(1+) | MND = 6
Mn        8.03665827279429   -0.00002539339729    0.00009001274821
O         6.91155519770335   -1.16770139010623   -1.02692196690905
O         4.99940566896851   -0.16119710279660   -1.42051518892355
N         6.53417916065877    1.32797127046656    0.24319887526830
H         5.78561861533816    0.93043792180147   -0.38377053986624
N         7.37182157572221   -0.81006520170674    1.77319710821733
H         7.98211694774138   -0.42582058779807    2.50259679720145
C         7.20784190076570    2.78438934352704   -1.64429652422152
H         7.16922801369140    3.82815659150264   -1.95696426121240
H         6.50204631191469    2.22614325999219   -2.26503712300861
C         6.75811965800727    2.70998759274634   -0.18314325842164
H         7.52578281645847    3.15054968533321    0.46249497400532
H         5.83356692422304    3.28990622769603   -0.06885729762751
C         6.04241793199100    1.21942426915163    1.62280395690934
H         6.72824310677300    1.76585368108459    2.28096681815422
H         5.03942263664180    1.65017823549327    1.72456251329346
C         6.02567728939980   -0.26173761809770    2.00361867874526
H         5.70973381748494   -0.39177875976558    3.04523254966077
H         5.32070895336196   -0.79417240876914    1.35785715832930
C         7.44324134522322   -2.27068431440972    1.88407546558138
H         6.76670260610638   -2.70074341312347    1.14026229582100
H         7.10879963121481   -2.58932314953014    2.87961795411229
C         5.74081370535060   -1.14075057373706   -1.54083073688611
C         5.30296012287355   -2.37138008113807   -2.30146873925713
H         4.89354497516754   -2.07429783123468   -3.26351036785970
H         4.50835095245173   -2.86505725920187   -1.74549026534159
H         6.13337027444698   -3.05815502146538   -2.43854904621893
O         9.16191088311454    1.16776321935507    1.02679304656187
O        11.07394021924014    0.16114134014531    1.42065170611649
N         9.53917780535126   -1.32798353177441   -0.24311739002022
H        10.28772458317445   -0.93047602603266    0.38387913768983
N         8.70153019662348    0.81000241848435   -1.77305813196932
H         8.09126907020940    0.42573797642391   -2.50247636084367
C         8.86547467393440   -2.78445699889996    1.64432019015730
H         8.90408116596994   -3.82822499608640    1.95696307176655
H         9.57128132268224   -2.22627716680486    2.26509513393834
C         9.31523523476224   -2.71001781391021    0.18318171663932
H         8.54757388795291   -3.15056533489930   -0.46247031477469
H        10.23979542909677   -3.28993234079416    0.06888931798574
C        10.03098788151743   -1.21942640549260   -1.62270490251791
H         9.34520292137500   -1.76587268393702   -2.28089718973799
H        11.03399759698455   -1.65015427104209   -1.72443225811688
C        10.04770118172607    0.26173581958261   -2.00349545793447
H        10.36366067107554    0.39178587974917   -3.04510673457501
H        10.75264688893861    0.79417811072084   -1.35771371668324
C         8.63008070511933    2.27061800749875   -1.88401071717793
H         9.30663451684304    2.70071849860665   -1.14023781324180
H         8.96452423961360    2.58922767426918   -2.87956115894616
C        10.33277438411542    1.14094857240670    1.54042690750020
C        10.77058386051245    2.37149965841629    2.30122708072166
H        11.18040611356733    2.07444812520966    3.26309770678122
H        11.56486954507353    2.86533599800650    1.74491890596726
H         9.94010660895152    3.05813829828164    2.43861838241993

