46
CSD_code = AFEKIG | q = 0 | S = 0 | Stoichiometry = C19H20N2NiO4 | MND = 4
Ni       11.20381336787485    3.20853923099386    0.97737597705118
O        11.74447655617090   -1.49470383040279   -1.76488813958620
O        12.74244862626462    2.75826621648955    0.04175692105431
O        12.34209651228509    4.45744489952688    1.74733110188370
O         9.51237135526264    6.87656780696163    4.66055295327429
N        10.32479121281252    1.63153340252732    0.30622168866082
N         9.67218004713633    4.03146651497045    1.84243129537267
C        12.12012020947785   -2.63603129312687   -2.49625407008689
H        11.24070385569994   -3.27854124178134   -2.51208437304449
H        12.94703881613071   -3.16756443276032   -2.01520198020837
H        12.40030246267762   -2.38024700619412   -3.52290039704634
C        12.66652292609286   -0.50291202794304   -1.58844376403187
C        13.95509196284174   -0.54249046181125   -2.06818660391766
H        14.32172343548493   -1.38727319851484   -2.62747434632766
C        14.81667905656029    0.53533925962812   -1.82934942598268
H        15.82384593258671    0.48207354909694   -2.21765469427521
C        14.42112343716760    1.63521498580530   -1.12454602575977
H        15.08703405101364    2.46312101365446   -0.94222622558500
C        13.10257665607631    1.72261532463912   -0.60509296202138
C        12.21839662514149    0.62908789508152   -0.85318148762618
C        10.88697750730021    0.69112128698945   -0.39030172480903
H        10.27505668914201   -0.16540326665195   -0.67555115293501
C         8.91135257886856    1.43367158390430    0.58049792497885
H         8.78709464438603    1.10332659248286    1.61945656807649
H         8.50764642587526    0.65164152817568   -0.07608140250868
C         8.14066819762219    2.73256520270956    0.36546265526039
H         7.08219676811236    2.51673222911232    0.21413350555546
H         8.52750038099986    3.23185858763924   -0.52702321829146
C         8.28748568093589    3.64724150367814    1.57020759726379
H         7.69071756864546    4.55252023360614    1.40165900277490
H         7.88117756135309    3.13555057322787    2.45374610224557
C         9.75509113123390    4.98948047325263    2.72026868656467
H         8.82255487907912    5.35727528596026    3.15031419159426
C        10.90226497634862    5.65652396083763    3.19408549411693
C        12.18167636546614    5.35241816539275    2.63686741655973
C        13.29883593565691    6.09468985527157    3.10426784189008
H        14.26338424437697    5.86683121078207    2.68017791998866
C        13.14236900706755    7.05155164748192    4.06423840541516
H        14.00233456096696    7.60375161133870    4.41554327896486
C        11.89065962807824    7.34882894480689    4.61861922922280
H        11.82574838116019    8.11358869730478    5.37480409228593
C        10.77699129700327    6.66539265397630    4.19055990829617
C         9.31742091338994    7.87268025194946    5.63442698283275
H         8.24820848627033    7.87622336360177    5.84238754580518
H         9.61776069419932    8.85855349248426    5.26605083065676
H         9.86388839170247    7.64637772384572    6.55529687639683

