79
CSD_code = AFELIG | q = 0 | S = 0 | Stoichiometry = C28H42Cl2N4P2Pt | MND = 4
Pt        5.27072923961007    1.57563554657331   11.75376787124430
Cl        3.61892446288789    1.83775796049239   10.16328143256054
Cl        4.05639414071414    2.84415657390615   13.27583018691193
P         6.32876188661483    0.26202216162959   10.20010333109067
N         7.98093962367151    0.52843135786507   10.17357686022517
C         8.91663870129118   -0.20554887062190    9.32312583831699
H         8.40396729063787   -0.65684655545626    8.47039756888853
H         9.39244905542556   -0.99329151903735    9.92014272549767
C         9.96186074302618    0.82088791239751    8.88995101144347
H        10.93557229327738    0.36768693223595    8.71488880914306
H         9.64441800689912    1.32863590245574    7.97790339776038
C         9.96063514042563    1.80005536536153   10.05954180785144
H        10.38462960899102    2.76913499766582    9.80508963388980
H        10.50997315422559    1.37775487830278   10.90139238011235
C         8.47936334787645    1.88834503918556   10.40113029032440
H         8.31009390918340    2.17741421259263   11.44077125277049
H         7.98425273380636    2.61815295680819    9.74944133897608
N         5.95016212719397    0.14804074128935    8.56053883054117
C         6.09265762511650    1.38836729108447    7.78538229411073
H         7.14901742034709    1.57687775145720    7.57838691052427
H         5.67413811556462    2.24219934310632    8.33313137404345
C         5.27817513441342    1.13518934973213    6.52454308841781
H         4.98794966581052    2.05907718577593    6.02918633512829
H         5.84553078400015    0.51766818650370    5.82547749433666
C         4.08970178067568    0.35696686845958    7.07825428864248
H         3.54842573369101   -0.20084116274893    6.31692101962841
H         3.40669461548610    1.04038471119010    7.58164407490845
C         4.73954296509596   -0.55761382161577    8.11314914067026
H         4.06224453606702   -0.76667789584814    8.94150544688672
H         5.04788888737519   -1.50899284700583    7.66268853195393
C         6.01581253702769   -1.48320333341239   10.65117294403233
C         4.91375651631231   -1.69202312344075   11.47573085154053
H         4.33228829821774   -0.82936116542344   11.79780652670751
C         4.55177472242726   -2.96725544020755   11.86891255569289
H         3.69202510943075   -3.11486223586048   12.50581000418444
C         5.29802945619276   -4.05329510176885   11.44096794184297
H         5.02716229077069   -5.05185358759438   11.75038461120423
C         6.38712646588579   -3.85647475151340   10.60784157821457
H         6.96176445138050   -4.70476306118945   10.26462235686059
C         6.74162562378031   -2.58019959881346   10.20481075640469
H         7.58086936743968   -2.44214001243895    9.54367976887020
P         6.67507655070712    1.56689254022938   13.57103900419351
N         6.01529883299452    0.92579642090715   14.96922092007999
C         4.84686860674572    0.06452945367266   14.93231379456577
H         4.32918738326303    0.16234055029602   13.97584273592634
H         4.16367288993207    0.38208569497949   15.72775912227782
C         5.36635814501692   -1.35288426846111   15.20722817902053
H         4.64894080905456   -1.92812374152613   15.78955506944586
H         5.54566036206025   -1.88081129863697   14.27057868603716
C         6.68661017739634   -1.13552652188951   15.96735107287470
H         7.52107267856591   -1.58102057466660   15.42568536986815
H         6.65891287886370   -1.56694255937216   16.96641420114444
C         6.85017431280709    0.39201701702055   16.03162478820423
H         6.47067758875667    0.77196118564810   16.98741912979025
H         7.88551066263245    0.71276408826655   15.91392815239334
N         7.19921407089326    3.09248489915966   14.05941006348522
C         6.71606105894258    3.66184694279343   15.32602820240519
H         7.31635687627647    3.27832292817877   16.15430558766242
H         5.66697310917812    3.40124091080508   15.49521429152999
C         6.86270297074852    5.16746606370407   15.14429741136659
H         6.20514630763638    5.72432496415337   15.80815551674206
H         7.89461498523054    5.47445376203937   15.32545354492024
C         6.51036332938991    5.34376384834703   13.67227063752376
H         6.85354758226364    6.28828318862202   13.25483511404948
H         5.43176078087765    5.26081029921950   13.54139812403206
C         7.19456889529359    4.14023736092440   13.03083261144124
H         6.65935993754714    3.80643567066778   12.12785196445938
H         8.22939493133425    4.37912474244147   12.75332517548519
C         8.28759356225640    0.69023129882130   13.42261884949906
C         8.25909406524453   -0.62113861758319   12.96759925383432
H         7.30463186588430   -1.07149663768398   12.73252121580419
C         9.43018640075235   -1.34079902195323   12.82239641004377
H         9.39562172047708   -2.36276741222399   12.47195378204269
C        10.64465921932297   -0.74779243869173   13.12904368807648
H        11.56364119477328   -1.30393777311821   13.01300103931262
C        10.68036408875370    0.56072365087913   13.58378123870975
H        11.62772867480003    1.02194583307155   13.82465991257005
C         9.50640672279123    1.27958412407271   13.72964492895917
H         9.52551820234934    2.30107428543117   14.08145674773163

