72
CSD_code = AFELIJ | q = 0 | S = 0 | Stoichiometry = C26H32B10CoPS2 | MND = 8
Co        5.60584918795914   12.39340404102651   11.39523660322476
S         5.90505194478238   10.13536557925008   11.22110828839864
P         4.30022699994444   11.95625360092049   13.09863413657163
S         3.73028531366984   12.21763706590508   10.09948689745344
C         3.07239280095727   10.60733770669316   13.18034109399126
C         5.11167981103353    9.71731795469926    9.65730504253991
C         5.35931308298323   11.69919841882706   14.56488191260437
C         1.84243502791088   10.84955047444454   12.56854108456322
H         1.67880744247457   11.78488907580141   12.05207021222974
C         7.56826557565594   12.92464265050597   12.03164803889489
C         6.65902642380336   13.95163235258205   12.38319032801262
H         6.52119389209738   14.35250904022458   13.37600191116282
C         5.44061512048812   12.63477151913145   15.59176815446333
H         4.83498333992608   13.52921022669105   15.56135373403212
C         6.06438790160642   14.44701714267780   11.19857663618621
H         5.43197398536050   15.31703633390681   11.12442309106196
C         7.54403086601360   12.80960183533898   10.61182357520981
H         8.19824526597995   12.17751867624929   10.03236018152335
C         0.84829227791727    9.89105061264005   12.59602161009908
H        -0.09689640770215   10.08638976637751   12.11270015778218
C         6.19888808438687   10.58693024624329   14.59747735651344
H         6.20792073105622    9.89980733215353   13.76333878796006
C         4.02919919570547   10.73219126115979    9.11746228994364
C         1.07086744134861    8.67874142203615   13.22912470513430
H         0.29782837471888    7.92540620317232   13.24373807609738
C         6.63022090278442   13.74913079501379   10.10188275140121
H         6.45230673249055   13.96795846936624    9.06110436037036
C         3.16883491282909   13.29145302932429   13.62385278783600
C         2.46184347080608   13.14672122214310   14.81681145886337
H         2.61638027166404   12.26646792845066   15.42669688166504
C         7.04743925617371   10.37964472308131   15.66959607374837
H         7.68468462512279    9.50791406792898   15.68797804151274
C         2.28963463919042    8.43443054487947   13.83749910947289
H         2.46888042386508    7.49043256806255   14.33047282545657
C         2.93490511699251   14.39886441498082   12.82249114169065
H         3.44367843956596   14.48227982442141   11.87374197355572
C         3.28918277915171    9.39243022592160   13.81728466042944
H         4.23060804923651    9.18704516049402   14.30153920518489
C         7.09285554239391   11.29557011819344   16.70781505149364
H         7.75719896694366   11.13628886454884   17.54405087926450
C         1.56732144047621   14.12091171556589   15.21449684725085
H         1.02748210379529   14.00738312899954   16.14317426191358
C         6.29946291847127   12.42947042436806   16.65714562889633
H         6.35085421759300   13.16177996803011   17.44981191960040
C         8.55177866708302   12.25646413204665   12.93548249627093
H         8.28809294247754   12.40996914676109   13.97941231051888
H         9.54370768607756   12.67817097133201   12.76262958996625
H         8.60276842217346   11.18734892646996   12.73777462535161
C         1.35607733243093   15.23836799891597   14.42039759597335
H         0.65464619536849   15.99731194074502   14.73358229383607
C         2.03279885790985   15.37127646079212   13.22084460259015
H         1.85473030658432   16.22990352335897   12.59047394431235
B         5.52276468558727   10.63476937559420    8.25407538623622
H         6.27152012287776   11.52095940805249    8.41322279122858
B         3.45797852895280    9.21782839579090    9.74343018866704
H         2.97732736358962    9.24831873941095   10.80952817482350
B         4.00461382615358   10.78181182873019    7.39836425649343
H         3.74301404892512   11.81221156019957    6.89865853228967
B         5.96673169334980    8.94964752127330    8.37451871185703
H         7.09416655066856    8.68136014076505    8.56790520613532
B         5.23348881874726    9.59339902360140    6.87752422272644
H         5.85517572175571    9.73345835096740    5.88923088404231
B         4.71538899036244    8.09096361168876    9.28560686483976
H         5.03649893487746    7.26911736911131   10.06101879470241
B         2.74788058842337    9.92970305696771    8.31224009087968
H         1.67772066526347   10.40685715023522    8.39352584216563
B         3.18200877423116    8.19164651088360    8.36453325711211
H         2.36790286573972    7.34439525139530    8.41110156463166
B         4.73789192730972    8.00338216507965    7.50928833985516
H         5.01484196901550    7.00501544713068    6.95253385234184
B         3.50528453942041    9.15468212463943    6.89827576817908
H         2.90296048502308    8.97877213562899    5.90346004671471

