39
CSD_code = AFESEM | q = 0 | S = 0 | Stoichiometry = C16H14Cl2MoN2O4 | MND = 6
Mo       -2.26561242494641    7.87865938692266    2.49510330307729
Cl       -2.20112514107232    7.00771809610168    9.62702692701362
O        -3.41963886574759    7.48104042871576    3.94475397527889
C        -3.93550299289495    7.98728714675302    6.18063303242770
H        -4.78462336176413    8.55872294975654    5.83384356432059
C        -3.11411953930659    7.38314607728971    5.20806934868217
N        -1.18340499477734    6.06086212825529    3.44538255871867
C        -3.65232769097105    7.88245739427049    7.52125345124815
H        -4.28044696201209    8.36423572802380    8.25445193229437
C        -1.72295999716542    6.53270908165059    7.02143151595261
H        -0.86360310561797    5.97119537125015    7.35681589381342
O        -1.18867718418631    8.78192365524410    3.35759543820427
C        -1.98504182426342    6.64157602137305    5.64714043670346
C        -2.54251985037658    7.14693475637796    7.93947451103491
C        -1.11252513954662    5.98191582395089    4.71945728543175
H        -0.33449692612834    5.35574261982726    5.17626881683356
C        -0.22007350922647    5.31753880266498    2.67329431772422
H         0.34606912929061    4.61168318282937    3.29344066354799
H         0.47523719215191    6.02025192153639    2.20574734518082
H        -0.73607812845918    4.77335037583054    1.87804654095685
Cl       -2.33011744942120    7.00773670537771   -4.63680328773298
O        -1.11157200084167    7.48101994469946    1.04546996272079
C        -0.59572018837995    7.98728697598049   -1.19041263213421
H         0.25339891101394    8.55872546194172   -0.84362388235048
C        -1.41709357021896    7.38313357310867   -0.21784799183816
N        -3.34776392414666    6.06082461621518    1.54484828640605
C        -0.87890811289996    7.88246963673661   -2.53103220926841
H        -0.25080070157521    8.36426277464348   -3.26423181526071
C        -2.80826772089160    6.53271226283717   -2.03120615495537
H        -3.66762594185795    5.97119976184999   -2.36658839657928
O        -3.34250709470716    8.78196385954061    1.63260573361589
C        -2.54616981968144    6.64156306119377   -0.65691707815344
C        -1.98871565188318    7.14694591733928   -2.94925147022091
C        -3.41866263278821    5.98187978899826    0.27076978706560
H        -4.19669533340659    5.35570268900928   -0.18604178401281
C        -4.31113534738821    5.31753330254064    2.31694265733233
H        -4.87732195025468    4.61169258361468    1.69680099145422
H        -5.00641744855209    6.02028017248022    2.78450888718665
H        -3.79513270509886    4.77331596326874    3.11217953828004

