39
CSD_code = AFESIQ | q = 0 | S = 0 | Stoichiometry = C16H14Br2MoN2O4 | MND = 6
Mo       -2.24310112153544    6.37712576811730    2.55355461638015
Br       -1.84842958392359    7.09382737454435    9.82600019435384
O        -3.35831252623158    6.77575310985489    4.03469981823077
O        -1.14674585814984    5.47398233484573    3.39013370950713
N        -1.13506386855472    8.18968525140516    3.47478323893790
C        -2.99691283130871    6.83512784568422    5.28500506012255
C        -3.77817233664366    6.20403934971316    6.27368407166000
H        -4.64378106123995    5.64551913018047    5.94733318609516
C        -3.43521405561318    6.26813006146163    7.60254957393078
H        -4.03185335504979    5.76645327760627    8.34940745017204
C        -2.30536632297278    6.98874541934817    7.98573371321890
C        -1.52233328024111    7.62901254120045    7.05544753500223
H        -0.64654774431243    8.17834661788782    7.36969426387323
C        -1.84521383299956    7.56072853681095    5.69259021552506
C        -1.01191311517945    8.24425205138763    4.74571774784037
H        -0.21831428693524    8.86429590984508    5.18344859789218
C        -0.20779593656155    8.95203537670615    2.67754428095696
H         0.37588180491875    9.65392280675575    3.28551846837503
H        -0.75799273263099    9.50294419806649    1.91047907266347
H         0.47531600714954    8.26182382887573    2.17434515725800
Br       -2.63771197895968    7.09396662365909   -4.71891183006518
O        -1.12791490031533    6.77577741630088    1.07243453747876
O        -3.33950257629907    5.47402594188689    1.71695375462031
N        -3.35109814992824    8.18976578690966    1.63231540064040
C        -1.48921800886513    6.83525612673010   -0.17789649444280
C        -0.70807950204407    6.20397683023202   -1.16656904940235
H         0.15754749980970    5.64547919054352   -0.84023072479915
C        -1.05114456869543    6.26791506857222   -2.49542618206614
H        -0.45432163689922    5.76654553433205   -3.24231822609789
C        -2.18094181060366    6.98860666271729   -2.87862278018408
C        -2.96390895513282    7.62897169683271   -1.94834154182863
H        -3.83962751880927    8.17841480046367   -2.26259250587495
C        -2.64095100826819    7.56079250380804   -0.58549290047614
C        -3.47422508162916    8.24434500814016    0.36138085045796
H        -4.26805099474661    8.86410567816351   -0.07633409139969
C        -4.27841034111726    8.95204170706399    2.42954423736041
H        -4.86208849123083    9.65394486711770    1.82158416927898
H        -3.72826727777953    9.50292988436598    3.19666010417136
H        -4.96151866047099    8.26178788186359    2.93269330063267

