48
CSD_code = AFEYER | q = 1 | S = 0 | Stoichiometry = C24H18AgN4O(1+) | MND = 3
Ag        1.49964141741798    6.79061059421101    5.49094220836803
N         3.40791865961752    5.69449777626240    5.92047622049946
N         5.86393019608867    4.44156788529105    6.44290425155976
C         5.20142876406740    4.19655692149659    5.32093325015309
C         5.73738454206601    3.29725092534573    4.36450970221713
H         6.68555539468777    2.83639392511396    4.58929959370141
N        -0.71179059031526    7.05617724969275    5.23803176862616
O         2.35631395562052    9.10614289230900    5.05097760063730
C         3.56717898441226    6.85094825436554    8.00108764491261
H         2.62053778038641    7.34238925910046    7.77190381263798
C         4.24862093617220    7.09728993382563    9.15518742327306
H         3.85525756668271    7.79143299361138    9.88212703215874
C         3.93850701137253    4.82920667907843    5.04803659767161
C         3.81277689598486    3.65663567908591    2.95116559602656
H         3.29742031915445    3.42511933402934    2.03155832800336
C         5.05835756384954    3.04042012007326    3.21244157052724
H         5.46342928701062    2.35682417659402    2.48276418500892
C        -1.06737721722047    6.73105778865991    7.57444652652076
H        -0.00393621123763    6.51475807279057    7.67980884027098
C         3.26562930593968    4.52748858697804    3.84491708681125
H         2.30198316237526    5.00723825838715    3.67116339004708
C         4.08080649539538    5.94181290353513    7.05128265299269
C         5.47801578599625    6.45138733104084    9.42022374254858
H         5.98980171982419    6.66674752740413   10.34517034885396
C         5.33534451528733    5.29012876550984    7.31424103379017
C         6.01250813188743    5.57259431498113    8.52764699178438
H         6.94898891363926    5.06931791849410    8.70551607608059
C        -1.55001316010607    7.02373962849975    6.28111067376282
C        -1.21988699145231    7.32820766819008    4.02956719804027
C        -2.62673665200312    7.57655016144579    3.86572438369826
C        -0.37758110073437    7.37838065586034    2.89802914970190
H         0.68730923798984    7.19742148963639    3.05057975619279
N        -3.45274569566765    7.55607889127555    4.90298949168419
C        -3.12657538901489    7.85282334011741    2.56788244014427
H        -4.18484761052198    8.03173578857038    2.46811066670196
C        -0.89565424221417    7.64912665738516    1.66703781965718
H        -0.25208367837625    7.68490810230567    0.80123792736411
C        -2.27982644689050    7.88494351626416    1.50173604601221
H        -2.65737061649326    8.09331064477154    0.51284001914979
C        -2.95262793514781    7.28821967554593    6.10126335823961
C        -3.29594978433037    6.98340784243303    8.46607813983441
H        -3.94204562926651    6.96172582037267    9.32977575774978
C        -3.80515997719086    7.26115675402005    7.23407103264676
H        -4.85192025552363    7.46402660850267    7.07587042937263
C        -1.91891776882065    6.71248141993918    8.63802075220822
H        -1.54947256836811    6.48781221977997    9.62685327610480
H         1.83144696314864    9.87560406269317    4.82148825473289
H         3.27252601485170    9.38974298507410    5.07686995140319

