97
CSD_code = AFIBAU | q = 0 | S = 0 | Stoichiometry = C26H60FeN6Si4 | MND = 4
Fe       -2.68957070288573    8.84423375859909    3.64119689622831
Si       -4.77819435757954   10.45545589399411    2.95024066852339
Si       -4.20561402608647    8.53722676255140    0.62264785551669
N        -3.68231814364701    7.46157057807182    4.42489953740550
N        -5.37850288863060    6.08959581876562    4.69734259205018
N        -4.09594991218849    9.07031550007204    2.23167681835631
C        -4.97449021363357    7.29995876832339    4.26154472929477
H        -5.59096608980866    8.03012476259250    3.79419117811799
C        -3.22128004408053    6.31811154298125    4.98887217129238
H        -2.19258158663418    6.21454439779333    5.24061302716309
C        -4.26146970521339    5.45780301445392    5.16934701036363
H        -4.28519932787822    4.47433058376766    5.58931335635924
C        -6.72221516021881    5.52546247209258    4.67183615315901
C        -7.69728762378364    6.52735841669803    4.05528536548933
H        -7.73244144919577    7.44378050726985    4.63797968598066
H        -8.69419640692176    6.09426659060178    4.03772996906350
H        -7.40985423931854    6.76820057598857    3.03534312289934
C        -7.14686658930824    5.21022745599153    6.11041301615074
H        -6.49036241114787    4.46962457887074    6.55897313543695
H        -8.16157919065288    4.82182530955792    6.12335470327916
H        -7.11240047774990    6.11214256113170    6.71691161312768
C        -6.69664621636614    4.24946833777213    3.82307306244649
H        -6.35651695026276    4.47781572710265    2.81571453212928
H        -7.69383108423142    3.82195672183237    3.76364893848544
H        -6.02956639139205    3.50661530091965    4.25185867061456
C        -4.27107694623465   10.34627108134571    4.78328964831190
H        -4.94817513354041    9.73336862491529    5.36542913942163
H        -4.23036122622467   11.32299291986880    5.25161823764235
H        -3.27621783377177    9.90262445544925    4.88347848531363
C        -6.70082867032334   10.47744204008864    2.84175542206198
H        -7.03339736576499   11.17710109041824    2.08359965393591
H        -7.15701425203745   10.77583294473458    3.78071083139156
H        -7.09629025523678    9.50349312943603    2.57361017635035
C        -4.21224377744041   12.16352627948145    2.29377994069977
H        -3.17423031134149   12.36341159937836    2.53249325799631
H        -4.80965278751002   12.96802682256500    2.71231149238544
H        -4.31569894757963   12.20824779104349    1.21550175751599
C        -5.26988222005928    9.69126570895668   -0.46733377911971
H        -6.24895718077664    9.84511766883569   -0.02964456670393
H        -5.41010610968075    9.28195112301685   -1.46285824564352
H        -4.80471639155677   10.66436933734513   -0.57475530637996
C        -2.51323818628434    8.42164422050232   -0.25716916887960
H        -2.10717650851411    9.41319905066987   -0.42379386321840
H        -2.59293276502789    7.93180544862345   -1.22259414956773
H        -1.79741722250140    7.87201647355491    0.33893015284017
C        -5.09131041367995    6.82370726765627    0.54702104925209
H        -5.28260635231434    6.44199921128478    1.54531376431311
H        -4.50427045051822    6.08310694070222    0.01274504825962
H        -6.04917976172985    6.90210715003240    0.04182059892759
Si       -0.60070582757553   10.45540062913930    4.33198668579161
Si       -1.17329495743912    8.53723469808873    6.65961714428935
N        -1.69674920783212    7.46155023388061    2.85758015528863
N        -0.00054002294912    6.08961846287075    2.58502967690060
N        -1.28315340576289    9.07041045756784    5.05062607926942
C        -0.40455792657524    7.29998110890711    3.02083904634304
H         0.21193940024099    8.03018917862503    3.48810634414678
C        -2.15778172880063    6.31807520625990    2.29362957112490
H        -3.18648162192617    6.21448587507530    2.04191570552366
C        -1.11759142208148    5.45777459478863    2.11314235788760
H        -1.09386605667588    4.47428508891672    1.69321168301985
C         1.34320443376976    5.52553694260892    2.61031924062737
C         2.31837220817635    6.52747961694850    3.22663669521734
H         2.35336498914441    7.44388349646846    2.64390600892754
H         3.31530389540286    6.09442959754401    3.24401497247530
H         2.03112759965514    6.76834365496384    4.24662530098455
C         1.76763145378268    5.21021430160831    1.17169585940867
H         1.11106995591421    4.46957324158897    0.72328177506876
H         2.78236201439854    4.82185632811182    1.15856315878837
H         1.73300131975487    6.11210400061159    0.56517527187064
C         1.31786047578274    4.24955119097702    3.45910211505005
H         0.97788537752965    4.47792988747252    4.46650128998976
H         2.31507610295020    3.82208484615070    3.51838734225645
H         0.65073843614087    3.50664867648817    3.03046601923086
C        -1.10803523228644   10.34616368594101    2.49901143815905
H        -0.43102870990962    9.73312465741613    1.91691449766388
H        -1.14862808345246   11.32285849110199    2.03061675868742
H        -2.10296907265372    9.90263929111302    2.39893295076145
C         1.32193054607485   10.47703133321481    4.44047800530460
H         1.65471214436531   11.17724560357738    5.19803688459360
H         1.77813440411772   10.77450479836879    3.50123762526832
H         1.71710499616151    9.50318663495974    4.70943066274872
C        -1.16624048398920   12.16364166209727    4.98838688918665
H        -2.20450842160025   12.36335616734244    4.75065292845390
H        -0.56934412059338   12.96803173809218    4.56892584875530
H        -1.06170458129966   12.20886351936382    6.06653863368151
C        -0.10921735713097    9.69142104136008    7.74962738869441
H         0.86985505706306    9.84522414263283    7.31193452740421
H         0.03099871513247    9.28217468553045    8.74518683462382
H        -0.57438646817485   10.66453954973793    7.85696373940757
C        -2.86554343808930    8.42142447642266    7.53971239930532
H        -3.27144437027311    9.41289025767918    7.70714487676631
H        -2.78583491401880    7.93089514187331    8.50475478294535
H        -3.58158426265847    7.87238298757247    6.94340005653681
C        -0.28757004092200    6.82373951292235    6.73509459185514
H        -0.09539042827837    6.44272225865517    5.73669760149916
H        -0.87490463226453    6.08270620701321    7.26844747853520
H         0.66986552946505    6.90204652100141    7.24114571409929

