50
CSD_code = AFIBOH | q = 0 | S = 0 | Stoichiometry = C21H18BrCdN3O5S | MND = 6
Cd        3.62397743142357    0.00207915843759    8.65177099286840
Br       -1.70447641503101    4.42195250807056    6.07568862455214
S         4.35231208427387    1.33163247525380   10.98045711902368
O         2.56452021533192    0.27833890068788    6.91299837035966
O         4.84127146036108    0.07163739145495   10.38115939231076
O         2.89344375750579    1.31600092658117   11.10211188166052
O         5.06329116901809    1.73261566535026   12.15991486327384
N         3.82297073517351    2.18155004632245    8.60890946764887
N         5.53981422629625   -0.35475119429777    7.46056267575308
N         3.97373631711350   -2.23512852074259    8.66996554239889
C         1.68915523045168    1.20080522869711    6.77663882656319
C         0.59501018273342    0.98490075788343    5.88718334491498
H         0.57186861783788    0.03792124231080    5.36882920340058
C        -0.38275934782459    1.91449545671119    5.67369096661871
H        -1.19266171229775    1.72054274387011    4.98587696687524
C        -0.33044692828877    3.12941954429739    6.36065463970100
C         0.68966374990704    3.39975673908559    7.23249709745533
H         0.71642632062639    4.34593258670353    7.75504403449330
C         1.71996145669846    2.46900475522999    7.45652204873788
C         2.73430393432011    2.83623664772012    8.39229232276194
H         2.56269561144526    3.77680979918483    8.93484291372399
C         4.66600716497790    2.59664584847788    9.66523258835065
H         4.42131730654720    3.57501397153781   10.09332079828975
H         5.72178531724816    2.51339513816573    9.41403933051139
C         6.27038821550782    0.55466935257386    6.85963059421317
H         5.82437446643611    1.53773117087082    6.76341396570197
C         7.54882526926002    0.29085930541894    6.35188495350864
H         8.10893633999176    1.07330240091478    5.86396432135863
C         8.06825894880688   -0.97301182863584    6.48904851080861
H         9.05238083290765   -1.21835630706601    6.11562025778705
C         7.30226121598106   -1.96498400978465    7.12500124394122
C         7.76968222596282   -3.29888867136794    7.30418624136757
H         8.75297190178341   -3.54990830577513    6.93423422069885
C         7.00297735965238   -4.22585612879059    7.92513559761501
H         7.35954383444949   -5.23579307772492    8.06550873486527
C         5.70348290945665   -3.89853483371587    8.41011530334077
C         4.88142651934009   -4.83796359009307    9.05580444590921
H         5.23898960033858   -5.84734766180896    9.20214592647073
C         3.63734848312569   -4.45106466041581    9.48773931614882
H         2.98110336957311   -5.14525616961071    9.98899748324237
C         3.22264493434615   -3.13098457110171    9.26926117551489
H         2.24589718139530   -2.79463300811308    9.59277826863070
C         5.19762896380764   -2.58753033616495    8.24675392055100
C         6.02008692396883   -1.59776396703607    7.59810245657055
O         1.55565164270852   -0.52103975591755    9.79089144893610
H         1.93504082539815    0.08938775700959   10.46864621127231
C         0.22978641370995   -0.08710283903444    9.53996892189827
H         0.18637361247970    0.98182096647697    9.31423553027305
H        -0.40384022567116   -0.29267537442103   10.41035753798112
H        -0.14600965058132   -0.64528367367029    8.68156939914923

