32
CSD_code = AFIBID | q = 0 | S = 0 | Stoichiometry = C12H12Cl2N2O3Zn | MND = 5
Zn       10.10757191922090    1.59184702543172    2.59718664699520
Cl        9.05388107268909    1.13392659856397    0.64686853577628
O        10.37123551708846   -0.66918837898293    3.18489855150462
O         8.66448282932206   -1.55851497284907    1.85801778046811
H         8.64374686967943   -0.72522104001867    1.31554551876624
N         8.46569141580814    0.99417487875336    3.84242331527034
C         7.64440821075791    1.87482268027904    4.40018705666596
H         7.98591710853187    2.90083679785885    4.39844909450571
C         6.42747337316646    1.51079012843744    4.94967045597569
H         5.78612698662615    2.25796389498896    5.38864169092721
C         6.05554689165465    0.17573203312223    4.91270867152374
H         5.10922245828497   -0.14584538468016    5.32077196528274
C         6.92285617898470   -0.74251573264719    4.34482904527081
H         6.67859855331284   -1.79148874937734    4.29224176534092
C         8.12563429679763   -0.28935844603711    3.82057885598902
C         9.07020454184512   -1.26064253196136    3.13281827710192
H         9.09531804753136   -2.21527525045677    3.68500223529771
O        11.94428463756073   -2.35835576299154    3.18051272165770
H        12.28934364041768   -2.00116017542775    4.00950245031171
N        12.09382744278095    0.97710130092991    2.04698418273790
C        12.98969145329581    1.87362396519826    1.65070500781225
H        12.68895812751940    2.90836179589387    1.73903343765840
C        14.23548476549211    1.51607231365443    1.16607646000638
H        14.93150550602027    2.27641337616684    0.85075355505295
C        14.56057910070708    0.16981862177012    1.09718813557013
H        15.52169320097663   -0.14916863926033    0.72321501238783
C        13.62803922303712   -0.76192964050995    1.51911424309494
H        13.82874065716084   -1.82135013282171    1.49458268581849
C        12.39908011814458   -0.31267051214075    1.98563300069623
C        11.36519873378347   -1.32681778028102    2.44354025135239
H        10.91630569839035   -1.80763325990713    1.55910009038779
Cl       10.54205142341015    3.60245097930224    3.39041930278966

