51
CSD_code = AFICIC | q = 0 | S = 0 | Stoichiometry = C26H14Br4N4NiO2 | MND = 4
Ni       12.41716657105216    3.10432741316814    1.23513139830085
Br        8.18128680547870    1.62627004246509    0.12597867816483
Br        6.79638455128391    6.84312577638001   -1.66277841521812
N        12.32658947414374    5.01218622218011    1.36524477190893
C         8.57091438960851    3.47194869575451   -0.05944106380428
C         7.67852625937680    4.31314846880725   -0.67172414833220
H         6.73922501356898    3.93869551759410   -1.04788091087377
C         8.01645821595943    5.65685610713812   -0.80573129217296
C         9.21383848531727    6.14015370035065   -0.33111681514522
H         9.44711433033310    7.18492167340370   -0.46790438517820
C        10.12237118814493    5.28534948527939    0.30002593338310
C         9.82734309615284    3.89856438284227    0.44400950785413
C        11.35770895383141    5.77084720806125    0.85747080880508
C        13.27202826377883    5.87009745769125    1.89270025932022
C        14.44045835316727    5.62927638292554    2.60872499604891
H        14.74981723008213    4.62122641690984    2.82852648897384
C        15.17430860892747    6.72138852472784    3.01959687430214
H        16.09066702090018    6.56554817053220    3.56706499694853
C        14.76542425703523    8.02849144648600    2.74844973756033
H        15.37524307550650    8.85171589074049    3.08700674676583
C        13.59211648711770    8.28937270933338    2.07029764437248
H        13.26007328025207    9.29731154218287    1.87581243509942
C        12.85222835071482    7.19390261031915    1.65500903393909
O        10.59579451656107    3.03199596190788    0.99376795563638
N        11.64881154528615    7.09016828311003    1.00437395144329
H        11.06962466314869    7.85826888380820    0.71138221841655
Br       16.65220643642878    4.58412781091245    0.12670801504930
Br       18.04076861416606   -0.63262106021368   -1.65960542115865
N        12.50799472891797    1.19636970163964    1.36496713249956
C        16.26392487002976    2.73807834247656   -0.05792971915067
C        17.15701949242042    1.89712190183889   -0.66954323745053
H        18.09598534957257    2.27207117564521   -1.04602092076792
C        16.81982826290595    0.55320860527361   -0.80322653004284
C        15.62255137963465    0.06940689226508   -0.32884313409545
H        15.38991564239376   -0.97554593496884   -0.46530996274309
C        14.71333233128098    0.92394830686163    0.30165864457784
C        15.00754838724770    2.31093690307518    0.44518994507423
C        13.47794742287966    0.43806472305997    0.85867912182777
C        11.56268943576385    0.33808039892010    1.89208534084592
C        10.39325347759745    0.57841805388928    2.60662801277173
H        10.08272737229439    1.58635224961128    2.82528682144786
C         9.65990138141573   -0.51401719584161    3.01753273326026
H         8.74267965634569   -0.35853110717066    3.56366807384298
C        10.07018796230773   -1.82098656548919    2.74787522164482
H         9.46066373698880   -2.64447188074134    3.08634362428633
C        11.24442962338990   -2.08136911528595    2.07116732837681
H        11.57760866538753   -3.08914949701734    1.87779819532415
C        11.98378704956897   -0.98556544601678    1.65581581438155
O        14.23856255847753    3.17711436220292    0.99477498090090
N        13.18774224821936   -0.88136897880263    1.00627331931638
H        13.76792092763042   -1.64923162021963    0.71462919343368

