89
CSD_code = AFIDOJ | q = 0 | S = 0 | Stoichiometry = C44H32N8O4Zn | MND = 4
Zn        6.33470195084270    1.70244646493414   12.43407612488460
O         6.97335897580065    0.68352565309354   11.04173999897554
O         8.16636084669244   -0.93609951698399   10.16908308541345
N         4.81218479526192    2.87263351806050   11.79961589561777
N         3.82287042572232    4.81073742577601   11.39733433718177
H         3.69572859374393    5.75551511780932   11.07473344961010
N         9.22471762551164    1.85419225727302    9.28345606542694
H         8.43414487794124    1.29487897601977    9.58241139017461
N        10.59577538246891    3.59443530805505    8.99074310866755
C         3.49267377617576    2.76918528744254   12.18369617429942
C         2.76686726979712    1.70014189589819   12.69853580999027
H         3.22573561297621    0.74052014549478   12.86541851690539
C         1.43656969358261    1.91438360687859   12.99182764661021
H         0.85059642792745    1.10533800907776   13.39940696639987
C         0.82814227174307    3.15500557636479   12.79027685136987
H        -0.20970820710630    3.27782547944664   13.05642506761006
C         1.52318977482691    4.22029402584321   12.25645579817132
H         1.05426682386857    5.17660621114474   12.08662108442745
C         2.85613899798491    4.00427203011236   11.94614164827891
C         4.96859926196545    4.09320474252558   11.31588990992599
C         6.21198928173454    4.60627987398038   10.77268427179767
C         7.12706630932040    3.70828272553018   10.23028198403621
H         6.84205233664850    2.67686351043493   10.12063595774256
C         8.38379901789850    4.13964886247993    9.81867529151639
C         8.69360350612288    5.50087162088627    9.90014433208428
H         9.67215504042361    5.81817058914351    9.57766277189923
C         7.76018249713711    6.40164535697273   10.37455016460854
H         7.99980526617024    7.45436481453167   10.41270359175335
C         6.52267616798077    5.96656468079357   10.81952657220317
H         5.81522650779089    6.67437081144815   11.22630243550463
C         9.39115090542371    3.21066430752386    9.35328906240978
C        10.41551620604255    1.33685998673678    8.86609297585111
C        10.84179329076814    0.03455284988406    8.64790135697276
H        10.17418202169669   -0.79466159186019    8.81787000320037
C        12.14523049339174   -0.12801577876788    8.23150029008999
H        12.52520019525994   -1.12302260404488    8.05200497646989
C        12.99836855987729    0.96557232051339    8.03403801361381
H        14.01064279277729    0.78040562874181    7.70438273829806
C        12.58334997798655    2.26006017245529    8.24998155304071
H        13.24035736724788    3.10204273956707    8.09961908179022
C        11.27044727746381    2.45213235022246    8.67677653352586
C         7.43450560109756   -0.52529688039946   11.05223737966224
C         7.06114094401771   -1.42005926328921   12.23404929593778
H         7.64583005020692   -1.07879952398323   13.09577862222121
H         7.38302117768860   -2.43324109933002   11.98909846243999
O         5.69538885515318    0.67391851485326   13.81937859004474
O         4.51249604398402   -0.95929451208157   14.68139072570464
N         7.86259871122651    2.86469237802087   13.06830415270233
N         8.85565086635350    4.80386578357617   13.45623667670501
H         8.98400427596721    5.75147998602060   13.76994443928326
N         3.47755538656921    1.84864450278452   15.60190661012327
H         4.26563751427533    1.29434059432751   15.28749340086726
N         2.10411711302215    3.58305433892430   15.91790736917152
C         9.18318793203635    2.75373640310855   12.69075670612826
C         9.90785083063645    1.67657204570437   12.19167736902615
H         9.44538948431708    0.71753402403045   12.03092687203564
C        11.24120956199168    1.88236223243166   11.90643844035615
H        11.82727380232112    1.06679944700149   11.51224270228114
C        11.85292962412299    3.12283760927083   12.09916946921195
H        12.89321879060913    3.23861788102989   11.83946469402520
C        11.15825445337066    4.19677533665791   12.61581591264440
H        11.62974833025092    5.15308679277208   12.77815858063293
C         9.82246053223752    3.98910099618910   12.91952391295133
C         7.70807918910387    4.08988582506708   13.54065038607436
C         6.46489287141881    4.60500484582329   14.08205257290510
C         5.55719427282219    3.70709163409110   14.63677072382893
H         5.84870788409616    2.67822027964431   14.75400067359085
C         4.30084798008778    4.13559673422280   15.05219947176208
C         3.98369786877004    5.49443940844310   14.96050124174931
H         3.00568281731023    5.80987974488323   15.28641163611173
C         4.90986854213369    6.39557726346058   14.47260588658998
H         4.66449952224530    7.44665229615199   14.42636916360752
C         6.14743977704961    5.96312100407452   14.02495864762937
H         6.84965557113858    6.67049276425543   13.60848595601939
C         3.30362457671875    3.20440468386002   15.53416708931704
C         2.29694157785180    1.32618136482972   16.04125975059419
C         1.88123953602945    0.02224035191889   16.26982003599819
H         2.54899292941670   -0.80426843647252   16.08756319114640
C         0.58745035425037   -0.14559858068977   16.71332500110774
H         0.21615354152883   -1.14200905398501   16.90283534772224
C        -0.26646946292895    0.94438526303765   16.92662828831838
H        -1.27077998068991    0.75511829607178   17.27760446105161
C         0.13774770424192    2.24039626226895   16.69950513027238
H        -0.52008484387232    3.07953297395474   16.86164663910652
C         1.44077287787620    2.43790497182346   16.24573964548938
C         5.22603055259309   -0.53202531800528   13.79144360945371
C         5.56521361862796   -1.39937915773516   12.57916214274052
H         4.99394465673218   -1.00878933708856   11.72939020922096
H         5.20867598860940   -2.40837911331618   12.79108982497475

