69
CSD_code = AFIGEB | q = 0 | S = 0 | Stoichiometry = C23H37BClN6Nb | MND = 7
Nb        7.97389317031388    3.04239859666010    9.89651116257765
Cl        6.59550659637415    4.44270397981673   11.18290553272197
N         6.00794448727187    2.21349986081826    8.91487299488718
N         5.96520992108734    0.89839586584338    8.60998245225233
N         8.95893977716438    1.23319865669551    8.81873594978872
N         8.32706591815990    0.04530421926462    8.78293872905342
N         7.31416011228743    1.19641365695553   11.32677906947134
N         6.83862613178500    0.06692405596817   10.78622138395928
C         8.42294103702390    4.12518184612462    7.88830636307124
C         7.89902563035986    5.56654303240154    7.95153661965162
C         7.88381009057423    3.42031624762988    6.63512465214404
C        10.31636133561130    5.50997557473788   10.82132751357411
C         9.62826379155428    4.20130215893512   10.63521015721058
C         9.78989838699596    2.97095100543927   11.02276298737255
C        10.75124842030390    2.15619686255794   11.81709828549753
C         4.93462030627800    2.78656379290123    8.37223233856191
C         4.19471949895303    1.82185456617982    7.68226577434293
C         4.87925772117220    0.63608222857406    7.85581060189981
C         8.42015792026405    4.00526593173352    5.32463713864713
C        10.18897034317533    1.04908148679887    8.33200595916390
C        10.34676355289102   -0.29206781201915    7.98006855012209
C         9.14317951833413   -0.90055639262737    8.28394350512664
C         7.10800179387248    1.15160005288976   12.63722823700073
C         6.48281095592796   -0.06022529298710   12.95483130299973
C         6.32498695468072   -0.72213104669677   11.75141980353149
C         4.56090347299916    4.21998735068550    8.51055251755071
C         4.52926495056778   -0.70270908318831    7.31188254492523
C        11.21669280275138    2.11283125393943    8.16488560754524
C         8.77969419098758   -2.33209232191206    8.11680492298607
C         7.47711847004398    2.25536799541792   13.56502548096173
C         5.70644885853983   -2.05081870797662   11.50198676937420
B         6.88248922923531   -0.14671830089836    9.26771356271077
H         6.51043627845239   -1.23193395888481    8.99996106284549
H         9.51068859368123    4.20943182249538    7.73838813741614
H         8.18815175290423    6.04699994095184    8.88667995611693
H         6.81424805237179    5.59170607746559    7.87649114689323
H         8.30258456758231    6.16929201898157    7.13316997847273
H         8.16329196862245    2.35971984423841    6.66253613692646
H         6.79167850242387    3.47676731302321    6.61188181785303
H        11.20001656657629    5.39706362691815   11.45429248011831
H         9.63388864122181    6.22123468410333   11.28954323825140
H        10.62121751112035    5.92190377309734    9.85876935538806
H        11.43917074674677    2.79824729752685   12.37247918428772
H        10.22514940015339    1.50854846899037   12.51880104831850
H        11.33185333122416    1.51628051434129   11.15011293425700
H         3.28534269971511    1.97423372919769    7.13679978123570
H         8.07352205303871    3.41744485185050    4.47616209789688
H         9.50890512711526    4.00077790710683    5.32106044790600
H         8.08109098357149    5.02845552637826    5.18597753929076
H        11.21871182413171   -0.75351793941541    7.56275289508441
H         6.18433879481841   -0.40076760669002   13.92580511124626
H         5.18106138837339    4.71499822650357    9.25360702653276
H         3.51836113211057    4.28952821920562    8.81990345429163
H         4.65522834449308    4.73292323602957    7.55271410370936
H         3.66962359636834   -0.60754238546434    6.65355733332500
H         4.28003914094641   -1.39721675637968    8.11251356908858
H         5.36195136239416   -1.11901718653407    6.74829694666940
H        11.08796736482656    2.89894699912368    8.90658322319244
H        12.20881058304049    1.67545210670862    8.25961668955525
H        11.13698128972086    2.55123381319490    7.17015129105871
H         9.62522158452574   -2.87018112882939    7.69664536203377
H         8.51998086658971   -2.77734681430416    9.07524721735577
H         7.92653091945018   -2.44189730154506    7.45021990273242
H         8.19752299558233    2.92877922827864   13.09922385151372
H         7.89246472907007    1.85088413766329   14.48692197472000
H         6.58829906471497    2.83499844712200   13.81847528404585
H         5.40248846635095   -2.49108790671860   12.44791967013442
H         6.40970229837596   -2.72090965441461   11.01063006756750
H         4.83000213007412   -1.95245449199788   10.86330021195757

