93
CSD_code = AFOFEH | q = 0 | S = 0 | Stoichiometry = C34H54N2O2Zn | MND = 4
Zn        4.01686760464078    6.35798853481428    7.64579653876992
N         2.30783637979711    5.37975022872498    6.86923156675797
N         3.29180013362160    5.70088924441305    9.52433688547734
O         3.66214002924013    8.02526367861164    7.11657593203271
O         5.58592609829914    5.50854740333055    7.62770158614424
C         5.68138245734850    4.28772579191920    8.14172293593833
C         6.39438383243242    3.26276329817701    7.47565070325144
C         6.40392292312215    1.99244931072704    8.02941488407210
H         6.92796449863839    1.21450861200634    7.50593595519866
C         5.77299511905372    1.67170118017114    9.22571545236019
C         5.13834000586645    2.70308213683417    9.89989322689121
H         4.66732078783305    2.52148196059771   10.85657956519728
C         5.09317745574508    3.98761309015624    9.38501367579061
C         7.15227503735275    3.57153167022573    6.18880048865445
C         7.93262809563511    2.36889699490160    5.64667008146541
H         8.65979478968948    2.01189430683673    6.37227095003189
H         8.47419804281288    2.67184076503570    4.75245433039832
H         7.26811565084723    1.55211251409559    5.37228105712439
C         8.15729264735943    4.69531191656140    6.47374259691246
H         7.63604851858604    5.57989715265710    6.82519267960975
H         8.70796253445192    4.94683105565139    5.56951080410391
H         8.86560079564689    4.37963324435599    7.23727349799983
C         6.17039645699836    4.02196606517320    5.09949902954805
H         5.64976637178586    4.92284118502148    5.41378672110956
H         5.44435851415611    3.23527451187205    4.89809986319713
H         6.70851761136046    4.24011273826088    4.17908653753426
C         5.77171360470713    0.27017208766320    9.81891888040633
C         6.50247293675954   -0.74764304779766    8.93924600079392
H         7.55014645710436   -0.48164345433761    8.82243244775932
H         6.04057917344062   -0.81972580103634    7.95729874747572
H         6.45564512528367   -1.72986669482773    9.40609647430426
C         6.46729472525153    0.30239832669645   11.18690141299947
H         7.48939773915851    0.65857231761157   11.07749017664745
H         6.49185205454179   -0.69512281887414   11.62166706779839
H         5.95009301377292    0.96270022298305   11.87754539632798
C         4.32029799790360   -0.20294738787736    9.98680969561273
H         4.29712012495478   -1.20826559913179   10.40285266763492
H         3.81623708508050   -0.21735687964586    9.02233998576983
H         3.76535301529512    0.45232808029488   10.65280191216638
C         4.45293551471163    5.08383949012423   10.19414042151738
H         5.18840606564135    5.87841785411372   10.35729464258943
H         4.14540594616375    4.68884109991473   11.17384441797512
C         2.74074992915437    6.75477732309369   10.37049016696473
H         2.35771678635465    6.34281227466967   11.31315538022317
H         1.93383925321070    7.27100511449956    9.85292452086592
H         3.51695426748605    7.48295952729609   10.59645430707697
C         2.27381644721378    4.69330491869910    9.22371269548598
H         1.61936968068381    4.52407752174460   10.08952287159372
H         2.78878087243166    3.75745331551538    8.99254537740447
C         1.44135834196123    5.12540594628972    8.02077989899467
H         0.69311568366733    4.35555383793025    7.78837303810407
H         0.91801512240715    6.05570866457295    8.25555250195524
C         2.58518369172211    4.14109290019488    6.14873477217199
H         1.65593725984793    3.67181240518113    5.80051575622022
H         3.11870919694929    3.44234823978100    6.79108598724271
H         3.21391760217773    4.35467209795599    5.28683872807834
C         1.68495105225787    6.35642514381995    5.95443509430646
H         0.76726561472544    5.92610481636778    5.52688871741560
H         2.39660503321574    6.53128801540449    5.14078241892071
C         1.36762513009188    7.67223109360161    6.61389418894403
C         0.04835101775775    8.10050718553288    6.66653379365526
H        -0.71030083115465    7.44405448977447    6.26767355137238
C        -0.28699540741793    9.33022653456415    7.20181586816415
C         0.76041017092271   10.13682408515380    7.64290585945181
H         0.51261143613840   11.10873479624230    8.03311895639461
C         2.09000979650631    9.76018261405225    7.60592029555732
C         2.41041049328783    8.46815599756970    7.11961975669228
C        -1.71825365543984    9.83493625626053    7.30946996869280
C        -2.04520403736586   10.10930660014364    8.78443547124234
H        -1.94022734643390    9.19743816743395    9.36928860079276
H        -3.06840636159706   10.46666755394576    8.88342588454411
H        -1.38070508849183   10.86005086355927    9.20241669271211
C        -2.73875547865959    8.82533392615054    6.77638625253400
H        -2.69205805470626    7.89056344027435    7.33095257835496
H        -2.57213090491412    8.62306519523693    5.72097383655265
H        -3.74267286911615    9.23113166916962    6.88634572470402
C        -1.86110685895418   11.12916597006462    6.49715446743179
H        -1.59827255132618   10.94898070890666    5.45680771236928
H        -1.21097238196278   11.90994807202640    6.88111611375862
H        -2.88736155667938   11.48909616248756    6.53852894695631
C         3.19873026910539   10.70812669508874    8.04920394241219
C         2.67722934898270   12.08626300751555    8.47094909512488
H         2.14348038157754   12.57113471133588    7.65672638524301
H         3.52165954800431   12.71818106472334    8.73971782627095
H         2.02408423867022   12.01729815057629    9.33867093698875
C         4.16543984620473   10.90890907603386    6.87489997679290
H         3.64058873153659   11.34764706209016    6.02851442960006
H         4.58336981036630    9.95478341583960    6.57041903828282
H         4.97744304398160   11.57299996267072    7.16428916181541
C         3.95335016288622   10.10757675847030    9.24215165137353
H         3.27240775800623    9.94942915957795   10.07754871964777
H         4.74335757399140   10.78390599445672    9.56272360741984
H         4.40611581862447    9.16053510942968    8.96029058176370

