42
CSD_code = AFOHIM | q = 0 | S = 0 | Stoichiometry = C19H19ClNPPd | MND = 4
Pd       12.48715653865185    2.39833776402103   11.91583790988394
Cl       12.64741968042943    1.10712559495304   10.10133933190068
N        10.92529491709328    3.68766239470095   10.79267392842405
H        10.90135397356799    3.64497204574163    9.77373225986031
H        10.21885050064799    3.04068649938978   11.16425114229119
C        13.76644431213282    1.16594110836144   12.93714659683527
H        13.17975045399294    0.28305167767922   13.22584994340328
H        14.18303208749192    1.64499323550369   13.83019941348610
H        14.57767759752376    0.85806807707216   12.26956109553162
P        12.26207726106730    4.03072208966905   13.44998608652663
C        11.26530710612439    5.30275250540058   12.58231502493576
C        11.10683882282583    6.58624811203773   13.09248380078677
H        11.47732800982437    6.81127055323473   14.08216427912462
C        10.49696924249081    7.57117070544578   12.33825072231006
H        10.37952902103710    8.56529701609418   12.74182811271250
C        10.05965914141900    7.28567330025127   11.05447353250908
H         9.60298012310162    8.05801562398159   10.45420187037839
C        10.19871863847099    6.00995184541867   10.53913624260245
H         9.85377278983055    5.78882553938509    9.53838401758574
C        10.78522122651366    5.00367358912820   11.29997888385881
C        11.64666630799486    4.06925289952882   15.15716574587115
C        10.33269617629116    4.41497847031243   15.45575959643630
H         9.66763953013048    4.73584696830632   14.66511142088989
C         9.88077604927536    4.35532953880467   16.76187425450721
H         8.86227182700668    4.63331745332594   16.99041667023533
C        10.72901488817325    3.93713582873988   17.77387301207175
H        10.37336979668184    3.89318458140304   18.79245928460503
C        12.03155825490092    3.56568446809117   17.47777158535578
H        12.68972141470239    3.22811614393525   18.26473522230352
C        12.48738007638144    3.62274709903749   16.17485948829410
H        13.49969794996687    3.32694536870364   15.93295533404388
C        13.85301823774494    4.91932332056571   13.52902016625636
C        14.19469935007066    5.84147204176476   14.51159270735977
H        13.51868051343499    6.03775349569162   15.33220355920878
C        15.41324681199655    6.49399937952647   14.44865106744474
H        15.67982975394762    7.20581842872162   15.21631242889826
C        16.29024565355877    6.23719987299276   13.40756468179109
H        17.23992713392349    6.74950029755699   13.36519977296643
C        15.95356314936918    5.31908079759326   12.42504422805937
H        16.64017655821988    5.11430844628894   11.61734979508243
C        14.74008593194571    4.65992159640925   12.48539045081233
H        14.46685319013698    3.91754422522473   11.72359533255229

