75
CSD_code = AFOHUY | q = 1 | S = 0 | Stoichiometry = C37H34NP2Pd(1+) | MND = 4
Pd       -1.47451312196353    2.00042799852133    3.08348070846367
P        -2.39111316587499    2.23000110466208    1.00498968650500
P        -0.75410930084684    1.64112967889522    5.19980560386849
N        -3.30834754137249    3.31001844350281    3.64452429724466
H        -3.69243907393263    3.28660830507910    4.59151686614299
H        -2.78289975365523    4.18817238939492    3.54582834399906
C         0.24899174411557    1.16132117353018    2.31851665811957
H         0.94225791236977    0.81530977070108    3.08910926155070
H         0.72434240428812    1.96566512868747    1.74231695070378
H        -0.00241443189961    0.33049640781228    1.65063645620148
C        -4.06364064116428    2.87478149859467    1.36113106718257
C        -5.07267853180216    2.85062780044813    0.40398897841851
H        -4.83619674485467    2.54884791547358   -0.60630730702930
C        -6.36635527672034    3.19389427619872    0.74868671064464
H        -7.14598388751763    3.17358210589449    0.00369384758588
C        -6.66440295349070    3.54291374348094    2.05677965208653
H        -7.67685725089239    3.79321988897853    2.33221795246236
C        -5.66660850631040    3.57850289610194    3.01501811222619
H        -5.90132415823314    3.85524814143079    4.03368829129437
C        -4.36002483704480    3.25599208698597    2.67218560634524
C        -2.84521479532651    0.53262179620335    0.53006085375833
C        -3.03352454050961   -0.35171013781092    1.59355728723656
H        -2.87667050475542    0.00027744215499    2.62401606156764
C        -3.42054656878153   -1.65537108304791    1.35064222566448
H        -3.56466659165653   -2.34058528397966    2.17257057226231
C        -3.62032762132745   -2.08259388738590    0.04608822278399
H        -3.91711320098394   -3.10203450655257   -0.14623241691451
C        -3.43891382498889   -1.20541888475238   -1.01025398823248
H        -3.59699883060617   -1.54122349378328   -2.02380494133125
C        -3.05512685789654    0.10396847133504   -0.77426843426887
H        -2.90948753890258    0.78445671463207   -1.60135452690485
C        -1.83984198819551    3.05260500046335   -0.50733477522149
C        -0.80186925547992    2.46698310344823   -1.23126355500259
H        -0.38481967037429    1.52532389121377   -0.89870672988742
C        -0.31964895274621    3.08585699530492   -2.36856974906723
H         0.47686099033290    2.62688449200988   -2.93421402574034
C        -0.85693082659543    4.29628289977937   -2.78013124453672
H        -0.48025120272731    4.77796664994923   -3.66915957198035
C        -1.87153797538901    4.89201064806375   -2.04866601839750
H        -2.28272542808668    5.83849597723466   -2.36542694760429
C        -2.36076026137210    4.27865907365991   -0.90898252213144
H        -3.14986476689385    4.74688933913485   -0.33622496367487
C         0.80094493967715    2.55094538006266    5.41196150041574
C         0.94528476703102    3.66594695174490    4.58542966889463
H         0.15972174000782    3.90073162252613    3.85564494357940
C         2.07523478729545    4.45529781056368    4.67717289530419
H         2.18795024034492    5.31963874025820    4.04017860357700
C         3.07073714339338    4.12737966709137    5.58574749891112
H         3.95617313580747    4.74003769559514    5.65644057390970
C         2.93841171853879    3.00964927090563    6.39342310399718
H         3.72174466856446    2.75147875839727    7.08961604186630
C         1.80541728385798    2.21768848269380    6.31139895158216
H         1.70919767900453    1.33985121723388    6.93346129971376
C        -1.86446578147080    2.33487827200659    6.46409735716275
C        -3.15370916631881    1.80190067272433    6.50636785082801
H        -3.41666163728049    1.00266579636795    5.81921856797910
C        -4.07325876346643    2.27986081434463    7.42039635471049
H        -5.06764876947429    1.86053772116923    7.45801491790382
C        -3.71321450812701    3.29855799603986    8.29134326691939
H        -4.42917063727815    3.67159958066424    9.00725201657944
C        -2.43737027677074    3.83599579473805    8.24487104754284
H        -2.16024953711022    4.62736198660274    8.92452196877618
C        -1.51034268474748    3.36058350992988    7.33163205705856
H        -0.51460720087159    3.78006114486939    7.29615512142845
C        -0.53489767472529   -0.05606078424463    5.79339368761104
C        -0.61485475686088   -1.09825264888595    4.87492172325089
H        -0.79645040716187   -0.87218337212702    3.82832474297485
C        -0.47007680383290   -2.40598578591290    5.30219853195255
H        -0.52979910124124   -3.21549734466163    4.59057091842330
C        -0.25106089631841   -2.67521299896756    6.64358763604087
H        -0.13504665196039   -3.69508396846673    6.97665374130246
C        -0.19387607281161   -1.63913497244672    7.56345397689143
H        -0.03895647791756   -1.85383459007518    8.60994811954960
C        -0.34289611618303   -0.32976650610855    7.14547437721877
H        -0.32730685169589    0.47805811397529    7.86467837984494

