83
CSD_code = AFOQAO | q = 0 | S = 0 | Stoichiometry = C40H34Cl2N2O4Pd | MND = 4
Pd       -0.94278665746136    3.77356763163193   10.53162374036559
Cl        1.21480784715475    2.82562314451999   10.30214496208947
N        -1.90427289771013    2.07337780203482   10.38132581229932
O        -2.23013770240758    5.91044569336946    9.22476768557588
H        -2.80941626399818    5.41058568552821    9.83890395064669
C        -1.74334168850026    1.06418125235232   11.23410763620169
H        -0.86848133589128    1.11201127113663   11.87529288747925
Cl       -2.89019407697608    4.46364503746773   11.69016862923110
N         0.05766945272175    5.42293011008950   10.86583421944790
C        -2.62540983204862    0.00768559760883   11.30048995233672
H        -2.45720159565352   -0.79367871913671   12.00165694973792
O        -0.53770229056308    2.72473771035314    7.94960908772258
H         0.29139929740007    2.91813152959391    8.43710476649437
O         0.30966000246967    5.40007035667090    8.65175030590499
C        -3.74355864685906   -0.00606948919847   10.46366232885090
O        -3.01506436870789    3.15736188117246    8.78232190654670
C        -3.90394169509074    1.04843248325305    9.58111871669429
H        -4.75122289517735    1.09663237821324    8.91418418707796
C        -2.95789408556403    2.07198975861027    9.56252324646792
C        -4.74165301716506   -1.11429422927253   10.53796636490225
H        -5.40207874963125   -1.10377279156515    9.67520900168483
H        -5.34695680363467   -1.00267193173826   11.43731340398782
H        -4.23885641410695   -2.07743801247933   10.59363288120324
C         0.35637751281640    5.86122430009670   12.08613629237484
H        -0.18738853934141    5.40430797344617   12.90734033466872
C         1.29293667232162    6.84826379428205   12.30618418470392
H         1.50070863306147    7.18147359433583   13.31010157719911
C         1.97615883209857    7.39917454534012   11.22052895945608
C         1.66077842503853    6.93491289556048    9.95428233956141
H         2.15983067004051    7.31903807737316    9.07769872084780
C         0.68672906908401    5.94851716242400    9.81259025931042
C         3.03163542436671    8.43642058463739   11.42099502266997
H         3.17000054860706    9.03036143521828   10.52139623722907
H         3.97862411135977    7.95102464479789   11.65758352734285
H         2.77532160915325    9.09155660487423   12.25012572069347
C        -3.81028661258376    3.13268007894010    7.63855354811082
C        -4.81868726901177    4.09304453543077    7.53198983086792
C        -5.62893019877172    4.08492206425953    6.40440649991728
H        -6.42126539908345    4.81231667151242    6.31951222521781
C        -5.43550189630560    3.15825585086251    5.39902513881574
H        -6.07810095799876    3.15702013460597    4.53156432178419
C        -4.40811150961276    2.24065487686656    5.50149669981541
H        -4.24032376869232    1.53113146817894    4.70534627612149
C        -3.57805441375823    2.20861324250980    6.61515469173121
C        -2.43566246680876    1.22449715613083    6.63040168174567
H        -2.75142592774385    0.30685725634720    6.12973928261045
H        -2.12911465228090    0.97996624016476    7.64679487305597
C        -1.24133728584114    1.80040683091307    5.90595165457185
C        -1.04541481568923    1.57502731586361    4.55525652512519
H        -1.76266227712659    0.98394436850376    4.00465936316795
C         0.07401215545596    2.07399553751076    3.91505414266529
H         0.23328532968320    1.87767676726949    2.86554738153195
C         0.99023603497175    2.82166655822754    4.62970359699430
H         1.86736506939150    3.20463345828520    4.12868558843193
C         0.81443663913466    3.08324665846677    5.98106162252871
C        -0.31067179095009    2.55981395687280    6.62837475151114
C         1.79750237539788    3.98500252190039    6.69741740383441
H         2.78512053749117    3.85906641097920    6.24981881237772
H         1.87157514203894    3.74652111107300    7.75940338008717
C         1.33973811194995    5.40912823846798    6.49964850788155
C         1.62387941423602    6.06223555482224    5.30769789732156
H         2.22684803186465    5.56380860403285    4.56465031266096
C         1.15030142788354    7.33692941219800    5.06705553266108
H         1.38672763477390    7.83775396213068    4.14038980088374
C         0.36138296318333    7.96395778335369    6.01168196188930
H        -0.03004312847623    8.95065437576421    5.81497609968557
C         0.05654934758609    7.34954528264556    7.21990956760475
C         0.57499282836656    6.07348991680135    7.46127268667153
C        -0.86794973487231    8.06348321181012    8.17355821452265
H        -0.68237119389528    9.13770198974379    8.10980185568824
H        -0.71153579484977    7.74264503701570    9.20274260338465
C        -2.30787810076136    7.78582581050408    7.80945879867943
C        -3.00216324421067    8.61819628837853    6.95007400784473
H        -2.50450303682971    9.47671768077735    6.52321494691433
C        -4.33217579295872    8.37624393635172    6.65961282762583
H        -4.87583740625851    9.04094868100037    6.00555323578063
C        -4.96180853832497    7.27989661990805    7.21690980474288
H        -6.00291180704010    7.09706866400083    6.99414187538737
C        -4.28891674241203    6.41252801446943    8.06571175237228
C        -2.94839948824361    6.67320798023849    8.37210642459532
C        -4.99570856134677    5.17257406890960    8.57115033266626
H        -6.05892995602979    5.39163768782876    8.68561115688300
H        -4.60894782583862    4.84630036455327    9.53757470404421

