58
CSD_code = AFORAO | q = 0 | S = 0 | Stoichiometry = C22H30FeO5 | MND = 7
Fe       20.57586692053700    1.20493176021076    9.26407535940502
C        21.92858135371772    1.46135920067758   10.35529919216225
O        22.84009190194923    1.54756083733493   11.04881546716178
C        21.37804750012993    0.38566298165028    7.87646529485322
O        21.95970068821704   -0.16548243305499    7.05860489038365
C        20.23838784229250   -0.14417349124619   10.34560866779267
O        20.16207281986262   -1.05281354665066   11.04714274738221
C        21.91022765233111    4.10613811344901    8.40433994994419
C        20.72963239248240    3.17733755061871    8.26938180971708
C        19.71542573533933    3.21640918394435    9.26474019108763
C        18.62469232421007    2.32061730722613    9.19853304231320
C        18.54088812752174    1.38918046394896    8.14448966259968
C        17.45606744958571    0.32806454119114    8.03796094997145
C        18.12066813246967   -0.92074562863448    7.42252743588073
C        17.12751615131362   -1.98044020914289    6.96194884552429
C        16.14012464053258   -1.39844660668062    5.95597025074480
C        15.37731953546195   -0.18383265733511    6.51043770968116
C        16.40342984048168    0.85556458446262    7.02101494875196
C        16.89080247900342   -0.00812992355839    9.41712015050128
C        14.34169203072564   -0.65783259536428    7.53644504936899
C        14.63009040156274    0.48227256587737    5.33803292655902
C        13.92514646839421    1.76835671011194    5.76050959857183
C        14.92771764406847    2.76764186104496    6.32864842208264
C        15.70904898167533    2.14115752524257    7.47969758250634
O        13.29992700455975    2.34928935532176    4.60525088868201
C        11.97197641989620    2.48064349710044    4.59959119497030
O        11.24911840983157    2.14498522603848    5.50023589283166
C        11.50943733750113    3.10783034280423    3.30899474445572
H        22.75016772578299    3.74931689047872    7.81327786216143
H        21.64612343047213    5.10191356598463    8.04110228025960
H        22.23006262337856    4.19115289945238    9.44049193171531
H        20.41518777397033    3.07896844517702    7.23207664239279
H        19.79289666751585    3.90695817059253   10.09824678100140
H        17.90348814499822    2.31907086681050   10.00646791301295
H        18.86434608366864    1.72256163312025    7.16105385414461
H        18.80987270017556   -1.34506514470430    8.15745184316915
H        18.71507559675665   -0.60862703137844    6.56023829595639
H        16.59975201245340   -2.40282493381837    7.81666663075141
H        17.67653416166158   -2.79915688887765    6.49193144553526
H        15.42502133313514   -2.16551671192965    5.65226844005447
H        16.69494544182989   -1.09283750201606    5.06538926171753
H        16.98810046013638    1.12498492017616    6.13056825192453
H        16.24882019924380    0.78303508035347    9.79205760097178
H        16.31603482447859   -0.92541624605775    9.39629819114668
H        17.71223659435709   -0.14872516238994   10.11750927808201
H        14.73172660945706   -1.45271393158358    8.16228826375555
H        14.00365645069748    0.14484187880247    8.18257512444601
H        13.47242495214902   -1.05392524503697    7.01506447724851
H        13.89500237789435   -0.21176484659468    4.92487158501691
H        15.33276286877012    0.73153079226489    4.53913173673505
H        13.13887163402526    1.55505697839164    6.49271684220419
H        14.40154515314686    3.66176048157689    6.66907356263338
H        15.61088563618530    3.06314511147742    5.52900915123514
H        16.45640786763341    2.85527670535191    7.82966652048350
H        15.02763295254143    1.94396471255269    8.30682176099559
H        10.42756911581797    3.19421192560369    3.31263695551505
H        11.96128091830838    4.09096540214871    3.20407363087646
H        11.83296950369611    2.49435066747852    2.47209101895015

