56
CSD_code = AFORES | q = 0 | S = 0 | Stoichiometry = C24H28FeO3 | MND = 7
Fe        3.46274811536810    1.41066425010136    2.82659629879885
C         4.20388376275642    1.57383477390171    1.19402768612428
O         4.69462613942293    1.57533592126712    0.15956251226002
C         3.03584465622524   -0.29325872202919    2.85581801828148
O         2.83546176498457   -1.42438377539628    2.83895902861032
C         4.82628990859154    0.86481251830118    3.79929016938952
O         5.72881166551343    0.39937698904891    4.34042435065208
C         1.50104149485306    2.11272271803617    2.07264498564440
C         1.56464455309343    2.28353339238196    3.48248720950406
C         2.58199587034062    3.08067699865800    4.05396734842144
C         3.53409049350201    3.70757208801674    3.22573199513061
C         0.43782844847849    1.20841579799887    1.50143612861950
C         4.71725956193970    4.50705555517321    3.74963271475442
C         5.88641700573928    4.25245233859378    2.77915192429226
C         7.04053175240156    5.22662011460707    2.96504695306230
C         6.57572415455957    6.66992765883026    2.80060844135404
C         5.45726043029372    7.04841355584258    3.78868184636403
C         4.32183565785853    6.00816921018156    3.64029777250690
C         5.09617075622825    4.04595918222200    5.15752213645477
C         6.04269113115646    7.20627878454593    5.20001155039763
C         3.14156081438149    6.38965644078243    4.53130851837442
C         2.50372213090080    7.65557602415918    3.97476375525539
C         3.51486111800102    8.69461895343017    3.57184532772400
C         4.87573373831064    8.41795260423936    3.44344738207103
C         5.72239361729442    9.45558017163595    3.06104021904192
C         5.24587666283128   10.72263722134801    2.78702175487769
C         3.89262548278468   10.98719211477481    2.90057086755632
C         3.04298866912641    9.97391677665297    3.29366241979096
H         1.65392281739851    2.99229886490999    1.44997397375266
H         0.85537196538321    1.77446802632625    4.12720418279535
H         2.65471195267490    3.13470923281450    5.13355457563580
H         3.18054426455463    4.10229117805510    2.27595127766118
H         0.70716406996155    0.88248538264070    0.49972969757943
H         0.29282194952007    0.32721547241324    2.12237969631745
H        -0.51163299194553    1.74401366494779    1.43338001906232
H         5.51783946393911    4.34716846704246    1.75462923388943
H         6.23189717951157    3.22316352862947    2.90900057158050
H         7.80842592818553    5.01355948930027    2.21782934190271
H         7.50210205049403    5.09173839775838    3.94328547484476
H         6.20668969600169    6.81238940377616    1.78140709521968
H         7.43786825368232    7.32270303213301    2.93780327924086
H         3.98006972080981    6.13034430330045    2.60220146334458
H         5.04956176516945    2.95906819378314    5.20650668387171
H         6.11020884198159    4.33392314707810    5.41012355437787
H         4.42765531036612    4.45749695785716    5.90794593818732
H         6.79634475351581    7.99144227321725    5.18154369824875
H         5.27913698899420    7.50761232466016    5.91183303712171
H         6.51153518552894    6.29852859557400    5.55931738624530
H         3.46885275891941    6.55836284734922    5.55657226916247
H         2.39890519899706    5.59024043369242    4.54614617137178
H         1.81332716579559    8.08668079471723    4.70449794410970
H         1.91142303347759    7.39888573853575    3.08898492784824
H         6.78318376904204    9.27992394916345    2.97452837541450
H         5.93135628555144   11.50224633457973    2.48880442685526
H         3.50586873362297   11.97327012647867    2.69029945623984
H         1.98402433192261   10.16946018195422    3.39340693280809

