67
CSD_code = AFOYID | q = 0 | S = 0 | Stoichiometry = C25H38ClO2Y | MND = 12
Y        -1.71238172222128   -3.56042419327284    2.83071063085357
Cl       -2.92322354711456   -1.66396571539508    3.76403536852831
O         0.25624330836852   -2.57005034241051    2.82819477199248
O         1.26478553384349   -0.59931831418850    3.18857528253662
C         0.38712661737612   -4.53132822214607    4.95574737525288
C        -0.85486089576758   -4.00932171045644    5.36060847424690
C        -1.90010787532473   -4.80614157311961    4.77395391971869
C        -1.23718520188338   -5.85498685287206    4.01960009388781
C         0.15334909274169   -5.66704984981288    4.14120424594017
C         1.71339217684676   -4.00176963671656    5.40689218205175
H         1.79924725008124   -4.06965801608334    6.49233637454293
H         1.84103969719981   -2.95177956391333    5.12836099325297
H         2.53310748788142   -4.56331067552043    4.96615256712524
C        -1.06503565150691   -2.93426724399609    6.38861544708852
H        -1.30422372338908   -3.38479887406388    7.35495652115342
H        -1.88820384494346   -2.27394348181013    6.11597983848952
H        -0.16364417026085   -2.33649186869750    6.51228542872708
C        -3.30767384146921   -4.89066356757992    5.33083766372564
H        -3.30042119619082   -5.48164778046733    6.25127533100113
H        -3.99633633075121   -5.37088121447473    4.63199851895878
H        -3.69572644085540   -3.90030660776704    5.57358992221451
C        -1.88529167123837   -7.13477313654352    3.56269000186800
H        -1.80158813882586   -7.88589151459127    4.35286377643694
H        -1.39303119731099   -7.53939811324455    2.67921622199775
H        -2.94345427845785   -7.00101050520549    3.34476122569885
C         1.17744051990153   -6.60531637616753    3.57731050622828
H         1.12148875533836   -7.57073613195951    4.08433052102692
H         2.18476334664816   -6.21771138518702    3.70707494742606
H         1.01294165624577   -6.78369151282166    2.51392702615997
C        -1.02182371149276   -3.04273354533353    0.21834395499166
C        -1.29657282184554   -4.41966467538766    0.42476860039609
C        -2.66966784185697   -4.54460561816176    0.82970594109163
C        -3.22615547693530   -3.21710282892297    0.85475685090103
C        -2.20604522390843   -2.30763281596474    0.48914346663363
C         0.23298509413162   -2.46218186288783   -0.36783173122094
H         0.05095828879011   -2.14504450956900   -1.39684033214150
H         1.03853524926274   -3.19274712508277   -0.37780794614391
H         0.57879243432042   -1.58889879526762    0.18996203059577
C        -0.41045035708673   -5.56788800776536    0.02677738068831
H        -0.59467111227141   -5.84137576194763   -1.01534454086766
H        -0.60217011286506   -6.44807660754312    0.63920021023609
H         0.64355429019627   -5.30935150745693    0.11954731941031
C        -3.49920571780725   -5.80084508270217    0.72042313968980
H        -3.97619048434856   -5.83481534938963   -0.26274148331659
H        -4.29203124407705   -5.83638510180667    1.46948662425390
H        -2.88613478751846   -6.69334080162713    0.82020136786673
C        -4.68044271347653   -2.87028522995890    1.01929485141421
H        -5.14284320314858   -2.72405769866409    0.04001962068254
H        -4.79962973269358   -1.94752481399213    1.58681437353441
H        -5.22253711060395   -3.66316131373582    1.53420845208419
C        -2.39843731888327   -0.82855013422837    0.32052642620085
H        -3.04109187104975   -0.62576235470799   -0.53850096209755
H        -1.44658783391820   -0.32720272251760    0.15514111856812
H        -2.87724341059571   -0.39601454143391    1.20074900399091
C         1.27316313889916   -1.86862489337132    2.81584053165838
C         2.59536527981150   -2.35603070514387    2.37903056054515
C         3.72136774287752   -1.37251594442102    2.37691520761512
H         4.63709516759989   -1.84470359565854    2.03339727096724
H         3.87703340915560   -0.97744118492306    3.37895464312632
H         3.48693022616996   -0.53162643639757    1.72697229981098
C         2.71116047685762   -3.63291123156856    2.01301219193441
H         1.85877146125685   -4.29025159045416    2.05151783752429
H         3.64882056953719   -4.04585203735863    1.68398160335629
C         0.01923134176635   -0.05435161545217    3.61719635559034
H         0.22192442355414    0.97800388382366    3.89001867163643
H        -0.37269667066355   -0.60738480215120    4.47417011777218
H        -0.71999555215534   -0.09892706002390    2.81350379283634

