81
CSD_code = AFOYUP | q = 0 | S = 0 | Stoichiometry = C26H48ClN3OPY | MND = 12
Y         2.20569910134210    2.36169087238794    3.82591556925388
O         1.20816854240059    3.42322414431831    2.13519842886075
Cl        1.33724409107442    3.93088916071433    5.49308343929546
P         0.17537743313089    4.49371226127205    1.98852303610801
N         0.63168874926046    5.89629299020295    2.74542135109341
N        -0.08037119299417    4.67675007506435    0.33475960993190
N        -1.36196963529277    4.18744377799269    2.54743649211073
C         0.89608672185287    0.51848432908157    4.18702040875883
C         1.09833215766853   -0.26770481551879    2.96101577952134
C         1.93185814505220   -1.32225643696687    3.25015665993157
C         2.25931439794811   -1.28989834549237    4.64947262243454
C         1.63771618261976   -0.20931571672682    5.22745210222091
C        -0.51663975718659    1.00988616327045    4.51781666796527
H        -1.14907132748633    0.14598403278048    4.74898193645287
H        -0.95794523402079    1.52882037033769    3.66631965483954
H        -0.52700533507496    1.67360523820249    5.38463355514974
C         0.38487998668874    0.00649577679823    1.66594042505128
H        -0.59276223112128   -0.48280826514743    1.66015427391085
H         0.95076277538776   -0.37734764190683    0.81840269128985
H         0.23034511207164    1.07712367931580    1.51231599178265
C         2.43765995934060   -2.37196824513714    2.31324160650036
H         2.00776752524522   -3.34256221454755    2.56395885016529
H         3.52238124328384   -2.46822765750947    2.38003660160407
H         2.17544951045714   -2.14148348541461    1.28332419556547
C         3.11439131631227   -2.31914308004874    5.31617027188520
H         2.58199811000017   -3.26970441774831    5.37511853959062
H         3.37683435497396   -2.01767966848611    6.32742560160146
H         4.03305759895952   -2.49090509188265    4.75547080531700
C         1.59312878557534    0.16400514055784    6.68285543396098
H         0.71147522969158   -0.27054230136434    7.15996342160444
H         1.54778952751244    1.24900915852872    6.81306597356091
H         2.47038173598748   -0.20701581875181    7.21070974745060
C         4.67724655975251    3.82073392521062    2.51725436500744
C         4.81329165458110    4.10287073353250    3.90454512650181
C         4.69369745257503    2.90476139428583    4.61776191347527
C         4.46127827852224    1.82677588968632    3.67401016389805
C         4.46158010823762    2.44644594318923    2.36212752287749
C         4.78787956206312    4.79417918370233    1.38070343947835
H         4.99059289569725    5.79858057291474    1.74416980020145
H         3.86932685287405    4.82214884369259    0.78913662604174
H         5.60245134933008    4.50614927268114    0.71439848756999
C         5.08057694495327    5.42927422560043    4.54909399791483
H         6.06450158537946    5.42798123218580    5.02131885070544
H         4.34184143481160    5.63493883528010    5.32498385162407
H         5.05273724111427    6.24042363351925    3.82584687016857
C         4.92046063943453    2.74625889536243    6.09734418628138
H         5.98197860809856    2.85615449736788    6.33154375169002
H         4.59436922229898    1.76507934156346    6.44373316637424
H         4.37726691295746    3.50786697190338    6.65964610874159
C         4.93851447694959    0.40711426956098    3.89726826936243
H         6.02190516238805    0.36819206870134    3.75034393208574
H         4.47801391941797   -0.28246328146572    3.19285626906074
H         4.72400487848672    0.06317402879359    4.90735254960927
C         4.43467164973178    1.68975421687281    1.06193631327357
H         5.44388560695949    1.37227056766021    0.78664395697225
H         4.05117538601554    2.31389733009538    0.25545259207103
H         3.81025324297059    0.79807621260898    1.13657222134022
C         1.99434863459921    6.14250909191586    3.16062691822325
H         2.43418849767824    6.96221755980193    2.58269967783114
H         2.59020347905388    5.24227860888438    3.01184782156869
H         2.01740152535203    6.40288254822580    4.22178396831771
C        -0.24167478969850    7.03642867618140    2.89229022741387
H         0.11256107983619    7.87763274539793    2.28652812867112
H        -0.26498884694816    7.35297808920330    3.93883218923494
H        -1.24933617693461    6.77839202336977    2.58143380278910
C        -0.98363877740034    5.69175604909760   -0.15701952478415
H        -1.42379576069664    5.35356554875659   -1.09881086568622
H        -0.47472116999995    6.64484174555438   -0.33986976117677
H        -1.78146407654579    5.84856891027717    0.56351201725816
C         1.00092603133351    4.37488255763217   -0.57868344959185
H         0.58969728949156    3.94468807246666   -1.49550518541289
H         1.66058090025337    3.64694609722279   -0.11226791895824
H         1.57802277004775    5.26792775853208   -0.84430906155930
C        -2.29037869464491    3.37503954168137    1.79246893896621
H        -3.23491422343970    3.91085250366900    1.65087735575051
H        -2.51004927601216    2.43595666210347    2.31025266340799
H        -1.86047314164262    3.14436910201341    0.82028805187427
C        -1.74595583545783    4.43551942864432    3.92362545556662
H        -2.55416611516101    5.17288856524035    3.97024574237036
H        -0.88808617399912    4.79248933668009    4.49049419737358
H        -2.09801235536680    3.51499600486984    4.39485253353953

