49
CSD_code = AFOYAV | q = 0 | S = 0 | Stoichiometry = C23H18CrN2O5 | MND = 6
Cr        0.36955852926826    0.01599067079296    5.22929907837715
C         1.42932070565714   -0.01926587676459    6.75860099876602
O         2.08973206039333   -0.05150752252055    7.70257162483484
C        -0.91006033598165   -0.86600364146751    6.27143089020020
O        -1.55508741508621   -1.44449382150545    7.02752871949566
C         0.95292582180083   -1.67239820635457    4.70944275154520
O         1.27818501755363   -2.73213980423190    4.39195256353792
C         1.76683423098399    0.86771677380619    4.34677215543334
O         2.66085399306971    1.43197406806187    3.88225883718931
C        -0.33176206058933    1.71060884638613    5.54675193136071
O        -0.74714223239645    2.78389698703278    5.63166285774198
C        -0.82544184800534    0.06524434577366    3.50886469959211
C        -2.12685109533965   -0.62570053375462    3.49442155418040
C        -3.13884237669965   -0.25809961147667    4.37989441139050
H        -2.98280829780468    0.57690320367737    5.05019420111609
C        -4.33934020156503   -0.94200472427069    4.38843561814869
H        -5.12020428836396   -0.64491936650974    5.07270635630763
C        -4.53981368816058   -2.01227294976009    3.53073402924832
H        -5.47272723519231   -2.55531108150035    3.55174120079821
C        -3.54122948197033   -2.38067529066077    2.64527931688136
H        -3.69481214961431   -3.21010011156936    1.97055027349707
C        -2.34729020554170   -1.68362755247204    2.61391492285111
H        -1.56960155404169   -1.96794515355314    1.91891789949533
N        -0.48723821400425    0.64106902044762    2.43499910580109
C         0.38514975952590    1.22924208331567    1.68655185984839
C         1.37036630337022    0.43707909727840    0.97821503773493
H         1.96930840957398    0.94330532309049    0.24043174949833
C         1.58012663101958   -0.86303924856509    1.24870431155693
H         0.97700733483822   -1.33140233460152    2.01720734394929
C         2.56760260458945   -1.72407039115991    0.63420301708266
C         2.80309109131453   -2.98075001343305    1.20206398625896
H         2.25159159583025   -3.27338725800607    2.08319775659626
C         3.74045805342981   -3.83829932665417    0.66144179098260
H         3.91351851971363   -4.80170235411652    1.11752693715781
C         4.45665470418027   -3.46546907743204   -0.46464424382567
H         5.18746199873395   -4.13646022707612   -0.89085817399524
C         4.22855428091645   -2.22700182103319   -1.04424069643219
H         4.78114255530050   -1.93521142959121   -1.92544159823165
C         3.29699873131434   -1.36385245044677   -0.50297268126922
H         3.12530514714855   -0.40860910943198   -0.97525475293901
N         0.28667390883915    2.56732691160538    1.47000430450345
C        -0.64415278878877    3.34616408340002    2.25134252875331
H        -0.99746717571985    4.18953531088937    1.65865506688632
H        -0.18616359951382    3.72434321984798    3.17051623936073
H        -1.49860038673388    2.72636309365231    2.52103324689175
C         1.27089523288029    3.28684099655063    0.69638310019636
H         1.06557413298919    4.35139757525536    0.77591214967888
H         1.22263017568602    3.00939491090572   -0.35964661455606
H         2.28251510121135    3.10722376824823    1.06974233648707

