43
CSD_code = AFOYOL | q = 0 | S = 0 | Stoichiometry = C18H12F6N4O2Zn | MND = 4
N         9.77444246048306    2.78420582698489   10.26878785377468
C        10.67047436617074    3.65125530580850   10.70253882977061
C        10.70131080742011    4.09759999552700   12.01375821456546
C         9.74844406340988    3.60771664189698   12.89899292929446
C         8.80874100153057    2.69945143069773   12.45483013568095
C         8.85444621400462    2.29716239886290   11.11575599627528
N         8.05394265150528    1.40913055404319   10.46448988104886
C         7.08932459594022    0.68691173076034   10.97043559201755
C         6.40035562021957   -0.23841968556074   10.19667529504604
C         6.73396871564061   -0.50409753636134    8.86765679181218
O         7.62345956060012   -0.01238001546372    8.15052336839795
C         5.83777657890046   -1.57762145629489    8.19871473867001
F         4.54749824989324   -1.18794539352220    8.16266485916794
F         6.19609508138171   -1.83884345456880    6.94237502450763
F         5.85236642310735   -2.74411240404180    8.86556399359099
Zn        9.05691545186462    1.38365600359430    8.76138848055136
H        11.38915660613799    3.99952530329596    9.97343319309924
H        11.44901945649577    4.80355952842572   12.33630653363175
H         9.74329251534421    3.93134560432812   13.92925971210273
H         8.06322500725420    2.30152883362753   13.12447117891971
H         6.80095672104733    0.79479422286304   12.01730100099550
H         5.59477471622174   -0.79808058262221   10.64278624750457
N         8.33850726168244    2.78430004869189    7.25442925133826
C         7.44229598381086    3.65147026999329    6.82129338164115
C         7.41021814768198    4.09733609882435    5.50994289960704
C         8.36203676328025    3.60685351778573    4.62391647867127
C         9.30198664438952    2.69853664391102    5.06745539621807
C         9.25755430109912    2.29674260534289    6.40671998656990
N        10.05851544781122    1.40881172989271    7.05754994704258
C        11.02218154007664    0.68581886417821    6.55089440149568
C        11.71167187176703   -0.23929286367135    7.32445499386572
C        11.37949174736469   -0.50403121776017    8.65401410967852
O        10.49110353402573   -0.01147164573105    9.37193086694415
C        12.27584305130414   -1.57771860079054    9.32250330567294
F        13.56639165651528   -1.18893910998860    9.35678777452555
F        11.91881154495776   -1.83797342249990   10.57944312356618
F        12.25960742604247   -2.74458987712408    8.65636861715246
H         6.72450118517566    4.00024625823247    7.55102676375511
H         6.66236715112578    4.80338437170984    5.18791471953422
H         8.36616999247733    3.93004272172046    3.59350998374446
H        10.04672395656578    2.30020900546901    4.39718761219617
H        11.30928870071942    0.79285008534418    5.50360575393622
H        12.51644522755154   -0.79962833580738    6.87774078241398

