81
CSD_code = AFOZUQ | q = 0 | S = 0 | Stoichiometry = C27H49ClOP2Pd | MND = 4
Pd       -0.55084995758385   -2.84159130990890   12.93499992985473
Cl       -2.46458515781025   -4.30503654565315   13.03898426783841
C        -1.28469587032694   -4.08119059708575   11.49482021109319
C        -1.96252874865595   -3.10343051390324   10.55408539459978
H        -2.25352604598027   -2.17952139750708   11.07969081973530
H        -1.23544119766106   -2.86058624036824    9.77054247127562
C        -3.19571733388461   -3.74023742016219    9.91345609150218
H        -3.62291617500665   -3.06902286711393    9.17113157935533
H        -3.94980753383506   -3.95518255592902   10.66726591763893
H        -2.91718060995448   -4.67277882921645    9.42739745126204
O        -0.71440965023484   -5.09170183761612   11.16052636363153
P        -0.75917726682897   -1.20370004081786   14.70300332826580
P         1.75121343876979   -2.78115307858784   12.32579515466705
C        -1.38779776400304   -1.83431790831100   16.38525148941360
C        -0.58213258386125   -3.12153457218030   16.59548716298712
H         0.48098731733554   -2.91173738577300   16.71232787290796
H        -0.72112702390303   -3.78592011341819   15.73652241304179
H        -0.91944380486984   -3.64411739535064   17.48936586965650
C        -1.19866531540504   -0.90231982458879   17.58095293176548
H        -0.14920570828821   -0.77135044066183   17.83342338325791
H        -1.69193745386346   -1.34024818962554   18.44858581271622
H        -1.64265340010901    0.07446259439004   17.40515910463025
C        -2.86092105300537   -2.22689549997960   16.28239089739298
H        -3.04717370965008   -2.78984305137553   15.36938995405864
H        -3.50584723243616   -1.35258589627657   16.30719319709971
H        -3.13111568219753   -2.86158175318543   17.12618140808790
C        -1.92100814464393    0.09583432462276   13.94963332779714
C        -3.23201722857284   -0.58548228389338   13.54186274274637
H        -3.03444753388430   -1.58683913105006   13.15046080565523
H        -3.72459665274160   -0.00521196971699   12.76156273270802
H        -3.92595162811905   -0.67342751642332   14.37113433840898
C        -2.22170697014302    1.31910947154881   14.80658487956794
H        -2.76077292345797    1.04182536646544   15.70995361627350
H        -2.84871057648316    2.00941935836145   14.24241760497423
H        -1.31524201651450    1.84770869199980   15.08648536552202
C        -1.20887930646908    0.49551569378106   12.65001990514956
H        -0.89794123752985   -0.41284844198628   12.11083734531720
H        -0.32454112693243    1.09759500755688   12.83746879198095
H        -1.87789374413853    1.06712172571040   12.00732666551209
C         0.70267268095703   -0.21010615820227   15.30508321020722
H         0.33250432125753    0.52037512039212   16.02606852660323
H         1.31549975827029   -0.93876168167591   15.84643449116905
C         1.55109687958374    0.50104258687682   14.29639391171499
C         1.48945288025994    1.89559220920871   14.28962795085998
H         0.81553487134141    2.39263204198202   14.97361832968417
C         2.27016844949913    2.66845908360783   13.45516724275289
H         2.18630578605600    3.74447613816965   13.47473575482269
C         3.17896441353680    2.04478485530392   12.62007440308741
H         3.82280259410272    2.62418168345215   11.97576855199279
C         3.27512611529514    0.66843085030261   12.63822577200645
H         4.02745202291872    0.20025059916580   12.02093939681186
C         2.46072340920180   -0.13356709547592   13.43966417778970
C         2.71440226917657   -1.61029763504514   13.43650104620240
H         2.50338146421263   -2.00793469335750   14.43321492169354
H         3.77074185298805   -1.77184791895183   13.21460444677472
C         2.33251216733805   -2.39209366133657   10.56151533011290
C         3.84112626532220   -2.27824535594378   10.37143195794947
H         4.32827800833602   -3.23396159307232   10.55079412495908
H         4.28658238480485   -1.53492597384612   11.02494047098019
H         4.05002511978378   -1.98567785498727    9.34251174980563
C         1.63131878404448   -1.06390435031423   10.25240804460852
H         0.55265523525520   -1.18984155081403   10.37443797332698
H         1.82655075919024   -0.75726823326187    9.22550120334083
H         1.95670792497590   -0.26650419390954   10.91521549284015
C         1.78943224434252   -3.43742438129794    9.57903264063440
H         0.83662246053808   -3.83914192502920    9.91361080434994
H         2.47717441493567   -4.26731410149636    9.45261503743730
H         1.64388018191271   -2.98068303907316    8.60053995911542
C         2.50943696228098   -4.41056252032973   12.96636177477596
C         1.61933049884870   -4.78389665280094   14.15833544446235
H         1.66883515260044   -4.02449513649449   14.94014504342362
H         1.93740282747051   -5.73297059822677   14.58830956190620
H         0.57659363593876   -4.89596430139393   13.82389518485570
C         3.96818021366539   -4.33950233761785   13.42628747746830
H         4.08913406846334   -3.74510916061146   14.32853489481849
H         4.61875552437794   -3.94057810102764   12.65209647851668
H         4.30826750722471   -5.34953465940904   13.65400120133179
C         2.38141539502301   -5.51966826005797   11.92273508546294
H         3.10440313964927   -5.39467624165969   11.12176662705001
H         1.37818208681296   -5.54894196353896   11.50616969592637
H         2.57483188110096   -6.48252146499424   12.39560600698271

