71
CSD_code = AFOZAW | q = 0 | S = 0 | Stoichiometry = C26H41ClNOY | MND = 12
Y         1.18858350031702    4.11119115639439    6.73860220478022
Cl        1.72339694867715    2.93374006054273    4.61115697692827
O         2.62273737245714    5.72297485697316    6.12077261701258
N         3.85911054489439    5.06894850389312    4.37035044471351
C        -1.07238429323063    4.28103318518768    5.56860869984164
C        -0.41965915707677    5.53073515673425    5.37084347715205
C        -0.31481112556225    6.17575105342064    6.63563679732278
C        -0.90058316861845    5.32421053244742    7.61699109028784
C        -1.36340443481420    4.14420319766092    6.95718743099166
C        -1.57917658916249    3.37157975963397    4.48429160513727
H        -0.95033295435076    3.42633675553668    3.59743322356904
H        -2.59399423830831    3.65993131785652    4.19778790744246
H        -1.60837160734715    2.33429081191505    4.81883625097709
C        -0.05003499787100    6.09989475897884    4.02838153641908
H         0.60309646318407    6.96446552587155    4.13735673441471
H        -0.94622729278847    6.41928760352657    3.49158889433784
H         0.46050822538303    5.35479904926073    3.41531742992856
C         0.13442485112879    7.58778263836447    6.89171983952506
H         0.77460189752618    7.95010422960156    6.08975180965410
H         0.68866336951475    7.66267807158638    7.82774534638559
H        -0.73031019854549    8.25256727830321    6.96134185794260
C        -1.26196523269920    5.76301127899631    9.00836582977260
H        -1.42960823188308    4.91449378342365    9.66878105059141
H        -2.18540170336920    6.34762498614177    8.98281535745811
H        -0.48613333489652    6.39217364886330    9.44116057004189
C        -2.28818459306344    3.10090402027207    7.52519915675464
H        -2.29293896192906    3.12317720583791    8.61229477932035
H        -2.01319406831635    2.09596254020765    7.19919661020950
H        -3.30919660739321    3.28721597531373    7.18315798993385
C         2.27311205917097    4.00591020669640    9.08494908673775
C         1.47834899712780    2.84849946303424    8.79771365635691
C         2.18627459273003    2.08860451421355    7.80364931796665
C         3.39482221161360    2.77386346589859    7.50069823358795
C         3.44447466687683    3.94950872004393    8.28686309934971
C         2.06495546526232    4.98525847616728   10.20605739058826
H         1.09114323577074    4.85360356695405   10.67044094244819
H         2.14857667000199    6.01666650681508    9.85791167927266
H         2.82657011948308    4.83716980092244   10.97502662638021
C         0.40985619751851    2.27723514137778    9.69603754713003
H        -0.26545075551762    1.61842250305156    9.15201204923081
H        -0.17894485236643    3.05890713686075   10.17213262127413
H         0.87881927114985    1.68789587434977   10.48891358179391
C         1.84784409134321    0.69208755701797    7.35349984172492
H         0.77768872699985    0.49578619051756    7.42915645141405
H         2.36850823907174   -0.04078177917812    7.97523844897783
H         2.15475287358023    0.52950668352801    6.32030119768571
C         4.47106434519270    2.24714546992436    6.59566220370099
H         4.04948075943239    1.87064449268356    5.66399923001453
H         5.00194576093986    1.42495811574432    7.08033497913551
H         5.19635640834225    3.02240517278764    6.35594441915331
C         4.58987731713325    4.91286315989286    8.40111114322769
H         5.24239335528554    4.85797917998290    7.53138205300068
H         5.18860987527059    4.68383935847052    9.28602731110302
H         4.23123437904900    5.93745930382235    8.49754109484235
C         3.52386882910298    5.95665261244406    5.28977900560195
C         4.24607203425934    7.28424963961316    5.32025792104537
H         5.32294097467798    7.12000853484626    5.39166760099978
H         3.91571276248500    7.80714285369716    6.21883860479746
C         3.93117979948752    8.13446710325961    4.08306887383607
H         2.86640873963655    8.05749104821284    3.85395128199868
H         4.14199156365170    9.17882845239470    4.32232661269332
C         4.74897412085041    7.75037633414770    2.85230099990682
H         4.53477713848094    8.46739303676923    2.05688998975948
H         5.81289966731595    7.83284749350728    3.08882734286746
C         4.45881670208138    6.34378579787787    2.33392927880451
H         5.02318768865442    6.18849826382838    1.41307835507645
H         3.39805098605939    6.24473282062014    2.09800788789071
C         4.84434620820372    5.24711727112861    3.32996311023605
H         4.92569108562027    4.29169024041750    2.81110740413193
H         5.81906081237303    5.48007335934217    3.77329234450968
H         3.26659649465955    4.22173791344599    4.33123566091106

