47
CSD_code = AFOZON | q = 0 | S = 0 | Stoichiometry = C20H18FeN6Se2 | MND = 6
Se        2.80429495195176    9.11631830604636   13.19577967290139
Se        9.56492431929238   11.04791429155622   10.38265242813222
Fe        5.31086976571620   12.70351685630683   11.72663372853471
C         6.69680939565039   14.67165019561091   10.12983455343814
H         7.50561384230889   13.95957217537530   10.14185363852899
N         4.49807152958706   12.17551182100677   10.09038188142513
N         5.65623185576112   14.36917370416294   10.91209677429880
N         5.80576960294836   13.24657231031446   13.47191426786949
N         3.53294064060311   13.44833556628288   12.21312806948014
C         4.91655438893124   13.78813147211602   15.61828456751408
H         4.04900073733126   13.93249092692439   16.24380537772499
N         4.84140603480841   11.01415750434351   12.41077941277368
C         6.75176920208912   15.81153052402348    9.35362576971726
H         7.61988791793681   16.00193955103099    8.74411657321244
C         5.09187957057864   11.72805798394294    8.98800084485987
H         6.16445108234453   11.63222876118946    9.05032302590215
N         7.00574038926595   12.02418736148378   11.30753413914282
C         5.68064843813468   16.69335062662802    9.37023092304117
H         5.68326706403562   17.58867629486002    8.76946740045939
C         4.63233811066066   15.23379417452532   10.94564009863697
C         4.60344445127727   16.39236106944557   10.19059135044240
H         3.75018691288445   17.05078319159211   10.24948008525417
C         2.55140082056761   12.72062388853375   11.40568487880014
H         1.63580736250446   13.30326209753947   11.24048938094188
H         2.27201099573582   11.80305070213419   11.93345816367158
C         8.02558565771233   11.57487261760504   10.95465624804560
C         7.27481812507137   13.72114268429248   15.28607058129287
H         8.28824533178804   13.81094213019813   15.64157820152485
C         4.75873163695313   13.44252963748917   14.28746039854807
C         3.53901623769088   14.88630815393715   11.91342783406319
H         2.56597038954234   15.22065018594211   11.53397953562666
H         3.74061813142357   15.43877391477246   12.83740123561940
C         3.40645730128731   13.23085554702593   13.65901836525500
H         3.11791707121544   12.19198922010366   13.83923130531198
H         2.64402229747800   13.87882327116777   14.11080917990279
C         4.39166957394940   11.38559767295921    7.84640023005500
H         4.91834980476343   11.01526743459782    6.98219755973712
C         3.16459126172837   12.29630400043962   10.09900162618178
C         6.19761837201127   13.92624266420746   16.13393828686156
H         6.34600589469298   14.18346991566326   17.17093334902361
C         7.03206405889446   13.38574908868137   13.96636038062006
H         7.83199139062039   13.19871189472104   13.26730485761197
C         3.01160312773023   11.51907599409674    7.84336304137329
H         2.42949801169842   11.25914401865209    6.97312534052083
C         2.39138657373407   11.98491772354794    8.99224284049654
H         1.31841040114404   12.08984757028155    9.03910690840807
C         4.07190996596722   10.18919330263889   12.71490568721090

