51
CSD_code = AFUCUA | q = 0 | S = 0 | Stoichiometry = C22H25N3Ni | MND = 4
Ni        3.37855273175509    5.35226654357652   -1.39098600502976
N         1.34103342704095    5.62763518712867   -1.38867521487833
N         3.39955450844747    6.77782583505323   -2.59629779311067
N         5.42053293284453    5.35925937477706   -1.63620149617365
C         1.07120938199361    6.54512336525614   -2.50641009577648
C        -0.20769357558459    6.84880603431480   -2.92433790901446
H        -1.07071470585459    6.44537771482547   -2.41433402164300
C        -0.40696246999507    7.67021368494664   -4.02393790945963
H        -1.40944218517487    7.90446791310851   -4.34743943402454
C         0.68921598105157    8.15158731553799   -4.72063272258278
H         0.53954042356245    8.74505676918769   -5.61142925493036
C         1.97320874701613    7.88168125497139   -4.29810772791873
H         2.80843228020287    8.22433919236157   -4.88736543961639
C         2.19865764486030    7.11509957986504   -3.14203136643080
C         4.61358405623448    7.35364479362349   -2.81656833455709
C         4.86817740395234    8.61937222670890   -3.37159934370361
H         4.04716333151920    9.27122123007639   -3.62312705663332
C         6.16230325754847    9.06183158060241   -3.54362691988633
H         6.33434121145146   10.03834516843264   -3.97382734134393
C         7.24023006110022    8.27661397635658   -3.16934943330278
H         8.25101191200433    8.61985600685965   -3.32757672317670
C         7.01149248263672    7.05627227953544   -2.55116200368422
H         7.86017136105760    6.47174296152360   -2.22609465265069
C         5.72194895267690    6.61271964408308   -2.34455301791226
C         0.55338114185286    4.39700975494851   -1.55095656248396
H         0.80524176422702    3.68996800370295   -0.76157860514524
H         0.78291681663882    3.94770226806424   -2.51635861486848
H        -0.52127702795888    4.59932376486533   -1.50274172849382
C         0.94734227029296    6.29148952213559   -0.13528771424667
H        -0.11262922697221    6.57023497482870   -0.16056403712286
H         1.54176567105723    7.19596852384872   -0.00023402775176
H         1.11504952025434    5.62226332657217    0.70838738720072
C         6.19505621709215    5.28980434165684   -0.38865069763393
H         5.91680022241114    4.39713765143627    0.17015390546521
H         5.98038719024892    6.16902368763211    0.21745021040744
H         7.27090607448698    5.25124278876672   -0.58614437935101
C         5.79987514253173    4.23172918995921   -2.50323930663446
H         6.86329489375375    4.28454699755499   -2.76417267543688
H         5.21402585514595    4.26623224373035   -3.42262490118393
H         5.60956552643154    3.28861934782593   -1.99133415776046
C         3.35846100343673    3.92685761625045   -0.18331221750809
C         3.42453962938948    4.14266483407698    1.19683848783834
H         3.49590266593517    5.15371639937110    1.58681441003490
C         3.41154672104621    3.08460466278604    2.09261795054416
H         3.46282119178272    3.28004979488465    3.15510270198564
C         3.33550883247495    1.78242907388414    1.63089412682700
H         3.32702713497534    0.95754905443400    2.32875072988335
C         3.27040402907322    1.54366950401004    0.26949650983811
H         3.21021507200283    0.52897109835325   -0.09992221462383
C         3.27991983710753    2.60239973333354   -0.62548929570945
H         3.21690267896713    2.38623220835668   -1.68792406654358

