41
CSD_code = AFUCIO | q = 0 | S = 0 | Stoichiometry = C16H20ClN3Ni | MND = 4
Ni        3.36717659132196    2.13626693316916    1.45032469308241
Cl        5.33635359079733    2.39813153998207    0.86272851517115
N         3.13068497813379    0.42472828974028    0.43715233946452
N         1.61406342791493    1.90562251593450    1.96951796100096
N         3.31320695548827    3.80474567665361    2.55549146585415
C         1.81868150257824   -0.11310904716286    0.81178448326030
C         1.35856894900130   -1.33870425410466    0.37695680519245
H         1.93056774262159   -1.93243702384245   -0.32092150221892
C         0.15316030008095   -1.83026114176547    0.85401851062682
H        -0.21193970940358   -2.78678562465868    0.51420309178889
C        -0.55027799429799   -1.10516386519568    1.80177745249370
H        -1.45743311555846   -1.51390482648926    2.22272590370627
C        -0.11105555607928    0.13159616778640    2.22716630903306
H        -0.64954275206849    0.64474674709653    3.00600036892844
C         1.06074520493132    0.68702814774804    1.69022492143421
C         1.02701471975810    2.97139655066356    2.59316412668684
C        -0.34148358763594    3.19321286193273    2.81206203446592
H        -1.07473475981930    2.51693629895836    2.40593657439966
C        -0.76088985532798    4.31280515466770    3.50071921144542
H        -1.81809992484549    4.46345205366800    3.66454654354935
C         0.14629316373450    5.24499200846690    3.97699390650421
H        -0.19262207864823    6.10490218298903    4.53321481464023
C         1.49454711741137    5.08999491158246    3.69334444565954
H         2.19218821478300    5.84740766689919    4.01954069965737
C         1.92296893321693    3.98584202871607    2.98615693565960
C         4.17164989044929   -0.55350807643450    0.79761246081026
H         4.10529362746382   -0.77349969171632    1.86390318747519
H         5.15616890192994   -0.14071081648167    0.57992966948705
H         4.04605546703063   -1.48308379192810    0.23515632578813
C         3.17385264814687    0.67823069752491   -1.01206121369789
H         3.02850790503728   -0.25046322270472   -1.57307653835461
H         4.13971577629879    1.10683222175404   -1.28043211164647
H         2.38258758909554    1.37961077687634   -1.28141410618079
C         3.72889510687388    4.97926193732655    1.76930538567795
H         3.05096785889478    5.10476024598568    0.92400008888478
H         4.74133942815836    4.83213567944402    1.39467104153641
H         3.70622588394387    5.88641267351921    2.37990461427992
C         4.18808156822539    3.66322307226036    3.73065991801621
H         4.14955103154214    4.56230696006428    4.35392623285929
H         5.21586245661952    3.50150163268346    3.40492273881897
H         3.86130280220005    2.80864774839048    4.32536169476100

