95
CSD_code = AFUFIQ | q = 0 | S = 0 | Stoichiometry = C29H55N6Si4Y | MND = 6
Y         6.18853760351461    2.18943637755221    4.85114201404160
N         4.94411007213115    0.30134379021317    4.92965683906682
N         6.36682759120765    3.71652213711225    6.49423592784236
N         4.85268861381438    4.10210529414290    3.60279856649039
N         3.73555252701623    2.80829317658311    5.80429176600593
N         8.46695495820341    1.66205965107761    4.91725507753964
N         7.61831838663233    2.15108545603592    2.89328086203227
Si        5.52367872574428   -1.29065563329186    4.69890488828696
Si        7.14091755066587    5.22992880335743    6.41717092277234
Si        9.58881046968105    1.31625895576931    6.18603500952428
Si        7.53697663823132    2.21155426249359    1.17154664705901
C         3.53446781359875    0.39580818538135    5.27039692055055
C         3.24042945801644    1.51709543338480    6.27648035455796
C         5.34558650300856    3.55507654126696    7.51483787538967
C         3.94403526908275    3.74767455354115    6.90874334846451
C         2.86685313965804    3.38326840519388    4.78414387040786
C         3.60650703983846    4.41120861200098    3.97001530820133
C         3.00326514012576    5.61083631126017    3.60656993279658
C         3.70899146805564    6.51556154789852    2.83284380863393
C         4.99961335105153    6.18802999203206    2.44696372497035
C         5.52572382655057    4.97461976903648    2.85783911796600
C         7.19252478382596   -1.23743128978495    3.78856257335277
C         5.77430037068202   -2.26716424282545    6.34350379697744
C         4.33339582021322   -2.37539277555232    3.64564796508854
C         8.18830039088188    5.62426859713640    7.98275460980184
C         8.28757935235142    5.26952527925049    4.89045271082341
C         5.96845546121638    6.76236560834319    6.26143282535141
C         8.66636638840913    1.82532904023142    3.63138839558685
C        10.01459269327803    1.67345628508325    3.03702183706917
C        10.80104765426101    2.79796486890264    2.81873981150984
C        12.06642129690546    2.66718868643652    2.27440235930948
C        12.55449900122970    1.41493467913690    1.94077333065986
C        11.77238141748376    0.29234368921843    2.15540729368282
C        10.50784707732584    0.41846290496419    2.70326696104185
C        10.88193054706073    2.70460018549245    6.42934862921856
C        10.55297054747794   -0.33154520784778    6.01389366775871
C         8.40066576694946    1.20454590333994    7.67642413700780
C         5.64845304617896    2.27573074120184    0.84560599229066
C         8.39947113355789    3.75904612029645    0.43010668045278
C         8.24614312875060    0.70638127608810    0.22707708652027
H         3.16110798654412   -0.53253701096540    5.72253239946873
H         2.93127436770493    0.55719489768888    4.35789430590705
H         3.76317096769592    1.27554928798363    7.20470646112645
H         2.15808689105999    1.56135015345764    6.48681117954038
H         5.45440383371656    4.28401587480718    8.32855049372252
H         5.41223051139021    2.55197298867270    7.96492868230847
H         3.16027111723777    3.63959740945192    7.67483255050422
H         3.90674652863363    4.76407776684354    6.51114201010838
H         1.95925451078313    3.82857739461484    5.22482518395019
H         2.55595332797716    2.58155164257392    4.10546961402939
H         1.99565315665376    5.82878876231568    3.92717739132128
H         3.26290874438109    7.45450724227727    2.54055304265310
H         5.58660995760521    6.86099115653947    1.84259701194101
H         6.52436811002468    4.67439587629252    2.57308824316812
H         7.49840218141093   -2.23411650515509    3.48745773843140
H         7.96357266841333   -0.83126728659087    4.43300392403127
H         7.13500402772831   -0.61887827612666    2.89862322726496
H         6.10221201465256   -3.28570965310473    6.16055240168864
H         6.52029463943764   -1.79131778061561    6.97440569458412
H         4.85104668078641   -2.32170323683901    6.91377274837119
H         4.73832563251885   -3.36715983866782    3.47147423303340
H         3.37701279941596   -2.49891410703686    4.14438017632279
H         4.13988228065257   -1.92441930270977    2.67694776585266
H         8.72763787784643    6.56120745618876    7.88296907769552
H         8.91595510012296    4.84228820912746    8.17736033431120
H         7.55865001355762    5.70654556191145    8.86378810136607
H         7.99704201184538    6.05099668712313    4.19596883653231
H         9.31280177587711    5.46430370971353    5.18397156716908
H         8.26437213353515    4.31646870898404    4.36873506625995
H         6.52693249586887    7.69089827279202    6.19461955196204
H         5.32108703882316    6.83990865038898    7.13041961029025
H         5.33131477399149    6.70224322612138    5.38221805828889
H        10.41773427381523    3.77205902108630    3.08311133211035
H        12.67460390992782    3.54503090348190    2.10969498680650
H        13.54206066944804    1.31411137326215    1.51477311264973
H        12.14996928223659   -0.68598518043987    1.89493097022350
H         9.89370825762476   -0.45279739490158    2.86947472050317
H        11.44619745651858    2.56222433169206    7.34531200146796
H        11.58970116518453    2.73131410192976    5.60588546308948
H        10.39691273386855    3.67352315429245    6.48338615887904
H        11.09451072870444   -0.55221835080355    6.92832256508230
H        11.27715998397539   -0.28537901141789    5.20658032362626
H         9.89052230938037   -1.16897005804827    5.81765582369908
H         8.87480559149391    0.78751925300755    8.55922714251101
H         8.02912178856096    2.19459423685234    7.92760391484101
H         7.54095728930942    0.58067782641191    7.42473582844743
H         5.37709651444913    1.64678548209859    0.00441842963293
H         5.30421740466856    3.28031809036761    0.61893750398746
H         5.10082543285963    1.92111866501180    1.72028845937447
H         8.02551769516406    3.97468094043844   -0.56575745446521
H         9.47007934362261    3.59603579071326    0.35013178096032
H         8.25358838143217    4.64896327916534    1.03547100672083
H         7.99559093967052    0.75998155567549   -0.82821666133939
H         9.32775966033786    0.66073647121512    0.30652871025071
H         7.84868100533925   -0.22825439200469    0.61086375146597

