71
CSD_code = AFUFOW | q = 0 | S = 0 | Stoichiometry = C20H43N4ScSi3 | MND = 5
Sc        3.04157370271648    0.21580209511146   11.07964919827294
N         3.84995637773056   -1.59186673533870   11.79529280899180
N         0.95580317130273    0.33522473118848   11.38888329350972
N         3.35065304796396    2.52289632382092   12.01942869893079
N         2.84018374777102    0.36268846883937   13.57828626129366
Si        3.33028231636851   -3.08786953630278   11.16274931651626
Si       -0.28021924766339    0.40451147512255   10.21885996472162
Si        6.10069313040352    0.78940567709566    9.49932988959902
C         4.32592032623766   -1.54763152847673   13.16173958868510
C         3.24541389108423   -0.95313255787675   14.08553244104682
C         0.54932906714541   -0.05420054081349   12.72924225229282
C         1.41434678576343    0.63175784546457   13.80089168087542
C         3.65852723581043    1.42290419778050   14.15312415406529
C         3.57805358729635    2.67884068863342   13.32520137856231
C         3.74792817211605    3.93150174154543   13.90701309092560
C         3.67445159680365    5.06028179085374   13.11095443755738
C         3.41870034457376    4.89797475341188   11.75761994239543
C         3.26517196197918    3.61417044242759   11.26307962721467
C         2.85107679143475   -2.71367835012901    9.35302848594848
C         4.68821128329401   -4.44346806662657   11.20291936135116
C         1.79448031023042   -3.90363638448681   11.99993190304478
C         0.52017202894057    1.11026901649288    8.63710438202971
C        -1.10811350376196   -1.27951348949365    9.79030071561645
C        -1.73218611060861    1.56395653927194   10.71626973447037
C         4.23639499864569    0.79290414095327    9.21666303480579
C         6.48922046101452    1.68091819059717   11.16178970798287
C         7.16800855551291    1.68346952800534    8.17136986785283
C         6.74095151932029   -1.00432037709482    9.66243965178038
H         4.58952796240006   -2.54194813003353   13.54732121533254
H         5.23837114473376   -0.92861413135496   13.22546212620193
H         3.59423563582673   -0.88787931273805   15.12860039196419
H         2.38431774456778   -1.62252649607066   14.04509965940373
H         0.61162697677520   -1.14880181661944   12.85988409336957
H        -0.49341736746628    0.22977744956612   12.93492404806540
H         1.10523171269323    0.31105346682490   14.80957165034334
H         1.25027044261693    1.71067876155907   13.71376421828117
H         3.36663390658433    1.64335680762962   15.19570047319621
H         4.70422533017358    1.09200456488270   14.16383794235436
H         3.93481703237040    4.01365186514996   14.96703339374372
H         3.80668406908344    6.04361355921074   13.53679058728968
H         3.34215238520730    5.74900450285396   11.10026193875596
H         3.06491653564284    3.44378202511179   10.21368615723873
H         2.25603995230533   -3.51708938560575    8.93349145970288
H         3.72864648731766   -2.59154214973457    8.72752300200082
H         2.26022151070810   -1.79290258453692    9.30434509989376
H         4.37012762486005   -5.34280505135868   10.68614349489035
H         4.93068445068429   -4.72361249347817   12.22358640558951
H         5.60346725945937   -4.09842764643287   10.73333752711446
H         1.55893106203170   -4.86612804770593   11.55593690553382
H         1.96135930262033   -4.07159723680658   13.06110238960520
H         0.91450936731092   -3.27347684087623   11.89685612544369
H        -0.14366607960708    0.99203139994715    7.78861163153081
H         0.73518856733986    2.16879567346950    8.73804120082481
H         1.45152173252924    0.59508159479771    8.40585977865769
H        -1.84053877162255   -1.18608626698250    8.99400772835692
H        -1.62076740418841   -1.68955109512187   10.65621470037729
H        -0.36929954682850   -2.01086263558504    9.47452922143154
H        -2.40237607505697    1.74323016003254    9.88182938716246
H        -2.32405119332758    1.13221858637486   11.51794169365087
H        -1.36869171172594    2.52821575248921   11.06009073563239
H         7.54535462955399    1.63413288392769   11.40970319275550
H         5.93403656899486    1.20494495116384   11.97051810354975
H         6.20726403601292    2.73060536739261   11.13497764485175
H         8.22734317942261    1.63320378609225    8.40496940347878
H         6.90119004153157    2.73338218807572    8.09223443467517
H         7.02868940172107    1.23793091009936    7.19134454939829
H         7.75799231377489   -1.04545659634536   10.04035550355547
H         6.10023534273919   -1.55576401590122   10.34552909453509
H         6.72649579780004   -1.51894085801848    8.70700604821115
H         3.94163287696291    1.77616273547394    8.81674041606933
H         4.03458021603991    0.08139371920612    8.39904035563681

