115
CSD_code = AFUGIS | q = 0 | S = 0 | Stoichiometry = C42H68FeN4 | MND = 4
Fe       -1.49549292917943    6.11187679947541   10.99865399713395
N         0.37667574882525    6.66543128609986   11.84203266441417
N         0.05200313530308    6.86387079068591    9.66475244762842
C         0.86304874541391    7.00607123371166   10.67660882660533
H         1.89352977954030    7.38815009348886   10.58251459560599
C         1.13470540881376    6.94746283464432   13.03501607603035
H         1.98777731724214    7.60075048304904   12.77640411902919
C         0.24497855612458    7.67876597322628   14.04044540393275
H        -0.12229915436176    8.60463121839389   13.60780671886874
H         0.79462229026084    7.90165657638097   14.95219625520192
H        -0.61048410036222    7.05434887301714   14.28058725725560
C         1.69964502253761    5.66314815868287   13.65406747756164
H         2.30089239125327    5.12905723446199   12.92124019960751
H         0.89290654808998    5.01337793532830   13.98251367431553
H         2.32567010527419    5.90231482303231   14.51094937362404
C         0.50164806419436    7.10767274847790    8.31147155083560
H        -0.39997110975792    7.30794426602096    7.72396783843405
C         1.42005401581355    8.32751739039379    8.16293743755093
H         0.99085816536757    9.17928959739876    8.68211195627310
H         1.51796219411491    8.57759406392685    7.10910668335269
H         2.41399782082917    8.12978289534704    8.55794091918963
C         1.19335789117260    5.86350260936561    7.73557399611542
H         0.51471976663563    5.01449964324750    7.73851558732242
H         2.06534191045757    5.60983669315452    8.33552697616947
H         1.51529959165316    6.05097853532105    6.71364432387878
N        -2.86607730250087    7.99611389719767   10.69293679725372
N        -2.88055611348520    5.30190632730204   11.83579608247136
C        -5.06344684678487    9.10247005816984   11.33419819316745
C        -3.88627787719170    8.11806102398646   11.46974375524710
C        -3.95211974113859    7.29532242517358   12.64316471549059
H        -4.46565044980627    7.74323929740285   13.47370784338247
C        -3.46100342261378    6.03399707991341   12.83625440939037
C        -3.53352746780579    5.45580020580794   14.26757769603228
C        -5.02887710398589   10.09836887005217   12.50581450148579
H        -4.03840903021758   10.53103835041389   12.61337199625597
H        -5.30116563150546    9.62742821826666   13.44646875360205
H        -5.73764637351833   10.90383258200669   12.32253367603954
C        -5.08526436495353    9.90428662309680   10.03116109012875
H        -4.22579968606381   10.56013820086435    9.94354064091156
H        -5.98473652083475   10.51939699081825   10.01011745019916
H        -5.10747405809264    9.24952706162724    9.16623203010014
C        -6.37127685349971    8.29624896409822   11.38918417041103
H        -6.44445017777454    7.70702398350300   12.29936467182996
H        -6.43347311648902    7.62239131292597   10.53730179837164
H        -7.22355116586872    8.97255039864803   11.35134822404400
C        -2.35738643034603    4.50736565654999   14.52311109841638
H        -2.32401860496627    4.23752767158274   15.57714404994230
H        -1.42013797987409    4.98986138303196   14.25890867913884
H        -2.45567769349020    3.59153451188626   13.94946165846280
C        -4.84018066088896    4.69206798514272   14.50486260045761
H        -4.90345672856446    4.39246852453614   15.54968662289587
H        -4.87866094452251    3.79668991108711   13.89105081743378
H        -5.69719114946625    5.32110354289521   14.27589973555974
C        -3.45062031740562    6.58022875315894   15.31503806622399
H        -3.22234412042631    6.15059769357502   16.28849908828718
H        -4.39418379660583    7.11120552891073   15.41445903242256
H        -2.67150534597571    7.29473570740260   15.06449163463280
C        -2.51411877891582    8.75357952400612    9.58083196470740
C        -2.84018659101293    8.30713999873749    8.28665955721242
C        -2.37643769432785    9.00955990379956    7.18695127963695
H        -2.61582505020666    8.66478751735447    6.19231970758130
C        -1.61562722384869   10.15299185212684    7.33942946457915
H        -1.26588943206187   10.69494844031545    6.47324345074810
C        -1.30549507923672   10.59552033454526    8.61077581954034
H        -0.71483989849543   11.49288526278049    8.72514538308008
C        -1.73637200098607    9.91545175080280    9.73885142520146
C        -3.68060179989492    7.06287172849631    8.10634113988149
H        -4.20660708227412    6.88292013316932    9.04948887516499
C        -2.77566043616193    5.85769069813057    7.83664405281048
H        -3.36204832770241    4.95182191536037    7.69256079726472
H        -2.10185861876336    5.71595707093772    8.68823298193976
H        -2.18003319189018    6.02198601525957    6.94179993340744
C        -4.72367695107521    7.20230522022247    6.99475038288244
H        -5.42485680237730    6.37095409577684    7.03813592103924
H        -4.25652109903160    7.19229806826181    6.01331793098030
H        -5.28339004086519    8.13001671515532    7.09668815375737
C        -1.36340116442723   10.43722051724766   11.10889036081544
H        -1.82796697272170    9.78871384691609   11.85814080476931
C        -1.85214035390649   11.87449863744732   11.31931636806320
H        -2.91592877154154   11.96682210576751   11.11289980513406
H        -1.32224277958081   12.56160082220421   10.66390471374102
H        -1.67270100951238   12.18393092240879   12.34763364849500
C         0.15135771865372   10.37572911775152   11.31346433773693
H         0.49315719595005    9.35076428750685   11.20447914427632
H         0.41343565733271   10.73180125912126   12.30861023636653
H         0.66747384676510   10.99750878266414   10.58481644059485
C        -3.19162328769756    3.94371969686974   11.63868870802892
C        -2.17061166405532    2.96326281584920   11.60193249547117
C        -2.50321887730731    1.62753855205166   11.43590802901932
H        -1.72191622953705    0.88470718292657   11.41271873602734
C        -3.81559594969518    1.22225973050860   11.29955156841939
H        -4.05795369324990    0.17586870516126   11.18973932918025
C        -4.80943189159532    2.17874293642322   11.26494929158893
H        -5.83022107589942    1.86815837404517   11.10617767224082
C        -4.52772221774623    3.52924277358078   11.41157396681159
C        -0.70965648600834    3.33733941491642   11.68730691596862
H        -0.62150193981192    4.33982371320091   12.13190524261768
C        -0.13800151797338    3.42191586655424   10.26840421049648
H        -0.70219900120815    4.15175150750416    9.68431384078559
H        -0.19557276137882    2.45498541186371    9.77156314568539
H         0.90041617247104    3.74031744300068   10.30112542986015
C         0.11746368615222    2.37021867540869   12.53629751773372
H         1.10669048600546    2.78861814764623   12.70461421569245
H         0.24668074620325    1.41089575429415   12.04097089071325
H        -0.35227423037072    2.20002564114269   13.50258933277012
C        -5.65861770492433    4.50635656903563   11.16579050406479
H        -5.36149999024301    5.49269071844942   11.52349417431561
C        -6.98659743734627    4.12774511359167   11.82984657112106
H        -6.85743743147661    3.84447740083331   12.86948107596440
H        -7.46326051644629    3.30017134459158   11.30972837188670
H        -7.66583685862021    4.97708723477837   11.78667029039441
C        -5.87901750855628    4.58447070001059    9.65093303357389
H        -4.94835467106021    4.82447228422277    9.14953597420349
H        -6.61989066204847    5.34524083115358    9.41201247321905
H        -6.23413485309012    3.62835741870876    9.27073497507259

