47
CSD_code = AFUJOD | q = 0 | S = 0 | Stoichiometry = C20H18FeN6Se2 | MND = 6
Se        7.33660921053286   11.09855284377342    8.17721661844343
Se       10.72134364153304   13.32371681098738   14.56043295845609
Fe        9.75299475161995    9.59202503335637   11.80827965595845
N        10.40014323749937    8.35733628512341   13.07506940315243
N         9.64553533565083    8.05734912700151   10.54896290561723
N         8.00960642044058    9.09960409187002   12.35714130454949
N        11.43628259687002    9.90944614086421   10.97487493997746
C        10.44256900990840    7.08624551924928   12.65092364731628
N         8.95098664119634   10.74079816339838   10.55084433688974
N         9.89163994952367   11.04100449557315   12.99267208526317
C        10.63388677150129    6.01617508422191   13.50606174782551
H        10.65067969402941    5.01076570760664   13.11376778225525
C         8.28083685900627   10.95691251413044    9.61862907197853
C        10.32938593030008    6.91251554609479   11.16453964365600
H         9.82916039080684    5.96757993940356   10.92048954523692
H        11.34959456406860    6.85834374758647   10.77000293547319
C        11.54495409293943    9.32404216518605    9.77269357261536
C        10.79203699297922    7.57258204133715   15.29722024144309
H        10.93651570796815    7.81586108708835   16.33711236724570
C         7.43760249654863    8.18219839340073   11.56702963275680
C        10.58313088820848    8.58222983279439   14.37970242139136
H        10.55830457635198    9.61844741798394   14.67561184400678
C        10.80837952683211    6.25522640970879   14.86128187198572
H        10.95709648056142    5.43945308691326   15.55045916687072
C         8.21861313701767    7.80062662050977   10.33920820959330
H         8.02173453599554    6.75945261387648   10.05235050210355
H         7.86131679200680    8.44360546177614    9.52814156997255
C        10.21096672975848   12.00062252398033   13.57983238967828
C        10.36433067635557    8.49165777039496    9.34615708801118
H         9.70868750091194    9.13085158196144    8.74905586321562
H        10.67369880555461    7.64443903071066    8.72010247448894
C        12.65698338059010    9.49688992688314    8.96662145887607
H        12.70297800818596    9.01368044044161    8.00271408648701
C        13.69210947976996   10.30955370855795    9.40635093417860
H        14.56229174586948   10.47071809666271    8.78958405103623
C        12.43544135362578   10.67708482595382   11.39925010259030
H        12.29202242955682   11.13033172900929   12.36726791316966
C         6.17787653673018    7.66946244212244   11.83015617547208
H         5.74656827430312    6.93461546276234   11.16801908744532
C         7.33685139371850    9.54276939255089   13.41486871642084
H         7.84452335020542   10.29865389797081   13.99364198809504
C        13.57611140724020   10.90727425770941   10.65123900022666
H        14.35072870785143   11.55000327228820   11.03621092183145
C         5.47847419608219    8.12918337147071   12.93551972883089
H         4.49170795030460    7.75261091209949   13.15486770196451
C         6.07209284370944    9.09003143435118   13.74021850461157
H         5.56131499778087    9.48806974129766   14.60170183133865

