41
CSD_code = AFULOC | q = 1 | S = 0 | Stoichiometry = C8H22CoN10(1+) | MND = 6
C        -0.14722856038265    1.51340186651002    5.61219473363620
C        -0.57789170129142    2.05944859471696    6.96749685836788
C         0.39077302924860    1.67126529742185    8.07782890201605
C         2.59515151980621    2.01289700824957    9.03580799772100
C         3.93536800458757    2.68062909812595    8.76372597650628
C         5.61936949573710    2.97502077969002    7.03990389825532
C         6.10188873801697    2.54767685740857    5.65914669520919
C         5.19363506148103    3.06078719719052    4.54905261474053
Co        2.74230967276754    2.30577565224753    6.21300072545594
N         1.05117083484597    2.20537842848940    5.10445126514040
N         1.68986494250061    2.34135189593890    7.92399401410217
N         4.35966609665144    2.31111362570783    7.40463745995408
N         3.89297082942364    2.36697716638423    4.54828638536674
N         2.52726644613047    4.17862626223732    6.13537259224265
N         3.25794468346187    5.04330941229542    6.44075338909378
N         3.89917488977954    5.93579451734843    6.71728038195747
N         2.91821822866906    0.43026079506250    6.10781189473697
N         2.38973479830890   -0.41919436950975    6.71916604175269
N         1.93002697292532   -1.29724660476713    7.26868726027353
H         1.26426988792334    1.79468071730523    4.19486977507889
H         0.79953222682964    3.18360609632177    4.93838491887635
H         0.06934614087830    0.44625327453970    5.69628892420086
H        -0.96928869858569    1.63686711612041    4.89871119637018
H        -0.67101007784011    3.14674438750347    6.91456286526290
H        -1.55820564585721    1.65074458206734    7.21035260434530
H         0.54033952352088    0.58827678672077    8.07821914020273
H        -0.04136900501946    1.94786825811636    9.04665867280284
H         1.49710004298556    3.34801471026892    7.97968749844441
H         2.18290268146538    2.35023211104995    9.99304589463383
H         2.71255766716028    0.92566582016996    9.08154335588314
H         3.83658541774398    3.76942059065944    8.81487029019299
H         4.67869655292135    2.37171498970137    9.50677745001402
H         4.56404780031533    1.30530776662101    7.41604427710545
H         6.38440625932395    2.72282662803681    7.78354519565756
H         5.47726923440143    4.05873001192857    7.06414609348745
H         6.17026640196848    1.45853432363685    5.60634730107351
H         7.10101244733627    2.95391528030075    5.50507427489472
H         5.68796988450958    2.90975241318395    3.58319315520801
H         5.02399995766542    4.13204465179646    4.67720811850186
H         3.35309386882574    2.75557092997793    3.77431212464459
H         4.06516344885897    1.38255507322399    4.32655778658706

