41
CSD_code = AFULIW | q = 1 | S = 0 | Stoichiometry = C8H22CoN10(1+) | MND = 6
C        -0.12301650618360    1.53694295401786    5.54165169479431
C        -0.59352934491296    2.04799354967538    6.89733926116831
C         0.36301927096957    1.66452425632761    8.01975434466921
C         2.53900522546215    2.04322880451843    9.02718169452666
C         3.86725009723137    2.74855084611715    8.79409525735510
C         5.57547510480130    3.11807927400692    7.10907025623529
C         6.09603582730102    2.72759236336264    5.73124737446147
C         5.19581110063366    3.23491967570917    4.61202967711277
Co        2.73386167320179    2.38937379626903    6.21398907477649
N         1.06820610764603    2.26647941247602    5.07069990908007
N         1.64762297004888    2.36936662606353    7.90345475451510
N         4.32689831282350    2.41530744483919    7.43714738461683
N         3.91470037256832    2.50664160489639    4.57423051357848
N         2.47398777543355    4.25765387202932    6.16134651619338
N         3.17054907053767    5.13482643405789    6.50806773780106
N         3.77842206428524    6.03787202769329    6.82329205428146
N         2.96171786226032    0.52067672247655    6.08343519605445
N         2.42845236611838   -0.35442991424433    6.65311880563501
N         1.96696228821603   -1.25501636744652    7.16324608753871
H         1.30821990031630    1.87869552664574    4.15772295325664
H         0.79615198161566    3.24146863124591    4.91785200732359
H         0.11722439982519    0.47383475853427    5.61138351946495
H        -0.93340878468856    1.65378413865351    4.81386877095772
H        -0.71347241414845    3.13336033637811    6.86135511641355
H        -1.56756216238184    1.61036258283348    7.11364018986033
H        -0.09469146113407    1.91291496028696    8.98447047672539
H         0.53974782051726    0.58575349625552    8.00416145935187
H         1.42835716107265    3.36969675515454    7.97334572166641
H         2.09977106475551    2.35281041977010    9.98179016571938
H         2.68266314366085    0.95860227856652    9.05570510352298
H         3.74073213501535    3.83345072760884    8.86354537588032
H         4.60339607000287    2.44369894046956    9.54589406229516
H         4.55679559645805    1.41493572782370    7.43417005268211
H         5.40434535089911    4.19712146299857    7.14883802640843
H         6.33217596651042    2.87302438048719    7.86353112162527
H         6.19503951787302    1.64174314845294    5.66181001798075
H         7.08653341521567    3.16308187011928    5.60367407256524
H         4.99451543961238    4.29887416235980    4.75437029803396
H         5.71252949695692    3.11348306200628    3.65375380707975
H         4.11793674116459    1.53073937086243    4.34130163602651
H         3.38026798244048    2.89267987964119    3.79521845076800

