41
CSD_code = AFULAO | q = 1 | S = 0 | Stoichiometry = C8H22CoN10(1+) | MND = 6
C        13.15295348450893    1.56138818202496    1.90366848896036
C        13.30995511747579    0.07157142903854    2.17955953307523
C        13.10630228709321   -0.76962054900306    0.92546335642773
C        11.50899016163672   -1.59564592395766   -0.70574595385175
C        10.06383913699410   -1.44411978511494   -1.15820038512314
C         8.37895061288136    0.22427608633752   -1.67894225026870
C         8.09390307640080    1.70364819252959   -1.90737035892369
C         8.17399852034672    2.51043483222925   -0.61775416316956
Co       10.70002568174314    0.98076308055392    0.17762525848615
N        11.74838976094260    1.91766354026303    1.63316954157411
N        11.71042773462700   -0.73136652008861    0.46711324017677
N         9.78288795839772   -0.00833414466545   -1.31069588386278
N         9.56225436363638    2.62603464205998   -0.13535972458726
N         9.53287193631665    0.42733072168019    1.55365549879003
N         8.46679642234858   -0.05701128031239    1.50178505601123
N         7.43942546229112   -0.53325653756640    1.53893648477234
N        11.86561061083500    1.70068107394629   -1.12014012606493
N        12.93403442722952    1.35470367122180   -1.45666252014419
N        13.96437275570808    1.08270382819081   -1.84224049534137
H        11.72648168185101    2.92546103681986    1.47417759417634
H        11.21179633327214    1.73849298751143    2.48626832660967
H        13.51176900398042    2.12622060735930    2.77099713630812
H        13.76183047783605    1.84319377587105    1.04193726892354
H        14.31791252386883   -0.10784681749084    2.55208998223702
H        12.60524701104169   -0.23613876611456    2.95563025809698
H        13.38399678888697   -1.80848120583145    1.13880773013001
H        13.75934295132292   -0.40887419589322    0.12633067647574
H        11.15068133439777   -1.12577179663502    1.23181236220758
H        12.19291000542988   -1.27533901596587   -1.49793877353707
H        11.73142874224521   -2.64162791910163   -0.46797943556854
H         9.38367667037639   -1.85478516174092   -0.40553979256970
H         9.89512432982477   -1.98110531069395   -2.09800322242959
H        10.34163934034649    0.32522737636941   -2.10447712046469
H         7.72896859797582   -0.16065227164946   -0.88867706420174
H         8.15338929987438   -0.33226755257063   -2.59614650193338
H         8.79243355917469    2.11113655391574   -2.64196619097083
H         7.08738424810426    1.79904491420687   -2.31333433280660
H         7.56844789531770    2.03154614102206    0.15468729525825
H         7.76552122118971    3.51121126357704   -0.79556550837770
H        10.08887327980644    3.16437010955914   -0.82873505924292
H         9.53165519245995    3.18844070810621    0.71565977474118

