44
CSD_code = AFUMIA | q = 1 | S = 0 | Stoichiometry = C15H22MnN2O4(1+) | MND = 6
Mn        7.33526535806295    2.78002607049757    7.89229116421528
O         4.84660452373442    2.77932501465897    9.45969876780175
O         6.09216223635999    0.54182120170369    6.43801664888102
O         9.27352083806197    2.78103377611904    5.68025141476712
N         8.49093518891711    3.97100772535223    9.27387323535702
C         5.85986978418787    2.78072831974751    8.94633609934609
C         6.56434332486062    1.41693165641073    6.99013348636929
C         8.88208786195094    2.77999558654647   10.06202274021207
H         9.95648651353736    2.77999724558562   10.27285375034350
H         8.34303648805903    2.77998385742368   11.01485847207968
C         9.66672715349346    4.67361705247048    8.69737686584299
H         9.28774830532978    5.42617175624961    7.99898402992127
H        10.26905455078948    3.95871082686668    8.13034798222592
C        10.55239069275684    5.36740783060817    9.73413264234319
H        11.35726229042094    5.87579425516493    9.20300453873807
H        11.01560741092085    4.63948391144967   10.40386813938224
C         9.73823144121974    6.36351242075344   10.54952277388767
H        10.35737346931529    6.81253520824712   11.32508869851060
H         9.37719883539681    7.16465755121909    9.90247454460239
C         8.55607719116228    5.63105318261199   11.17096945445878
H         7.91308249515958    6.32995637922761   11.70584221473249
H         8.91554517876563    4.89541453936384   11.89391575619662
C         7.72532024573269    4.95437124114530   10.08074611759094
H         6.86474659687355    4.45428402811017   10.53382466224821
H         7.34830677557057    5.72017455935407    9.39566894010552
C         8.60448597956694    2.77893361634549    6.59751798691652
N         8.49096183074220    1.58899207653751    9.27384510214380
C         9.66675669061544    0.88636810306223    8.69737309416371
H         9.28777702414604    0.13381409743708    7.99897928310028
H        10.26908789694601    1.60126957254559    8.13034354709874
C        10.55240376081452    0.19257276286716    9.73414337011948
H        11.35727541245064   -0.31582800314093    9.20302954367632
H        11.01561995407757    0.92049731847588   10.40387905227134
C         9.73823029700950   -0.80351737544549   10.54953740218437
H        10.35736106813179   -1.25253926194257   11.32511289759144
H         9.37719370769524   -1.60466597304161    9.90249491954492
C         8.55607971200613   -0.07104166498625   11.17097011578899
H         7.91307313880203   -0.76993836970705   11.70583913590611
H         8.91554547482132    0.66459437837958   11.89391993352105
C         7.72534291692521    0.60564108264342   10.08073245377442
H         6.86477364345806    1.10572839402039   10.53381934129050
H         7.34832249695770   -0.16016784304159    9.39566654949899
O         6.09246284335368    5.01820027283914    6.43775447678037
C         6.56466140084024    4.14309161926436    6.98983865446891

