74
CSD_code = AFURIF | q = 1 | S = 0 | Stoichiometry = C29H36AgN6O2(1+) | MND = 5
Ag        5.35356764569849    1.95085755758736    4.23051409275126
O         4.84482395800117    0.09123426332358    2.60167362700889
O         5.31511849634371   -0.27428902369756    5.42216274976353
N         5.77555247769945    3.11929864325570    1.97665672578368
N         3.68009953873918    3.79681185220536    4.06729650855446
N         4.85350287635715    2.64446548680815    6.58440807529027
N         7.55456216383452    1.72678033758530    4.41910829892892
N         0.77022212273939    0.39972095216768    2.68542532914218
N         8.58896784113890    4.90768364338205    8.59242169800891
C         5.90937531774719    2.09304891581667    0.91975089819914
H         6.66144914917649    1.37560019978693    1.25782232684572
H         6.26659699456529    2.56812971721403   -0.00705539056192
C         4.65524836736224    1.32931909055523    0.58829393754565
C         3.99160692436995    1.59091492213502   -0.60427291349464
H         4.35943887163586    2.37939970199636   -1.24490989205527
C         2.88625792657997    0.85638152712746   -0.99314738205458
H         2.38810979762003    1.07994622571159   -1.92260445304710
C         2.44137243379890   -0.17393081087398   -0.18735905075721
H         1.58863338364474   -0.76595922719207   -0.47674947335876
C         3.08496651708856   -0.45584554440535    1.00530323769400
H         2.70945096420978   -1.26018682462910    1.61426602835102
C         4.17756344422265    0.30005631105697    1.40986072439834
C         4.57163348201423   -1.10814910054472    3.30390001176398
H         4.67219541804119   -1.96713120126451    2.63011377127220
H         3.55621648229886   -1.09168322069054    3.72091572471843
C         5.58460922608393   -1.25058131768098    4.43158594438993
H         5.49255650484453   -2.25541667326674    4.86153157915646
H         6.59299526212143   -1.10983861603070    4.02340425852849
C         6.08261091312669   -0.31845009526645    6.57038507104567
C         7.15510158513332   -1.18489874704411    6.73954284818795
H         7.46064963179180   -1.85165203767982    5.95105903396089
C         7.86259897515153   -1.20544004334855    7.93011061822983
H         8.69462874203808   -1.88307493151916    8.03816634935800
C         7.49865849389668   -0.37604360742313    8.97217053124212
H         8.03529003590159   -0.39972010231827    9.90666150799580
C         6.43255805205756    0.48882111541540    8.80415591524819
H         6.13815505537251    1.12324312092277    9.62725871188283
C         5.72070558271831    0.54565663409910    7.61410638951337
C         4.56631580712957    1.50224845575218    7.47564772544254
H         3.71335677441591    0.96457936957843    7.05091103312928
H         4.27652479308505    1.85615660477527    8.47541994208646
C         3.70731463084915    3.55569389541012    6.57069752699322
H         3.67512709254617    4.18014845727844    7.47407071860869
H         2.79904415066468    2.95565251345449    6.57680130579923
C         3.69743889278579    4.49154570866655    5.35964618480283
H         2.82829239426841    5.16036470465335    5.45297886578519
H         4.59270179986370    5.11415851244122    5.39949589440234
C         4.12565115623888    4.70143607107011    2.99858377754002
H         4.94329915572727    5.30942502635369    3.38854395574219
H         3.31864937195760    5.38860730747372    2.70700031548069
C         4.60471065654971    3.96942234154497    1.74298289449497
H         3.80690000626579    3.32630959844362    1.36976415280805
H         4.81274729054899    4.72349625273690    0.96895589234827
C         6.98893177270653    3.93829503676078    1.99282847695044
H         6.83979404118395    4.74953294506977    2.70796878115266
H         7.17066740572400    4.38329531386338    1.00156485156316
C         8.26341201772895    3.16899954416162    2.40444336618021
H         8.62576420040875    2.53232614431943    1.59413273896981
H         9.05303565469934    3.88145895827884    2.65402246513000
C         7.95651514713249    2.35470215334710    3.54198051577008
C         2.34635158476328    3.26856479749597    3.75896861692390
H         2.24976177758794    3.19898539292144    2.67370621849300
H         1.56495885721766    3.95435908437774    4.11515398107899
C         2.11042497462071    1.86269959778085    4.33845215301763
H         3.08863113859711    1.38275088634593    4.50823108844663
H         1.56066798426466    1.89075278770313    5.28163402210737
C         1.35709229121265    1.04640291674031    3.42152897318695
C         6.11092467761127    3.31303950836680    6.92630961129415
H         6.33707715037300    4.03776642575945    6.13938041110063
H         6.89566293656286    2.55358836103622    6.90885043569309
C         6.17447520716551    4.04167673437630    8.28666320256677
H         5.50050477757090    4.90148770939448    8.32226573854127
H         5.93260067073431    3.36572089363125    9.10832230791923
C         7.51912110407270    4.52557089536370    8.47735788902119

