74
CSD_code = AFUREB | q = 1 | S = 0 | Stoichiometry = C29H36AgN6O2(1+) | MND = 4
Ag        7.13798933405414    3.13037872086844    9.47400595995034
O         8.45252014535940    1.16188823111507   10.38100260355485
O         5.63644379868708    1.55153612406455   10.72967196092414
N         9.62368145439872    3.97240923638353    9.27705861779818
N         7.68839228592259    3.26321961746928    7.07609144445868
N         4.97391983930987    3.37830158156029    8.26226195416711
N         6.86329335926646    4.45088402767050   11.19929559739663
N         9.59752860501155   -0.78889853185856    5.40908792987363
N         3.24582184217197    7.86085099548931    8.51539570613805
C         8.76613126645603    4.24773840262289    6.94861606704460
H         8.34513716324546    5.22040593070622    7.21661425614803
H         9.12601388064204    4.32425424466261    5.91210970304569
C         4.52316583941787    2.20897710767304   11.21062564641094
C         4.68900759487609    4.79386801579944    8.50764040950380
H         5.58686963239094    5.37217511699447    8.27238165527084
H         4.50128321804909    4.90166838377384    9.57869410142881
C         3.63357343500332    2.70827907900461   10.24874158910891
C         8.10070463780264    1.89556708370346    6.76402506377714
H         7.22670589566766    1.25051436398457    6.87154847556859
H         8.82679828901350    1.57801415041226    7.51313249050235
C         9.21093791778875    0.28417048045103    5.35801307993114
C        10.59999660050801    1.66950883661671    9.51449038277391
C         9.96879804039433    3.96192850044329    7.84968412543317
H        10.38466879148353    2.98642163468104    7.60143137135289
H        10.74332601435836    4.71053767440929    7.62829500893602
C         3.90452420349532    2.50583438403645    8.78205900414744
H         4.22843251968262    1.47253737571821    8.62950327132666
H         2.97276834238853    2.65376324282668    8.21790334956984
C         4.24284374932202    2.36844178690314   12.56034032910409
H         4.91142255062170    1.98800739788682   13.31466513926545
C         2.48372329853213    3.35582438011129   10.67530408047493
H         1.77953620754672    3.72417511933837    9.94390461495355
C         6.46230031716118    0.87457531172999   11.65650879483183
H         5.88000116395216    0.12623478793916   12.20807360686550
H         6.92004017740930    1.58215693038862   12.35900221574516
C         9.57875258996554    0.72882715269606    9.71183951150763
C         7.55628013987720    0.17520827077911   10.86206861570018
H         8.09026298876597   -0.53193145050066   11.50762937293984
H         7.09056609943186   -0.36445310716486   10.02834289913145
C         8.71964374073528    1.63956227298518    5.37076672372574
H         7.98749608622870    1.75808362244129    4.56893916486927
H         9.56462427712236    2.30490130683932    5.17971746923682
C         3.09277223669725    3.02978594755038   12.95998697675148
H         2.89096338475586    3.14935828352627   14.01274046795998
C         6.50906728332319    3.67638944653648    6.31087655421354
H         6.59956906814980    3.40530971689321    5.25054352888649
H         6.43682351143928    4.76411370669945    6.35703335013838
C         3.49953014926348    5.41009868603487    7.73894951942210
H         3.67237862954821    5.41369029077234    6.65973649874795
H         2.57245692391984    4.87319766991735    7.94768811278679
C         9.75868398573475    5.33791506413081    9.78849494916325
H         9.21667694670693    6.00185613905822    9.11129168149857
H        10.81678870607522    5.64474096065380    9.79965098375230
C        11.74278353597036    1.27706083688113    8.82763147707452
H        12.54055922525072    1.99279285893983    8.68921836504597
C         5.21488455564000    3.06414343953587    6.85350959613969
H         4.38466478603997    3.39350579671143    6.21264616485521
H         5.26676044633207    1.97666307236165    6.76758751037027
C        10.49850970880243    3.06973738290752   10.05739316562525
H        10.08957893384133    3.01543247395803   11.06907866748134
H        11.51424998112837    3.49170543283816   10.10857889889162
C         9.19677828306438    5.54929384140800   11.21019644960478
H         9.83125519013224    5.08116353679177   11.96602816851146
H         9.15047403590905    6.62006710403170   11.42242125171527
C         3.33883595838295    6.77746880807041    8.16662718780519
C         2.20829140722204    3.52338467122434   12.02116150877004
H         1.30823949811258    4.02992401429696   12.33001812972573
C         9.73145014444570   -0.56561105033552    9.22798072031319
H         8.96240928889709   -1.30508136598269    9.37570439435756
C         7.88544013153946    4.97744361869723   11.27404463307468
C        11.88469093739598   -0.00638024895733    8.33107996824177
H        12.77818285758169   -0.28515470336672    7.79706450419979
C        10.87391893810615   -0.92625216960156    8.53369911612515
H        10.96600399708769   -1.92981105581672    8.15235413485426

