45
CSD_code = AFUSEZ | q = 0 | S = 0 | Stoichiometry = C20H18Cl2N2O2Zn | MND = 4
Zn        0.00031979710584    2.18421434440366    3.51139528885781
Cl       -1.96720242435551    3.09763021946913    4.01319331572800
O        -0.16756069694004    0.85433595924374    1.95733232506296
N         0.86952843347578    0.95307116960417    1.17439717829795
C         1.92355900695729    0.16816540567013    1.38451665847428
C         3.05857097603869    0.29271626617205    0.57559385115436
C         3.11005875158877    1.22328711119947   -0.42322269638444
C         1.97013395268447    3.06047950724858   -1.63438382849529
C         0.87232574017595    3.86258612491359   -1.78587445015765
C        -0.24682537669544    3.69646186828597   -0.95841678683644
C        -0.25824792572677    2.72956318452885    0.01163289096387
C         0.86191131153447    1.90239712792344    0.18461612476857
C         1.99762565524242    2.06002885345960   -0.64232150424384
C         1.83412278938557   -0.78922160825661    2.51523931194927
H         3.89970346867560   -0.35127333738731    0.77801482613014
H         3.99059630400022    1.33791270838535   -1.03608280664135
H         2.83827849068675    3.18449336363597   -2.26432423528654
H         0.86277755624190    4.63284078744786   -2.54224963889256
H        -1.10387374362724    4.33973527638226   -1.08498510905797
H        -1.11370990854565    2.59182600453678    0.65545012778765
H         1.63994255742630   -0.23669016205630    3.43727045233839
H         0.98850968742751   -1.46077049410992    2.36693553096853
H         2.75001740803991   -1.36209094010937    2.61568425223865
Cl        1.96800222668177    3.09832373219877    3.01110928852114
O         0.16726012354957    0.85459352003819    5.06580419706601
N        -0.86983894397599    0.95342995953356    5.84873824710996
C        -1.92376282687747    0.16828085280506    5.63889994158985
C        -3.05857345693243    0.29252835983518    6.44815165731421
C        -3.10998320523257    1.22307976505300    7.44700376105617
C        -1.99766320099135    2.06007381006781    7.66581374548003
C        -1.97013259180789    3.06058582709648    8.65781511908685
C        -0.87222617784885    3.86255251634060    8.80937522270470
C         0.24695247560248    3.69629943881226    7.98198253551050
C         0.25821685467914    2.72956674139366    7.01176613337886
C        -0.86207089294966    1.90259442285591    6.83867273732886
H         1.11365909809723    2.59179500479603    6.36792304253780
H         1.10394915044170    4.33968525145644    8.10839116115623
H        -0.86262822421212    4.63280850976520    9.56574482902462
H        -2.83821821140628    3.18455910921757    9.28784551477640
H        -3.99059732185246    1.33791913889659    8.05970721125856
H        -3.89974292770130   -0.35140041992986    6.24572362438871
C        -1.83425122852314   -0.78924959304732    4.50830464881944
H        -1.64113047573819   -0.23674028593608    3.58608123743188
H        -0.98801262250465   -1.46008053357236    4.65605740909968
H        -2.74966943130919   -1.36290386827457    4.40847765662868

