40
CSD_code = AFUXIJ | q = 0 | S = 0 | Stoichiometry = C19H15NS4Ti | MND = 12
Ti       -2.41715634231677    1.96811782800671    8.87357930442062
C        -0.66701155023545    1.01549599950873   10.14781919749191
H        -0.26758517331063    0.01083236134602   10.08336110907111
C        -1.70766507581763    1.42521564999380   11.01635158736021
H        -2.23580855188302    0.78158468906678   11.71075831204685
C        -1.78555607746173    2.83082427272524   10.95767859522031
H        -2.37752092964610    3.45865680824631   11.60977396126700
C        -0.86200054842039    3.28289531474877    9.99136833227878
H        -0.62547105629093    4.31602936182222    9.76511294800699
C        -0.14700074349192    2.15826872215195    9.51805432248392
H         0.71931549831788    2.19241937410763    8.86864349133875
C        -4.44060279090604    2.73610770124333    9.79179128534115
H        -4.75396287026976    2.68976482463079   10.82709735518862
C        -3.81838410393505    3.83309888630030    9.15599886804801
H        -3.56723933438501    4.77934642704325    9.61751845536921
C        -3.72260637656022    3.54530664422178    7.78138521483329
H        -3.36855809914387    4.21889395441504    7.01022563336100
C        -4.29473926957480    2.27087672907601    7.56339238445254
H        -4.44230428458214    1.79684332170096    6.60056656019963
C        -4.74014106331173    1.77409842283864    8.80799702306346
H        -5.29872305702763    0.85852140373393    8.96097462153968
S        -1.30230757877075    2.10143017989286    6.75908184350129
S        -2.71527669169195   -0.36732228891437    8.40326069720322
S         0.91693741765997    0.03346872535077    6.22548287015737
S         1.77312068876309   -2.81752279454153    6.65574353359797
C        -0.61512085606287    0.53737067303540    6.91856844315740
C        -1.20397156327156   -0.50467858448771    7.58558713129390
N        -0.46511299681253   -1.66883879246801    7.55827716770866
C        -0.90959811774941   -2.85984654913852    8.19172571417938
C        -2.13214454749011   -3.40638558131299    7.82919203718150
H        -2.72472795858745   -2.93407004476331    7.06073057714743
C        -2.57386008800624   -4.55606566440336    8.45836941510169
H        -3.52418993567975   -4.98457623526727    8.17857841101653
C        -1.79794232711156   -5.15792111422800    9.43453906774816
H        -2.14387558347330   -6.05858302220607    9.91899404469571
C        -0.57706973533200   -4.60820022739602    9.78821426077283
H         0.03012116934565   -5.07626042564924   10.54794690302857
C        -0.12823266942356   -3.45448742312857    9.17182133289919
H         0.82310266109205   -3.02092180931555    9.43915985986890
C         0.71037051280525   -1.59488771776032    6.87917812732353

