70
CSD_code = AFUZIL | q = 0 | S = 0 | Stoichiometry = C37H25O5P2Re | MND = 6
Re        9.38003978236248    3.02528094122434    4.29495485297430
P         8.26993705276421    2.62521592137402    1.43271993076115
P         5.81535760329325    3.29737554708057    3.70109732341490
C        11.18978539088374    2.33803384549304    4.34916542010466
C         9.80231206134749    4.95096705511481    4.42859566428138
C         9.19852955039821    2.73424935530246    6.19778689092182
O        12.25079989273842    1.89587077904334    4.27802170353411
O         9.92237822318110    6.08289878351994    4.40483097455100
O         9.07442098955526    2.54194601847106    7.33201869889309
O         9.41006532938396    3.37302151540658    2.02200992189113
O         7.22438711026069    3.75918025966245    3.63176123849467
C         8.44828231933059    1.17874247499238    3.71389188305691
C         8.26667677780994   -0.02387079664808    4.40929441169398
H         8.77409860368056   -0.15624344528928    5.35568162538553
C         7.47461851031717   -1.04968886849028    3.92636765277354
H         7.37652179202061   -1.96393521076612    4.49578060251108
C         6.79985199781104   -0.92180233315822    2.72005075146276
H         6.17731895029782   -1.72499297617696    2.35104361970238
C         6.95005353531908    0.23576221238474    1.98545221857670
H         6.45676277946790    0.35550209124112    1.02816357458689
C         7.75821143955246    1.25089598123262    2.48557714897223
C         8.84412387660907    1.74699991948140   -0.05751532477303
C        10.17088864601829    1.33882473645953   -0.04208133189583
H        10.79476153367655    1.61552074825608    0.79766645867428
C        10.68258081161711    0.59865347314975   -1.09223895568438
H        11.71697220855321    0.28853981631897   -1.08073907666859
C         9.86356288829382    0.25462635592736   -2.15482513292731
H        10.25872335419677   -0.32375141086207   -2.97701757503927
C         8.53501867386116    0.64947215570782   -2.16590408266175
H         7.89676567033948    0.37718126504414   -2.99432616424669
C         8.02187389880007    1.39195110391864   -1.11845872766090
H         6.98558050017644    1.70479295487473   -1.13297615268690
C         6.99403184071456    3.70937130943482    0.69595169561464
C         7.51409403646114    4.42595095639094   -0.35821734227361
H         8.58982580687809    4.45853868398860   -0.48222464431053
C         6.68372867293860    5.06448156743735   -1.28445780340550
H         7.11966499911878    5.63426333683066   -2.09119147144905
C         5.33014072060185    4.88222840847527   -1.20770051024808
H         4.67582477732379    5.26979020921361   -1.97502359318030
C         4.75637373845542    4.18672694208422   -0.12295608012683
C         5.59817214692123    3.67917839603125    0.91016705348405
C         4.98156445144700    3.20118384094751    2.09288920205339
C         3.61258879881566    3.05693801856795    2.15036641540026
H         3.15271351767827    2.72448350847654    3.07071715441908
C         2.80519219632860    3.38274807843488    1.05664670938380
H         1.73912440797893    3.22205047386466    1.11353506379607
C         3.36259966824623    3.99168121040036   -0.03417105534974
H         2.74014737562061    4.35234998713331   -0.84016982395775
C         5.52120941498640    1.82454894089021    4.71552005952910
C         4.78652633679015    0.71223705711379    4.33734197873200
H         4.36353065503004    0.64616318612890    3.34542737650837
C         4.61067621889103   -0.32038001651645    5.24331813963210
H         4.04048894678350   -1.19113529970063    4.95454730042898
C         5.16834841681396   -0.24467418487065    6.50831070114181
H         5.03311258770603   -1.05980466095154    7.20349747306640
C         5.89865615659458    0.87203491880838    6.88611682498204
H         6.33716694831807    0.93371106351484    7.87004739969955
C         6.06472596915341    1.91161229763555    5.99318603305007
H         6.61985814365960    2.80014047831784    6.26939070615675
C         4.84596537338896    4.60991853744812    4.51226059324937
C         5.19795492206129    5.91598332886074    4.19545006564050
H         6.02499151664603    6.08979587462307    3.51993362292045
C         4.50581281124299    6.97492026826198    4.75246207804361
H         4.78256507771578    7.98991409445803    4.50900370979492
C         3.45871500260203    6.72857689041545    5.62584866344777
H         2.91744398942444    7.55365340320851    6.06436870819157
C         3.10741028050824    5.42638506524507    5.94325093135941
H         2.29530602689347    5.23746600610515    6.62976918086115
C         3.79676310759308    4.36392348448963    5.38653705270181
H         3.53032318772632    3.34722406953523    5.64080038803135

