80
CSD_code = AGACAP | q = 0 | S = 0 | Stoichiometry = C37H12AuBr8F15N4S3 | MND = 4
Au        6.97284865532034    5.18513532757357   13.13032983695856
Br       11.39693974868034    6.23233250379856    9.62220335427195
Br       12.17733612984512    7.90957468011085   12.54020944205518
Br        8.79679651858463    8.39967269710239   17.74007339790853
Br        5.85336828632233    7.04285386783695   18.62650848627564
Br        2.07001352470065    3.19655706354715   15.75985025793163
Br        2.07634541844225    1.91147703064162   12.65640039983323
Br        6.06492551913859    2.55992903451016    7.91975933144994
Br        9.05688935993012    4.28096098002752    7.85616950094218
S        13.64493893361514   10.69181854607618   16.84762510283696
S         1.41756995363453    5.05895020059397   20.65705864588269
S         1.56369474080516   -0.28840641205042    7.70478391588413
F        14.83829525358101    9.66397336810779   16.32943711230468
F        13.77732767552659   11.55932532621626   15.44084921917997
F        14.80577678107201   11.62664094792143   17.45396614709347
F        12.55032688091115   11.79909383605329   17.41685573244269
F        13.61296750837604    9.90438486136212   18.30605407159867
F         2.70775289275694    4.90352665399436   21.68689940878075
F         1.48399178610836    6.70795139465865   20.81722088039258
F         0.46546944292501    5.03875428327718   21.95407593596940
F         0.04635943285848    5.21254683834950   19.73784762108950
F         1.26956581282007    3.40827741343664   20.60820695874452
F         0.16320473716082    0.45895163820990    8.18277515278185
F         1.36234604302478   -1.43165539039205    8.88845332167699
F         0.66315810928308   -1.21706691606985    6.74796573917207
F         1.68821231133424    0.77528529899520    6.43887586299779
F         2.88780245306788   -1.11463339364775    7.14464185336971
N         8.62075684355554    5.93193386147028   12.56962711061327
N         7.12114986268408    6.01313895721854   14.86232288901734
N         5.28520521493321    4.32426527596943   13.47399297748638
N         7.04158417223731    4.47520852011429   11.37560487684494
C         9.04169125710742    5.62960899828333   11.30112069745242
C        10.29174926743480    6.25894585370488   11.12180916475061
C        10.59416181512462    6.93240142381191   12.30017548095851
C         9.52277677532207    6.71933674037935   13.21568376722684
C         9.29650526426405    7.16214119110967   14.52517907145631
C         8.15959276365011    6.82964331730723   15.26932184381742
C         7.84302537218706    7.26293543894674   16.59500181815332
C         6.63834391264150    6.70316319617521   16.95473869632982
C         6.18257700448929    5.90634841025621   15.85706726964010
C         5.01424442048697    5.14132701109642   15.77375928466461
C         4.60575796958452    4.39452547016253   14.66362550833331
C         3.43451857798275    3.58371221476565   14.52940143086187
C         3.43523513098359    3.05252653506195   13.25994891816713
C         4.60513828621601    3.51740626756791   12.58112311387366
C         4.99125853628725    3.21848758862616   11.27025450607048
C         6.17217987140422    3.69057774652493   10.68310245098830
C         6.73922190861699    3.51418506696210    9.38731262948989
C         7.94489668841788    4.20564368904000    9.34905022244671
C         8.12805295749147    4.81025429646438   10.61067431016281
C        10.34313927222723    8.03098687311326   15.12189643483997
C        10.30464915450997    9.40715842225804   14.91683818109950
H         9.49612781991961    9.84425120879382   14.35162930933562
C        11.30058009775003   10.21551608435096   15.44076626730298
H        11.29081246403691   11.28252134075293   15.29757280776559
C        12.31548004904298    9.62099899846075   16.15296017920481
C        12.38789633527774    8.26500633401986   16.36865521135734
H        13.20604305143172    7.84774882317816   16.93049327460834
C        11.38837765372362    7.46183462831110   15.84344699392982
H        11.41883280737955    6.39385621744149   15.99417697931422
C         4.12981190376879    5.11973091534660   16.97011944894129
C         4.34410107836735    4.18072981465536   17.97492139382824
H         5.15011053280295    3.46938529864795   17.88256701971459
C         3.52390641759388    4.15894572839398   19.09148135055585
H         3.66958408195593    3.44235022420115   19.88156757581133
C         2.50837244243049    5.08245306032536   19.17190439700387
C         2.26813016322311    6.02317230974769   18.19824950599667
H         1.45895849102127    6.72452888974163   18.30923014247820
C         3.09086761567808    6.03900018032135   17.08345064084588
H         2.92862573136768    6.76559513378063   16.30246720067645
C         4.12893950223847    2.35473341143193   10.42370829790951
C         3.12765442826976    2.92548381091689    9.64351713594283
H         2.95910719698304    3.99060996152913    9.67966096178858
C         2.34810783583838    2.12764106261841    8.82145982039864
H         1.56756161227859    2.54625389349743    8.20941787278954
C         2.59571062966867    0.77536511111122    8.80012367350990
C         3.57922018317910    0.17946930589762    9.55395791322987
H         3.73524225449762   -0.88434587568504    9.49933509170532
C         4.35634494489761    0.98248130840480   10.37310204996909
H         5.13765646569219    0.54430877317924   10.97452813951580

