43
CSD_code = AGACAO | q = 0 | S = 0 | Stoichiometry = C17H17MoN3O5 | MND = 6
Mo       11.70988965817329    4.80178764706837    2.35987783283924
O        12.35186176689748    3.34472228111519    1.93179928053961
O         9.92433849643933    4.23779457848476    2.02426758930898
O        13.11653938744911    5.86675250651933    1.80107462021511
O        11.64460202477034    5.17449321906993    3.96143940798302
N         4.94292753937972    3.87304542821881    1.93413752390469
C         7.58611925673982    4.71249908482604    1.86434000462812
C        12.44598862275959    8.10263688221121    1.77409305108324
H        12.72499221607106    9.14237132643356    1.81975941449724
N        10.65029538247840    6.55619127891819    1.71084162362966
C        13.41412423051109    7.13301806945757    1.89818273211701
N         9.30158041774893    6.37064721645766    1.62975696715467
C         8.99497316227829    5.12932635964005    1.83833335600983
C        11.07153832771487    7.79782547581318    1.63483860368550
C        16.77651249059156    8.84705696112263    2.12104827114602
H        17.24801344048006    9.77761186015781    1.84196308102361
C        10.07763870065158    8.90252557184177    1.45686434882744
H         9.46142036254702    8.69749442535356    0.58318850641003
H        10.56913422359139    9.86417690868107    1.34952518552557
H         9.41004097864785    8.92526522953929    2.31713861666025
C        14.83138817576176    7.43369055496859    2.17075266064127
C         5.25028295031561    5.12690930035685    1.64554175987016
H         4.40815554736284    5.77657239625358    1.44561238950937
C         7.26581412267285    3.39004407572175    2.17007739906380
H         8.05361355777198    2.68295900785202    2.38627742604414
C        15.44360152853000    8.63634856830611    1.82036475857947
H        14.88667338886311    9.39539102746121    1.29311061739405
C         5.92825301864344    3.02951427421131    2.19056461521222
H         5.62604763711678    2.01678127818836    2.42281604567937
C        15.58001937373798    6.44839707929457    2.82095840585882
H        15.08890303677267    5.51964054924208    3.09541252769854
C        17.50982513350675    7.86980801230502    2.77542433571760
H        18.54926894301438    8.04268527015499    3.01070513845999
C        16.90893500929983    6.67021740257358    3.12481178820422
H        17.47840540961969    5.90835102065159    3.63518838396524
C         6.54914995923996    5.60525004223453    1.59678103768602
H         6.77145857701801    6.63243021636462    1.36076400966562
O        11.54787358412887    4.58276997593791   -0.32012854027904
C        12.67692810423154    4.97333657016930   -1.08420717531336
H        12.73490849656520    4.37949980886932   -2.00256424937285
H        13.60557765645306    4.85656413220934   -0.51508014301907
H        12.54179142426077    6.02314100391667   -1.34735181546002
H        11.70199467919368    3.67165612182566   -0.01830139299810

