81
CSD_code = AGAHIA | q = 0 | S = 0 | Stoichiometry = C23H46Cl3N3O2PSi2V | MND = 5
V        10.79658257441360    3.85741185095717    1.62733611130765
Cl        9.12659571718778    2.69760399211932    1.98718261275368
Cl       11.95409190575470    4.84729609113474    0.22544434895109
Cl       12.04848095933583    3.77780520020001    3.46267655212163
Si        6.24416361257510    4.91197807930440    1.79280210218974
Si       10.26402761362605    8.21804277596217    3.10688517557824
P         8.49612350014750    5.99040971685263    2.30568937957105
O         9.90056950947655    5.52139952864369    2.29793222063658
O        11.73149893484219    2.09633123508553    0.95273679270238
N         7.52882589471650    5.77206775263722    0.94706381474989
N         7.31865995503149    5.15849407987408    3.16226575357561
N         8.62857180788632    7.56629854181661    2.80974526490182
C         7.86401830980297    5.87695178676882   -0.46106311177544
C         8.92286757717750    6.96182836249265   -0.64014623106482
H         8.57500795566103    7.91117020149422   -0.23804973149786
H         9.16044138871640    7.09127002392985   -1.69413845240630
H         9.82625918369339    6.66524686333016   -0.11188367253987
C         8.42308824112677    4.54443544246097   -0.97760624487686
H         9.31620147179247    4.27408874224056   -0.40529767478131
H         8.69583390927542    4.63060195999116   -2.02729539414596
H         7.68445048492872    3.75482782699546   -0.86329461115365
C         6.59432256312254    6.23252268836764   -1.24145087182003
H         6.17656287428599    7.17095264641622   -0.88594914198921
H         5.84693882124968    5.45361381617198   -1.11257853260325
H         6.82177072350812    6.33052780050841   -2.30003060680340
C         7.24466600446189    4.76634651849737    4.55730050954922
C         6.89609079053060    3.27873979432842    4.65693822871966
H         7.62940701738769    2.68446805538368    4.11973545111417
H         5.91529391119846    3.09417670569112    4.22595286355012
H         6.88827742430218    2.96714383082254    5.69851185797931
C         8.60232894797638    5.02615844816844    5.20041910488175
H         9.37328859567942    4.44207881993187    4.69660296248127
H         8.58928931286506    4.75350838517349    6.25354668390464
H         8.84825427142518    6.08033965535241    5.10472123045546
C         6.15342647620373    5.58012611090592    5.26479455968874
H         6.35016063609616    6.64448755629845    5.16701637489423
H         6.11747798071892    5.32122320481945    6.32018151328747
H         5.18541026172283    5.36828406501131    4.81735954662470
C         4.61612075330980    5.88854768653295    1.92766288083120
H         3.86523735780877    5.27559239287204    2.41405212144615
H         4.23328229076267    6.14224688809633    0.94564941958358
H         4.71984723840864    6.80734102350056    2.49413276025169
C         5.83531365669618    3.14020665556887    1.22710767678529
H         5.07399206866727    2.71381872226611    1.87185910029624
H         6.69530447419209    2.47869416342312    1.24205385532773
H         5.42831032493612    3.15064323175685    0.22059011478471
C         7.47230106581832    8.31382943408725    3.08461289538438
C         6.56498602185722    8.62160162184153    2.07989897967352
H         6.74873809023033    8.26011966804020    1.08178810009849
C         5.44431502730872    9.38625149835232    2.35487785023115
H         4.74982660525590    9.62018151307919    1.56092384597854
C         5.21577177652771    9.85664245224377    3.63612964556459
H         4.34359707400008   10.45621261177124    3.84870120999358
C         6.11755091544377    9.55528204208226    4.64342218308028
H         5.94781899166794    9.91676875968023    5.64709732441483
C         7.23527657992163    8.78832061235767    4.37205039144247
H         7.94019845822382    8.55205896860086    5.15525794110656
C         9.96538487920989   10.06084938708762    3.50258549334074
H         9.25526469931261   10.52059907899227    2.82379483530472
H        10.90442324200790   10.59277046742305    3.40773795291102
H         9.60580416372559   10.22417077472600    4.51083619914728
C        11.17683566793873    7.38596480198470    4.55812371877788
H        11.34395487591934    6.32993893844839    4.35982100967729
H        10.65869480791142    7.47368530906940    5.50991691798203
H        12.15147153945276    7.85043904485930    4.68007113275438
C        11.37230619603231    8.19997326125993    1.56041916221790
H        10.92138128834033    8.69366002808675    0.70423707468212
H        11.63426697242050    7.18646949536367    1.27240282690530
H        12.30011802872460    8.71891583706326    1.78418437587516
C        12.10103653724205    1.03678780002729    1.83165637771408
H        11.28051653569577    0.85335131449937    2.53964823716165
H        12.98119198776396    1.37079285439646    2.38811616648724
C        12.37038457498103   -0.19605856058877    0.95101450294068
H        13.36041446235994   -0.61053269136215    1.12709248535296
H        11.63208835864581   -0.97227367242845    1.14954096860123
C        12.21569222974832    0.34003218654066   -0.47521914272680
H        11.81181077199379   -0.39738339047584   -1.16440972318444
H        13.17295738654333    0.69756554344045   -0.85564542502513
C        11.27689820846241    1.52225856737004   -0.25884750967831
H        11.34151965824781    2.29111952870464   -1.03432566126898
H        10.23356703630697    1.18618599312028   -0.14457701097535

