79
CSD_code = AGAMEB | q = 0 | S = 0 | Stoichiometry = C42H28N6S2Zn | MND = 6
Zn       -3.21445461463965    3.30071309409877   14.70459388495025
S        -4.97095483194172    0.83644889021161   11.32875972546053
N        -5.20169737325290    3.32562656603452   15.69351739008743
C        -5.60542887206732    4.51540032070561   15.89112715384841
H        -6.49899774154202    4.75365437945011   16.47418590183790
N        -2.76099439638557    3.71271385067574   16.90550593796155
N        -3.83137287038572    5.31873699357945   14.54276965773744
C        -0.45190470223390    3.36978955959377   15.28349193016582
N        -3.86606285996949    2.66266098288988   13.07150288341509
C        -4.89111185388023    5.62670185248175   15.29449585609738
N        -2.72680964212167    1.37636989926323   15.58263989307218
C        -5.29328160016775    6.94758710420621   15.49388778200192
H        -6.14615939932636    7.16732046255998   16.11759743409235
C        -5.86056443561373    1.03958089847604   15.52152649179522
H        -5.52206734664867    1.05610474348056   14.49875648228174
C        -2.89169054628447    4.96302763022191   17.48589259771411
C        -5.79688995719146    2.22140100725679   16.26691050082076
C        -2.17113830096464    6.05115172419099   16.99087656353719
H        -1.41105137485166    5.87626792724642   16.24560974441853
C        -6.84300134500126   -0.10780243839838   17.39710287152726
C        -7.80754221365341   -2.28569171947225   18.47925141249570
C        -4.32422877154642   11.27620784105492   19.62027868294447
C        -4.32877888311402    1.88620491913841   12.31605957320625
C        -6.27606589715430    2.22485552273656   17.58151224597181
H        -6.21390371539810    3.12848343827471   18.17085940152274
C        -6.77960343299919    1.07330031109185   18.14329037096697
H        -7.13046687348402    1.07287285565244   19.16514675872197
N        -1.30111574607204    3.69416554544570   14.54155224851154
C        -3.15745700348869    6.28350787433720   13.94963976240470
H        -2.31685670641260    5.96621304721892   13.34932339754129
C        -2.16826642509813    2.73058014290260   17.45377195142909
H        -1.67864513504697    2.80230361767106   18.42596730105948
C        -4.11389870661309    6.44642667511220   18.93606465850739
H        -4.86094500392195    6.60605166526278   19.70013810407945
C        -3.73250319284773    8.84854455652187   18.83618088529252
C        -3.42677182978443    7.54114580555514   18.40858041430612
C        -3.84128729974190    5.17200876847382   18.48672913066033
H        -4.36698551971870    4.32099849174695   18.89585293068551
C        -6.38640066341756   -0.10474719112183   16.07377483181388
H        -6.44707845254152   -1.01145641803529   15.49090141393688
C        -2.43272279717277    7.32185006301026   17.44950915721701
H        -1.87378746958591    8.16250756771517   17.06559096052383
C        -2.15632197757558    1.43817102465472   16.78964877326146
C        -4.00742374415096    9.96843480671303   19.19676163068766
C        -2.71036515000266    0.22590626609584   14.92964124236436
H        -3.15993923093624    0.23226385211138   13.94731672020035
C        -4.57289721426995    7.96170169407438   14.88778575362965
H        -4.85227435852834    8.99408337308810   15.03588881631295
C        -3.49110327768940    7.62505565536237   14.08882627852417
H        -2.91158077606192    8.38479374691387   13.58933677143596
C        -4.94641483150221   13.85101876560724   20.45677386470114
H        -5.18767537873186   14.85186525585733   20.78259422407293
C        -3.97371950609326   13.65224231600164   19.48932524755564
H        -3.45722279042746   14.49920234582551   19.06166854679649
C        -1.57470894269139    0.32251621816203   17.39292440395542
H        -1.11945592761803    0.41610079124990   18.36675567016306
C        -5.30365170489819   11.48220814654979   20.59429808028289
H        -5.81500891133501   10.63085308920939   21.01986686727244
C        -3.66035794492200   12.37449050033220   19.06954795726232
H        -2.90190387239505   12.21242373592870   18.31734085354960
C        -1.57404892725422   -0.87984162220097   16.71282572089123
H        -1.12646230176793   -1.75890356639395   17.15170646493965
C        -2.14994318220588   -0.92932642471114   15.45104736990037
H        -2.16131401946716   -1.84267890955383   14.87846103080178
C        -5.60861508635784   12.76437835490192   21.00659767352962
H        -6.36597627473095   12.91953006001472   21.76119834678489
S         0.56243425102224    2.93425060492487   16.42585223685632
C        -8.80773427792049   -3.43052372618950   20.37905948528808
H        -8.77065173994402   -2.50703210885600   20.93855899488823
C        -8.33102776030683   -3.45592346620801   19.06630542604391
C        -8.37828564080630   -4.64754068651939   18.33913688736434
H        -8.00973160900710   -4.66339077811208   17.32389601403557
C        -9.32116409027584   -4.57869869105644   20.94898438380238
H        -9.68951081733287   -4.55557170813931   21.96426124119748
C        -9.36550998763217   -5.75894357077104   20.22303055300997
H        -9.76798288254916   -6.65438062113318   20.67278308649054
C        -8.89371693814208   -5.78950764255103   18.91977110685061
H        -8.92914885956672   -6.70946586686845   18.35481727388601
C        -7.35963850913035   -1.28225005142319   17.97557872948688

