32
CSD_code = AGASOQ | q = 1 | S = 0 | Stoichiometry = C12H10N3O6Ru(1+) | MND = 6
Ru        6.65673680936253   -1.58304176112308    8.08386697542996
O         5.27669877619829   -2.87130864833129    6.00290138367896
O         7.75859636435124   -0.52437187581120    9.71111211354778
O         5.12195443615347   -0.54012590361309    8.90558348641130
O         4.26961844947704    1.50332251152144    9.02023200808783
O         8.51986147967825   -2.33245735619712    7.75792645199775
O         9.95194075268812   -3.84199096283007    8.52563709218230
N         5.83531688104368   -2.34946389167190    6.84771114663184
N         6.89744892792473    0.16551317712415    7.07832588906798
N         6.58423713186440   -3.17967208990098    9.34856659494288
C         6.02612216904908    1.10966298832602    7.45365017621050
C         6.04782701541389    2.38164055912880    6.90259520156303
C         7.00247686627125    2.66967394722529    5.93756300398546
C         7.90535368234986    1.68113002867834    5.56731669124806
C         7.82258339207759    0.43209089201973    6.16323168464174
C         5.02959457583792    0.70345576595354    8.54349795652660
C         7.71996137205324   -3.88880408302116    9.36687474165257
C         7.85997394839142   -5.02138379631325   10.15405179086811
C         6.78545432826161   -5.42245331072247   10.93539010283426
C         5.61739468427218   -4.67089594817107   10.91107749265179
C         5.55196020587323   -3.54827336143926   10.10029424782579
C         8.85443717504725   -3.35314050996859    8.48596385382910
H         7.34224285587960   -0.20299725310487   10.52518500748162
H         8.71616310475848   -0.59818048678175    9.84300937925298
H         5.32209744563688    3.10461814555263    7.24257235839280
H         7.04441012148391    3.64814646086874    5.48450720695446
H         8.66433295165201    1.86972915095185    4.82527795370740
H         8.50372843324925   -0.37345683981488    5.91513279457444
H         8.79858407384808   -5.55398611087789   10.13117766026695
H         6.85757291355881   -6.30389761778899   11.55372155945311
H         4.76342427837740   -4.94888631552250   11.50757878932814
H         4.66739439791583   -2.92459550434428   10.04496720477159

