66
CSD_code = AGAVEM | q = 0 | S = 0 | Stoichiometry = C24H36CoIO2P2 | MND = 5
I        12.15894394945398   -0.11122054117678   18.71359297383824
Co       11.23544732478592    1.35769758505725   16.89816519845441
P        11.41218696683198   -0.16723956357502   15.32155527093885
P        10.47572644929027    2.90845163189062   18.27018801019078
O        10.37065063825236    0.32689296579089   14.17419865172550
O         9.30648088358538    3.64948886458272   17.41503106189807
C         9.28385464847053   -1.58522561981140   16.30661739034037
H         8.85768605569034   -2.50403432514062   16.70575518869898
H         8.62312794073188   -1.20854768509762   15.52587236706132
H         9.30961206012150   -0.85056869281549   17.11254131603480
C        10.62034681870796   -2.79380053619988   14.56963035801408
H         9.98211352129510   -3.63884375580747   14.82448746142019
H        11.60098777953820   -3.18556401259716   14.31092467950003
H        10.19181011191018   -2.29678330637785   13.69990184414104
C        12.86132895610846   -0.60131987735292   14.25386164354964
H        12.47236417010658   -1.32435866638129   13.52709409258107
C        13.38584031903446    0.60458497179610   13.48403851393301
H        14.09512900703773    0.27547446992266   12.72587086179409
H        13.89399326985229    1.30181654203797   14.14431669816794
H        12.57157721793651    1.12905480516567   12.98715370462580
C        13.94966886760604   -1.23761191098872   15.10921251160985
H        14.78691654212039   -1.54807459724050   14.48636291930317
H        13.57779744089886   -2.10924710729269   15.64460553587872
H        14.31910297597872   -0.52284659964777   15.84194993133691
C         9.52778885634321    1.33720253412482   14.60549029191147
C         8.45982373704592    1.74317058487336   13.82198256877477
H         8.27105967679216    1.25133498903086   12.88052893489026
C         7.66088606003422    2.78643138584698   14.26222301702286
H         6.82927185729181    3.11134354597106   13.65667076650256
C         7.92133015984607    3.42503955982938   15.46390252397263
H         7.31226140104450    4.24747444537451   15.80515732876427
C         8.99506605069843    3.00294428762283   16.23152706875798
C        10.68443006939000   -1.83686673163345   15.75408379027544
H        11.30645823419199   -2.26328125095328   16.54741390308085
C        11.34428602029287    4.39778293901298   18.94998057637558
H        10.56652197072017    4.96345208012579   19.47634444862922
C        12.43124064169795    3.95573859717627   19.92137240415667
H        12.91099172758832    4.82300233323781   20.37199349221863
H        13.19270922564871    3.38094242180586   19.39795151637390
H        12.02553622461822    3.33480518860862   20.71794064277565
C        11.90485194403568    5.28759468645287   17.84712074883761
H        12.21173443339541    6.24398576129207   18.26828374013489
H        11.15247242320557    5.47594409965476   17.08324038232958
H        12.77034725622467    4.83173599297746   17.37487053869900
C         9.49118110631748    2.29078444601387   19.73762867557636
H        10.19079368536814    1.76131417899318   20.39246541661471
C         8.79523871085289    3.40577612474923   20.50962047117520
H         8.06479368343115    2.96995491628096   21.18993158769245
H         8.26696690583962    4.07080580274612   19.82734665388066
H         9.49577241925547    3.98614678898377   21.10492906046586
C         8.46406141715691    1.29387488583340   19.20798313927385
H         7.91830439311603    0.83405405865490   20.03008893420581
H         8.95064728586313    0.49630420352142   18.64670130925696
H         7.74742810865947    1.78848981789758   18.55211457952935
C         9.79634653906407    1.94088107462694   15.82904217421747
C        12.35529476011170    2.59153911840847   15.95139341117509
C        12.08198498833991    3.47122454337697   14.91377039768892
H        11.09197065817147    3.55593020645841   14.49213297156868
C        13.08636207952097    4.27232730743163   14.38955397586172
H        12.84951214875721    4.94979772896185   13.58173182131027
C        14.37338425338016    4.20976747416307   14.88937938158230
H        15.15138861142557    4.83555210840890   14.47816397780330
C        14.65501245299244    3.33542620450093   15.92428752172431
H        15.65446695833116    3.27030415042357   16.33038952721330
C        13.65515199702051    2.53278599243932   16.45073139745681
H        13.92487495157624    1.86460637795641   17.25870674520371

