82
CSD_code = AGAWUB | q = 1 | S = 0 | Stoichiometry = C42H34FeNP2S2(1+) | MND = 8
Fe        4.03893237775955    3.70212345857333    0.74918931796537
S         0.19860175170228    7.00264034264829   -1.16584471692324
S        -3.24736487099176   10.99578572025568    2.06934550642689
P         5.09304240369093    4.21204020863650   -1.07747339885431
P         5.14826566109496    5.27765088683027    1.72060557547368
C         4.25477173670053    6.22396384059608    2.98085236531632
C        -2.38715038606162    9.93479986153948    0.99819648470952
C        -0.64358381154933    8.26417990971250    0.96048475688497
C         0.92321446884162    6.65429131907912    0.39937877502452
C        -2.58520907851421    9.81555337769776   -0.37867522437514
H        -3.33440555278298   10.41710084967671   -0.86752706603172
C         5.65906209973988    2.15569516613562   -2.83527584138093
H         4.64794621287340    2.31955009846859   -3.18215731771878
C         0.36992579642177    7.39577449861108    1.41328065953613
H         0.69037075213320    7.31117268661490    2.43612149009423
C        -0.85987043888217    8.16650364094601   -0.42861528335764
C         8.24710255493484    1.74235307283762   -1.94331891451225
H         9.25544356130946    1.58036719059574   -1.59302825325281
C        -2.32956610584453   10.42359977948135    3.41135470771487
H        -2.52891276654574   10.83221008088782    4.38268604152343
C         3.04961638165788    2.52211140800905    2.22675671876611
H         2.48053823835314    2.84283955066230    3.08197321554684
C         4.00268494984296    5.54852123439192    4.17408962179305
H         4.39871138137912    4.54965294527325    4.30315267071782
C        -1.42931985132405    9.17812256186000    1.69571464537626
C         4.58357630355952    5.36180386455312   -3.59489595340219
H         5.64097248481826    5.58285093434114   -3.64267141602705
C         7.48306926092065    2.75300820017170   -1.38806109966173
H         7.90539866053197    3.36259763851735   -0.60251125397172
C         3.74612716970825    7.50377595980097    2.79514891467087
H         3.92599724971099    8.03960990415842    1.87541512065689
C         6.76682730984973    4.98404949539655    2.48915135711963
C         6.18424803306967    5.68519115696635   -0.76180548637101
H         7.17410204626904    5.32293287278248   -0.47119486854337
H         6.29039740794705    6.29568982958390   -1.66195245139516
C         6.42576375802382    1.14555697557077   -3.38490162947148
H         6.01182447603996    0.51819169597366   -4.15958853844327
C         1.93620934106832    5.72706966224665    0.49759838641761
N         2.80732583639572    4.95815243247679    0.52484038000879
C        -1.41677199776192    9.47895979044134    3.08211487147856
H        -0.75989262706702    9.00951720619841    3.79174944577403
C         3.26879571135024    6.15083573653213    5.17671373025396
H         3.08255509978016    5.62739576443378    6.10212065886622
C         7.72236219331077    0.93842441943378   -2.94198640703447
H         8.32134090585968    0.15065781045836   -3.37179086342551
C         4.05294843364331    4.70988630658449   -2.48467004803140
C         2.70349839006092    4.37292007083673   -2.46388051394381
H         2.30938943162299    3.83581582437290   -1.61258878431995
C         9.27900398792294    4.54709956741329    3.56970545252708
H        10.25629225973848    4.37703784668354    3.99438770636861
C         2.51529444863507    2.18184564648685    0.95991455481772
H         1.47793207292060    2.25156615821186    0.67969371521828
C         3.01017423438384    8.10399875275697    3.80368929316174
H         2.62510551061658    9.10308029544620    3.66016748538601
C         2.77076800286233    7.43207123577945    4.99081445517520
H         2.19812447522032    7.90592480522598    5.77358889894446
C         6.18695208812690    2.97946704636187   -1.84236638971857
C         4.75141013317655    1.70090647200378    0.93826271835499
H         5.68654447809985    1.25763691380537    0.63888857287949
C         8.58878122889556    5.71176625513691    3.86983334709094
H         9.02994491850644    6.44631952837085    4.52618454256642
C        -1.81800931258884    8.92845916234938   -1.09751165951592
H        -1.94992664721693    8.81749329911920   -2.16152180453108
C         8.71558542465200    3.59991433411310    2.72991717519071
H         9.25302718662307    2.69227583720776    2.49929566761578
C         4.42554063318332    2.18633738700974    2.21974971504863
H         5.09037897024485    2.23210918589290    3.06613469080198
C         5.57632620972547    6.48652996843991    0.38636281088502
H         4.64578974250887    6.95801209338457    0.05376930158529
H         6.26349077000028    7.25389675623817    0.75692825003889
C         2.40894606093593    5.39615577594022   -4.61084839868460
H         1.76959530990430    5.67174219506404   -5.43527578167780
C         1.88326239311019    4.72034612174663   -3.52200260619718
H         0.83541532710239    4.46248260666879   -3.49900005799550
C         7.33494339157815    5.93548546455761    3.33182522205343
H         6.79041871313364    6.84008376051126    3.56599317144228
C         3.75946037724247    5.70658255484205   -4.65014603807312
H         4.17209162313713    6.21467547854585   -5.50856810739034
C         3.55906756372798    1.69432488773114    0.15686605702557
H         3.46475198572627    1.27941190889541   -0.83239151629056
C         7.45943493628185    3.81646654642436    2.19233581639594
H         6.99866915723099    3.08429690980869    1.54420365180678

