51
CSD_code = AGAXOW | q = 1 | S = 0 | Stoichiometry = C23H23ClN3Ru(1+) | MND = 9
C         1.19374290911237    2.12708943699688    3.23526376671056
C         2.19805455441107    0.53598907864840    4.50745746754275
H         2.87591015927041    0.31207834208421    5.32003045246684
C         1.54464872185927   -0.50006351365270    3.82098003838855
H         1.72173442860645   -1.52486012787145    4.10433052902624
C         0.68563177855928   -0.18479688385283    2.79839182155569
H         0.16196622483289   -0.94988690238904    2.24527822679034
C         0.47556428605449    1.16967624091483    2.47428859053627
C        -0.40938314157781    1.64502653654068    1.48034512921236
H        -0.96513053494356    0.93905136134675    0.88328445098013
C        -0.56980908422904    2.99314171048302    1.31511637526690
H        -1.26234067587024    3.37902598587021    0.58589421795351
C         0.15699494245473    3.88933386859531    2.12462424674826
C         0.02495990615237    5.33345729602954    2.14956047951023
C        -0.82307478615008    6.08949880282890    1.34020366476605
H        -1.42402595713966    5.60098139802298    0.59132169611288
C        -0.89435822967155    7.45587904038552    1.52092966170758
H        -1.54650352218798    8.05892683888153    0.91032146226242
C        -0.12181165950948    8.03471568912434    2.52287548258251
H        -0.16445407981250    9.09412336160744    2.71511426846343
C         0.70171378558439    7.23086548825334    3.28507749236831
H         1.29373390023243    7.65620013300109    4.08420175868434
C         3.05097668925466    5.08982124305847    6.43264501998481
C         3.16160057113836    6.19717908029940    5.57421465497268
H         2.90508107344716    7.18374743940151    5.94686580419747
C         3.70682338449152    6.05603599233533    4.27848850153816
H         3.86770072382287    6.94361851674753    3.67420829834106
C         4.19553185192884    4.80794169689771    3.82651327690298
C         4.13620443111606    3.71629020091490    4.72304192053699
H         4.58657591127807    2.77432109200896    4.43696395805654
C         3.55203806237290    3.84407384141609    5.98058481040377
H         3.53503094094691    2.99686406812357    6.65328003840729
C         2.47898304655035    5.22308213849658    7.80413828954035
H         3.02606544575808    4.60425296271059    8.51196198495575
H         1.44081449009600    4.88244950244042    7.79685862753961
H         2.49208513015433    6.25760116286508    8.14053638969396
C         4.87776301330281    4.67523090061426    2.48492105968135
H         5.09645635704532    3.61466345764400    2.31908893358696
C         3.95975501939252    5.15422165291764    1.35676192230027
H         2.99327307936213    4.64565612188233    1.41400032596927
H         4.40817799177897    4.93138150764551    0.39232753111305
H         3.79484763677955    6.22828690787914    1.41034657592933
C         6.20178769796052    5.44548189035470    2.48489260653224
H         6.71371043372984    5.29763444412840    1.53817435476277
H         6.84896371110772    5.09259859810681    3.28428031157463
H         6.03530222645258    6.51123066791115    2.62046584410793
Cl       -0.03909042245766    4.42835407897112    5.50987877175580
N         1.04282398547429    3.45262025642620    3.02902321680791
N         2.03849623536113    1.80457023432669    4.22247183022087
N         0.80058456810648    5.91476561853820    3.10146047501184
Ru        1.87177278819966    4.72277154308050    4.24701338593851

