31
CSD_code = AGAYEN | q = 1 | S = 0 | Stoichiometry = C10H13MnN3O4(1+) | MND = 6
Mn        1.80902773118257    2.44913408010962    1.44850906411157
N         3.62893756400538    2.15334713250639    2.23326919416438
N         4.08034258477227    3.21369681858002    2.96510081338167
N         2.23459761292824    4.23652772734423    2.21394898700718
C         2.42003142007627    2.80704481887093   -0.20262119187732
O         2.80073690317224    3.02894784730721   -1.25646859262931
C         1.41787132186797    0.76442700336387    0.97056558882222
O         1.09349706921827   -0.28584758254973    0.65816731771381
C         0.15013279312731    2.91647803719619    0.94525141003198
O        -0.90213634941947    3.19436755851512    0.60582146930495
O         1.13607183423604    2.02034469703955    3.60988372872717
H         0.27218764126131    2.37107449336955    3.85955208194667
H         1.14612842031600    1.09552175334647    3.88555440867551
C         3.29589058280960    4.34606456611887    2.92455962067675
C         3.69882664397401    5.58476602286942    3.64202924908207
H         2.94281961789820    6.35570275263422    3.50718488999865
H         4.64321994285171    5.96238912755557    3.25309371536053
H         3.81987989206542    5.40228679374986    4.70796729995366
C         4.53742567894207    1.19871582904108    2.31815255595540
C         5.59675797701918    1.63821284673462    3.14197752317849
H         6.47348938928113    1.07925526083849    3.39622971248740
C         5.29691360008827    2.91471423843352    3.53729253932032
C         4.43839583169036   -0.10349435032353    1.62259388325285
H         3.88270704338006   -0.82129313739970    2.22623825098825
H         5.43311138308549   -0.50857487511569    1.45613477378196
H         3.92927964029179    0.01021159595019    0.66676990311264
C         6.10213895313057    3.79973492510689    4.40770889564519
H         6.99490491452585    3.26059618003181    4.71336117154041
H         5.55813340587194    4.08925277462186    5.30538228999676
H         6.41582684971175    4.70232891482167    3.88604676898991
H         1.67035210664253    5.08356614933091    2.16634267728882

