43
CSD_code = AGAYUD | q = 1 | S = 0 | Stoichiometry = C15H19MnN5O3(1+) | MND = 6
Mn        0.24611100699824    2.94586662349724    8.59908485550209
N         1.57743925801665    1.82842021359537    7.51165766330073
N         2.75612813865129    2.47904810602230    7.26743154515098
N         1.93445739399235    4.05078231570950    8.64140056583643
H         2.09726861947460    4.91514873818989    9.15743301942703
N        -0.18506003053464    4.09490990271099    6.85686713433541
N        -0.25650262314277    5.44229714733753    6.95196820983568
H        -0.20589096016194    5.91215826514043    7.84475724935742
C         2.93161711235317    3.67633970973802    7.92553279001346
C         4.20896221959935    4.43355290354270    7.81637930793814
H         4.14337143109475    5.35720940757443    8.38802275609882
H         4.43338271865440    4.68291261088105    6.78143187951468
H         5.03710694293550    3.84848076688996    8.21298811370737
C         0.64740210736478    2.02572958515782   10.08193827424854
O         0.86882118204336    1.45000334863425   11.04248232172444
C        -1.26823768383152    2.00539741047384    8.39947762559795
O        -2.28291315483878    1.47828199250311    8.34761548997198
C        -0.70439045057041    4.05696698607272    9.62528391557256
O        -1.32131887887850    4.72405690547806   10.32237940894341
C         1.66570827693987    0.63562946871670    6.95630509829498
C         2.91261275802499    0.51596103232895    6.30107336486925
H         3.25885987484254   -0.33747087958072    5.75554550589897
C         3.59131039176968    1.68491549330324    6.51056565103245
C         0.62888339854263   -0.41549225702204    7.04755054073951
H         1.08619082830075   -1.34367393019623    7.38659761934724
H         0.19090297999207   -0.60773373829325    6.06870222359899
H        -0.15486601960869   -0.13190673901428    7.74656691529181
C         4.94017338529575    2.04250223248944    6.01505947438110
H         5.30263028595246    1.22801738299278    5.39341267136212
H         5.64838589257343    2.18159576928631    6.83000097097263
H         4.92231467716996    2.94801673760199    5.41100448528430
C        -0.41544294816959    3.80567636315308    5.57678005422907
C        -0.62660121021266    4.98825954108525    4.85527545922979
H        -0.83354176323594    5.06543718739706    3.80870259752044
C        -0.53423647422485    6.01922940580605    5.76614841040993
C        -0.46092152330889    2.42420084215262    5.03423061373292
H         0.51958940251182    2.11371442155136    4.67165832758658
H        -1.15253606101205    2.38826959854313    4.19648439018101
H        -0.79379345426056    1.72786350690900    5.80104586608570
C        -0.70566850703395    7.48120326853430    5.61077279743842
H        -0.11494194819458    8.02591990263024    6.34414088584347
H        -1.75308359700230    7.74971949931609    5.75057917898818
H        -0.41238299483521    7.79128295116761    4.61156477157351

