52
CSD_code = AGAYAJ | q = 1 | S = 0 | Stoichiometry = C23H24ClIrN3(1+) | MND = 8
C         6.77500683273421    2.17855805693070   -1.75862838184066
C         8.84330092493085    2.74587331075786   -2.51448457617897
H         9.73784152131790    3.33436910866130   -2.36092352152938
C         8.75578355481618    1.87561763759325   -3.61434255145585
H         9.57915377979630    1.79613406801598   -4.30523227372755
C         7.60997844962167    1.14363221691112   -3.78088811527973
H         7.48723627401484    0.46284271967927   -4.60988237385577
C         6.57357734819190    1.27156756014300   -2.83465554607447
C         5.37033901832815    0.53876149781042   -2.87181328757592
H         5.18835648236296   -0.14696735078194   -3.68505028064940
C         4.47067527161302    0.68888894273076   -1.85478213979449
H         3.55940007896173    0.11559029770184   -1.84533880327958
C         4.74721443092159    1.58054245620953   -0.79943422148812
C         3.91999598036566    1.70656680252896    0.39131789188963
C         2.73616277494672    1.00391255661643    0.61468313399852
H         2.33666344732629    0.35644361455935   -0.14756453050423
C         2.08443435110307    1.13480211512792    1.82531949825647
H         1.16826036968272    0.59909700153321    2.01626334217269
C         2.64480476476720    1.95541607140118    2.79562405979805
H         2.18426518432440    2.07040129047436    3.76302473458471
C         3.81575228077368    2.62860378717651    2.50448946369650
H         4.27762060075961    3.26050350427353    3.24616081065852
C         7.03235645880799    5.44153782778071    0.14440703154453
C         8.04571964955575    4.76844083758860    0.89206153893334
C         7.57887062980546    4.63722643535681    2.25337403172682
C         6.26908847949267    5.18407904559490    2.32518948642033
C         5.90825258309871    5.64854446577261    1.00695142675700
C         7.16318076084446    5.98032632718724   -1.23768756545657
H         6.19776946262669    6.04240438555358   -1.73321832867120
H         7.82406027646689    5.36196941730897   -1.83632613434486
H         7.58074074124215    6.98711121117491   -1.18633367620005
C         9.46080259493703    4.52995754095023    0.48673965712666
H         9.63497853067026    4.86945614983004   -0.52785168485258
H         9.70949604685560    3.47331344831142    0.55333953497771
H        10.12484674041434    5.07363103550649    1.15862869078402
C         8.42470261802601    4.17590245268438    3.38825141414611
H         9.15521450313101    4.94959268640182    3.62892597973339
H         8.96644446265598    3.27158134757716    3.12038425750455
H         7.83138760462933    3.97433624829002    4.27531929061719
C         5.51925177399100    5.48448130746775    3.58115696204686
H         5.68725621405299    4.72488003892841    4.34186748502096
H         4.45172921617096    5.58788199826926    3.40128358081683
H         5.87943270389751    6.43345572757813    3.98225890240231
C         4.70129246923398    6.46502611593003    0.68405125941105
H         4.90524016177821    7.51468687072410    0.90088412068340
H         3.84294706260288    6.16054203181100    1.27842304609743
H         4.43896219756684    6.38502130704281   -0.36778818879518
Cl        7.19107544731167    1.40655167948216    1.65364469127119
Ir        6.24572765930580    3.43030734246857    0.90789996504562
N         5.85230755967921    2.33290551043219   -0.78009428096608
N         7.89157025888783    2.90430740152600   -1.63204947391952
N         4.43467141057324    2.53148453942833    1.33054464831118

