31
CSD_code = AGAYOX | q = 1 | S = 0 | Stoichiometry = C11H11MnN5O3(1+) | MND = 6
Mn        2.32317547386684    1.14451909712553    2.11544994181774
C         1.49821844214252    2.39532727229791    1.12604484325028
O         0.94803988969730    3.18029479183149    0.50996222628698
C         1.14599463476023    1.51165909173068    3.41571740575530
O         0.36629189128913    1.77731409799961    4.21011475465627
C         1.22881024708224   -0.11776741610346    1.44338237802808
O         0.52212047809360   -0.90186890594016    1.01601873405478
N         3.76434403236517    2.40642653028911    2.72751469781451
N         4.85468315354776    2.40322800935440    1.92775807020421
N         3.75060012693996    0.90042700646558    0.69168446432306
H         3.71085042891340    0.31343610398168   -0.14151652379619
C         4.82420047494523    1.58565384355015    0.81405887226662
C         5.99162305745269    1.59254678752315   -0.10560942913027
H         5.84009116290013    0.89327068166946   -0.92441872613395
H         6.90287776624474    1.31799188456132    0.42537681208227
H         6.13635569971712    2.58863950796763   -0.52445488982187
C         4.00767007847681    3.27136522846850    3.69058646969103
H         3.28645564617772    3.47580301060422    4.45991937469005
C         5.28212642662219    3.84537733306921    3.52252156536467
H         5.74496102464114    4.57888627209725    4.14899521283733
C         5.79309007987634    3.27396779763566    2.38988409492480
H         6.73165821719830    3.42469821337902    1.89740433231920
N         3.30786978977504   -0.28773512785218    3.28326629538162
N         3.24213735474253   -0.36902184797401    4.62023531996515
H         2.68229723797509    0.27512219394754    5.16199137501451
C         4.07483840252135   -1.30121479897621    2.89576286682754
H         4.28589116736129   -1.48650500717754    1.85929913328179
C         4.50766578620388   -2.03824983458431    3.99849546059410
H         5.13249448308548   -2.90589500729789    3.99213303636227
C         3.94706880589276   -1.41083436243647    5.08761534845007
H         4.00769853949163   -1.63706244720568    6.13250648263826

