28
CSD_code = AGAZAK | q = 1 | S = 0 | Stoichiometry = C10H10MnN4O3(1+) | MND = 6
Mn        3.60731723014883    2.78686598280052   15.09913272731824
C         2.74933631193450    2.40931772213666   16.63783571266925
O         2.19809797644201    2.13872360606043   17.59801330989611
C         5.05847249750665    1.85451181709159   15.62020553263962
O         5.95778386940789    1.23533078609066   15.94399406584124
C         2.93190460458410    1.27455211547576   14.40142546301058
O         2.51452707337424    0.29857548527726   13.98723414929972
N         2.13357154221647    3.90336030899575   14.28038974811892
N         2.43069653834068    4.37048155048788   13.04596188098224
N         4.40032921275081    3.33326362217103   13.28906551075810
H         5.31102642031173    3.08301556572860   12.90445256183512
N         4.31309385770949    4.40589421806013   15.83046508744190
C         4.75547510432542    5.33594042170973   16.34239612198485
C         5.30511100722617    6.47608541494769   16.99149912622160
H         4.60309808861859    6.84669820074988   17.73948154746790
H         5.50922860880223    7.26601608459266   16.26825445774098
H         6.23570490873482    6.19610832442839   17.48718138282077
C         0.91834612435981    4.32179389760455   14.56095482785918
H         0.44086154590509    4.07958978136350   15.49200462286457
C         0.40424578920855    5.07994629042136   13.49066581657141
H        -0.55819555427529    5.54414346625226   13.43595088165599
C         1.38959921053362    5.08989196215484   12.54288507013129
H         1.41876070355377    5.54454449117855   11.57402122691122
C         3.66704776152575    4.04746077909137   12.52112031784243
C         4.01003277825772    4.53250108644279   11.15872341287364
H         3.95500901002241    5.61979520452701   11.11014843691025
H         3.30848341955960    4.12972819565170   10.42791407901813
H         5.01423435891803    4.22066361850986   10.88182292131962

