61
CSD_code = AGAZUE | q = 1 | S = 0 | Stoichiometry = C29H27FeNO2P(1+) | MND = 8
Fe        3.84535057342800   12.22065073865568    4.30828817868483
P         2.87214416766162   13.41959985466379    2.79853396582923
O         4.84982086823380   14.47897395352424    5.78724058403069
O        -0.12330750658468   11.28244824444885    4.93624582260543
N         1.96408143318735   12.04374913985970    4.98358985844726
C         4.34684503748337   13.62000990947860    5.22617335675937
C         4.99375426039538   11.13613352445249    2.83045396788043
H         5.10772401793709   11.36557363376111    1.78362759098363
C         5.84360433001753   11.57151565944011    3.87756199858807
H         6.74463788596829   12.15105948220151    3.76400229846563
C         5.44190036531914   10.91269119007443    5.07021106511750
H         5.95992266123790   10.94910012598179    6.01324100290120
C         4.32892554659348   10.11402686831913    4.76352165357051
H         3.83732426850735    9.43087986855981    5.43411550942547
C         4.03240759279753   10.26669136655238    3.38542958593716
H         3.31536256252919    9.68591303123739    2.83133365019678
C         1.51250676319989   12.18062146925202    6.37485510862175
C         0.12195068017569   11.50305047561564    6.32465067278159
H         0.10298616381676   10.53594490609448    6.83574062050043
H        -0.67496511171018   12.13454032066193    6.71930863683205
C         0.98192993030134   11.60141261603627    4.27619489839662
C         0.97765652478116   11.41089452634913    2.82762614344158
C         0.13800433566021   10.44957594233938    2.27284936349669
H        -0.50224751290744    9.87186880638355    2.92136566658734
C         0.14121113697991   10.22911432313534    0.90570741063991
H        -0.50529816363556    9.47651727929257    0.48268600855751
C         0.97914562411925   10.96767017031294    0.08677825488006
H         0.99376833704581   10.78612256844500   -0.97678497634639
C         1.80007246350345   11.94689207149573    0.62709735125482
H         2.44621850609507   12.52401606407619   -0.01820157781368
C         1.79747583186145   12.19147057816724    1.99217830745314
C         1.71428084735340   14.72246997000884    3.32646412202107
C         0.33023750653316   14.63999300696492    3.21654061795322
H        -0.13725765799562   13.76823084121848    2.78077658763906
C        -0.45747809842284   15.69054674016735    3.65824666545426
H        -1.53134247039459   15.62538043429611    3.56852313381529
C         0.12566547109150   16.82033659196786    4.20747106209771
H        -0.49466734077063   17.63371011807410    4.55032631753008
C         1.50603371710640   16.91053158278113    4.30841981094639
H         1.96178564979954   17.79425201402824    4.72720280031591
C         2.29755316644253   15.86712266175816    3.86916147422180
H         3.37552807703686   15.93038898413685    3.93351118154039
C         3.76954122517101   14.29215963927544    1.48842317403569
C         3.06702597055874   14.96916101846856    0.49189684385744
H         1.98522216705504   14.95218732607358    0.49031083585529
C         3.76030964121321   15.66499806218357   -0.48032420249623
H         3.21982571846250   16.18439274786816   -1.25680783739333
C         5.14680984187066   15.70393648890124   -0.45380716294327
H         5.68272126479484   16.25081268727200   -1.21393782119391
C         5.84439748075974   15.05528526195327    0.55225639399823
H         6.92221600617300   15.10220981337455    0.57983225297760
C         5.15763186241644   14.35087895459895    1.52583706380447
H         5.68376066296000   13.85290161393874    2.32797214202929
C         2.48054461856910   11.49199694410142    7.32706998161162
H         2.52532844579590   10.42454167960559    7.13227419855355
H         2.16104529243118   11.64513984273622    8.35338982553412
H         3.47339156950187   11.91650880406006    7.19743952035488
C         1.39041800458094   13.66632459976295    6.71577766550416
H         2.35758845043202   14.14956340193245    6.62380375715929
H         1.03726444709249   13.78057183279638    7.73654689753895
H         0.69380488838282   14.16033762682641    6.04208071897104

