69
CSD_code = AGAZOA | q = 0 | S = 0 | Stoichiometry = C30H36O2Ti | MND = 10
C         6.71031148962725    7.89413171100020   20.39550127168696
C         7.21854671615649    6.92501493105508   21.24264128622820
C         7.08089027695485    7.35452557635219   22.63062119326928
C         6.68502232976921    8.73309116328117   22.58803352282697
C         5.89590721173052    9.55541248747626   23.46650780596779
C         4.92482298536034   10.17740796075319   22.68659178320665
C         5.05962785221474    9.75913622804943   21.30150133875663
C         6.25264448034799    8.98411877734929   21.22314704871561
C         6.55608885203467    7.82144805824147   18.90687354650515
C         7.88193264093219    5.63787400477502   20.85048769542840
C         7.74806350202071    6.66577636462287   23.79054425353325
C         6.07254577832896    9.65867381670020   24.95265827094522
C         3.93856265441466   11.21524970569679   23.14016894349113
C         4.31635208161864   10.37126531491731   20.14714770901286
C         2.96989091778664    6.06944843277646   20.94065541557284
C         3.01001460474193    4.71975911411822   20.55034675569175
C         1.83507488339861    3.98411899250618   20.54023839710659
C         0.62804680986073    4.56070772483786   20.88705302110515
C         0.57977434945598    5.90737775507005   21.20305146298293
C         1.72991327645681    6.67669671558952   21.21899462558358
C         4.30808082509088    4.09688214919136   20.11918893922266
C         1.68422137483641    8.15511952482671   21.47566683113911
C         3.13230049959780    6.49435421599366   24.10726686759489
C         1.91747819042092    6.95250311109514   24.64490206329222
C         0.91814510369013    6.03567778361287   24.93312850937120
C         1.10660842436100    4.68355666614150   24.71953767676935
C         2.32930306134988    4.22794101934023   24.25740901826235
C         3.35323520174243    5.11101967046601   23.96279855352398
C         1.72398041293991    8.41470641556775   24.93515507713713
C         4.71233040821185    4.63216268688964   23.54188301855320
O         4.09467834293717    6.77625681210602   21.03933361714447
O         4.07765135683244    7.36156136758809   23.74337941764748
Ti        4.88914850349719    7.70713223021369   22.25844173666738
H         6.59382134817447    8.81998173702824   18.47384378651131
H         7.34611693629083    7.22229308041465   18.45613669282364
H         5.59382952316904    7.36890941113333   18.64468457591091
H         7.44684501180957    4.79085280847812   21.38321490676027
H         8.94521687035118    5.67456331035133   21.09749302345898
H         7.78466663393407    5.45591705454958   19.78281663854023
H         7.23387495287925    6.89872940534346   24.72497832542882
H         8.78663938461157    6.99680382009406   23.88457550107822
H         7.75624166745879    5.58491688700718   23.65397021534066
H         5.80576499654156   10.65163797623231   25.31406271876838
H         7.11006619740364    9.46573639420712   25.22223758336458
H         5.44024195224260    8.92675234501551   25.46785685516572
H         2.92938198341677   10.98406888049084   22.79529571177713
H         4.21208206846012   12.19216177015371   22.73462687562493
H         3.91961707642607   11.28950591972070   24.22533381768109
H         4.86585616048988   11.23252928415994   19.75608425025736
H         3.33016347023231   10.71884473038324   20.45269024175011
H         4.20055407053983    9.65016319815482   19.33615386564727
H         1.87451933937143    2.94277797723717   20.25326209915472
H        -0.27543338529692    3.97025380084261   20.89062570937122
H        -0.36747271972729    6.37168265702170   21.43756819407418
H         4.23146105979499    3.75771264668723   19.08591637572199
H         4.55102081845335    3.23225358372535   20.73502007693784
H         5.11425950541078    4.82655421053136   20.18814378639229
H         1.74355453260813    8.69117459605604   20.52451602603485
H         0.75444648736358    8.42945160393068   21.96853351192895
H         2.54272617576100    8.45978708878539   22.09407302164468
H        -0.01989377256311    6.39484492612042   25.33226989755175
H         0.31287784608475    3.98386796193152   24.93237586980779
H         2.49368981164134    3.16798582551417   24.12608779994411
H         0.81545885576896    8.79044979748424   24.46755074520242
H         1.63227835203177    8.56886674332697   26.01086325877851
H         2.57955892484436    8.98541304542303   24.57487355253647
H         4.67267654838215    3.58862723981468   23.23846840953480
H         5.40614422933638    4.72385517956969   24.38193994932303
H         5.09525168759610    5.24976461488104   22.71549945621079

