54
CSD_code = AGEBAS | q = 0 | S = 0 | Stoichiometry = C22H28Cl2OTi | MND = 8
O         4.74767068918757    3.53841824802200    4.14660961498978
Cl        5.04847647184769    6.43053702567799    3.49732417625042
Cl        2.16825836871588    5.05607300435621    4.16610163008124
C         3.40625974690893    5.77006046625272    6.88014160801557
C         4.60984688713526    6.46265149985360    6.58638873299892
C         5.70533955134520    5.53326813238178    6.55401100063344
C         5.16494720380459    4.25971348410025    6.82817579172243
C         5.56928224992468    2.84418156317901    7.14199084471998
C         4.21205672440953    2.18903115985993    7.37379726524790
C         3.20075305068064    3.08308609990578    7.32534254173419
C         3.75535628846877    4.39453498928633    7.01372531052290
C         2.07017655118498    6.39892934356780    7.14881183694251
C         4.76696141935127    7.95050569514041    6.46809377546647
C         7.14645084309044    5.91271905628620    6.38091715364149
C         6.44681534553578    2.78716414567146    8.39906338610847
C         4.13837261646418    0.71622173816844    7.59105834370552
C         1.73360143309245    2.85684669294562    7.49685490206181
C         5.21747563606507    2.36947622479184    3.73501967031550
C         6.58162545331289    2.22484469062166    3.43163636895746
C         7.04241432492201    0.98239347200245    3.02248290581688
C         6.18220145779174   -0.09567523544671    2.91330689900280
C         4.83638202149681    0.05721967928356    3.20629253413136
C         4.33440781824565    1.28039626643076    3.61426952348441
C         7.49987470504095    3.40429461767724    3.56693853087866
C         2.88791366116089    1.50496922257582    3.92864329129358
Ti        4.23096777557007    4.93696536561234    4.88510679766383
H         6.09718054686325    2.34633324198455    6.31793066181358
H         1.26741908045496    5.68060595310084    6.99796838040097
H         2.02851054748339    6.75622609137921    8.18127559856051
H         1.89503504199146    7.24799587564169    6.48784032028632
H         5.50752996803101    8.20130926621961    5.70894997794292
H         5.09855599177570    8.36910691040618    7.42179591525187
H         3.82383043374214    8.42338577382542    6.19805184029372
H         7.77650023204729    5.02545087238190    6.36491726562038
H         7.46745624740615    6.55141903256652    7.20641982008378
H         7.29285356734962    6.46442734731472    5.45058940165760
H         6.67477997805612    1.75635288474155    8.65833620993648
H         7.38135309836649    3.31768607766737    8.23388831263543
H         5.92603080702368    3.25398922944180    9.23230196900383
H         3.10989341156972    0.36716785719836    7.60489968292788
H         4.60377410103942    0.44154425249685    8.53817658837174
H         4.67082971970403    0.19599191316508    6.79405709588301
H         1.36687627869616    3.41787123760255    8.35631517001362
H         1.50517240597713    1.80548484992532    7.64943454189114
H         1.20340262335706    3.20906001642574    6.60975672716525
H         8.08974984699923    0.86436307916189    2.78509816890369
H         6.55844078351042   -1.05544070527508    2.59314104220477
H         4.16502708512559   -0.78393275904422    3.11256995768226
H         8.25069114228634    3.39443613531205    2.77991322332220
H         8.01813993589935    3.37081754567140    4.52714857538127
H         6.93165179040153    4.33772851224713    3.51131558760044
H         2.31928829901866    0.58465666400931    3.82608594024046
H         2.78259198100257    1.88557547641217    4.94783015326982
H         2.47254676006615    2.25786071982288    3.25378743527305

