69
CSD_code = AGEBEU | q = 1 | S = 0 | Stoichiometry = C34H30NOP2Pd(1+) | MND = 4
Pd        1.24255746741007    5.62907055720074    7.01483751371031
P         2.31810649274329    3.64002906980921    7.22425725514512
P         0.31745611911940    7.62643320831043    7.49865540484267
O         1.94656397394668    5.62620952694330   13.15484704962819
H         2.61296442640207    4.99426113428570   13.45161158129818
N         0.88997542387150    5.64935342907786    4.95518357433435
C         1.50579500560712    5.63126221526457    9.02438804364123
C         2.43715017144168    4.77990105283253    9.62452477810240
C         2.59073876810395    4.76488452809636   11.00404763405721
H         3.31352907705161    4.09799475560150   11.45563073493130
C         1.82841463670684    5.60187732850514   11.80866788219511
C         0.90225295660865    6.45491585690643   11.21752859934475
H         0.31621900837387    7.09896389185692   11.85368219466887
C         0.73585570872958    6.46656406844049    9.84330397631687
C         3.28575741975723    3.87614549256315    8.76582818407366
H         3.50739022627934    2.92484507987819    9.25953425983407
H         4.22954893354865    4.37697654413873    8.51702820998324
C         3.30962010947583    2.64802255826243    6.07815785091012
C         4.63106256551867    2.28692433147291    6.31122147804498
H         5.13268540867414    2.59647425630593    7.21624506547727
C         5.30595069018768    1.51998481959941    5.37656180325628
H         6.33069044684047    1.23389029080918    5.55919203857847
C         4.67241199508305    1.11936435106709    4.21212110916006
H         5.20437059110559    0.52140310884079    3.48833132940322
C         3.35649156026498    1.48683133424560    3.97263627381710
H         2.86456685751604    1.17402882584960    3.06391726265809
C         2.67808923246743    2.25241378103804    4.90000440601487
H         1.64920420020090    2.54922502448228    4.72935085013755
C         1.00370934899677    2.49144980779560    7.73140618793690
C         1.28132545107767    1.17395883672864    8.08057596440965
H         2.29722689830455    0.80663013273626    8.02588311177247
C         0.25587731404963    0.34074387088733    8.48803188084500
H         0.46958102992547   -0.68108764669366    8.76238905160198
C        -1.04529829729145    0.81579569257738    8.54319999038724
H        -1.84233454944943    0.16238086636668    8.86311471900209
C        -1.32806169773151    2.12432266812618    8.18417677792902
H        -2.34488474980745    2.48548127219176    8.22338989559268
C        -0.30695021789086    2.96330583329891    7.77537802170403
H        -0.52321055845808    4.00386693485796    7.48142233390631
C        -0.28255355377656    7.38589522705554    9.21687106901790
H        -0.37561478047318    8.33296169985229    9.75605358821323
H        -1.26940218134014    6.90862398435950    9.18471764141622
C        -1.02729485370353    8.42294353274997    6.58408615360711
C        -0.99739807701689    9.72810170897418    6.10934176451630
H        -0.13847502013795   10.35554742484360    6.29801046281302
C        -2.07489530673617   10.21572383251676    5.38890241849068
H        -2.05883129526354   11.23196283365685    5.02542220376435
C        -3.16905869835936    9.40590903123221    5.13133972800860
H        -4.00553903225402    9.79420200893802    4.57088909364190
C        -3.18899999966892    8.09364767201392    5.58171114982143
H        -4.03769151476132    7.46105884598170    5.36910968388418
C        -2.11715688862131    7.60091423519362    6.29955928575123
H        -2.10445519117932    6.57036344791249    6.64456884447063
C         1.69477038213894    8.78822044799971    7.67620692084431
C         1.57122196507685   10.02957708969696    8.29269291828340
H         0.61026967289757   10.35685036735948    8.66558545399705
C         2.68441939541674   10.83845548713832    8.43312965079427
H         2.59179997574318   11.80138012542026    8.91204936331968
C         3.91809429438123   10.41266057349521    7.96588486833806
H         4.78338159643996   11.04708758890914    8.08139979041725
C         4.04682292045075    9.17386470088062    7.35712179493613
H         5.01172169390348    8.84603810459974    7.00055773602713
C         2.93822389084293    8.35978732459281    7.21154798238461
H         3.03067303325336    7.37189037532066    6.73269699740625
C         0.54775524279985    5.84666495689956    3.87735618552401
C         0.13190311743429    6.07549058013333    2.53463628094289
H        -0.53955441382531    5.27773232884520    2.21672371484943
H         1.00261664263631    6.09398576768935    1.87893567312670
H        -0.38875245985821    7.03126000518230    2.47072730275752

