75
CSD_code = AGEBIA | q = 0 | S = 0 | Stoichiometry = C36H28N6O2S2Zn | MND = 5
Zn       11.18785665533330   16.53293931193923   13.95992471230653
S        10.02893973153808   17.00856950861631   11.94647465063108
S        11.37709159490093   14.27934632951166   16.08545925938991
O        10.86535340413590   13.93764354143879   17.38554137769091
O        10.77976907407163   13.61567502313313   14.95081133433071
N         8.50552608242041   19.13161398274560   11.25722256567074
N         7.95724180671543   20.27524174049241   11.72780158548533
N        10.61238406282751   18.25789639188840   14.96007551425438
N        11.33472978483052   15.85071711358855   15.76219819185869
N        12.24593116500132   14.93395083551508   12.96514733506280
N        13.29815488227877   17.22985969240009   13.88643493908843
C         9.28535049066612   18.52744690549175   12.19518227691111
C         9.22899763557270   19.35505699845094   13.33997382483363
C         8.36924067470277   20.43072556502392   12.95636928939359
C         7.96191202350852   21.60243945129752   13.77427370437446
H         7.32186112343349   22.24609725298820   13.17800256863212
H         8.83549162825983   22.16722374920611   14.09729727701466
H         7.41566654977805   21.27736270919911   14.65903587389929
C         9.79108151588363   19.19781710215801   14.61989527133351
H         9.46776543840259   19.93191687237181   15.36187425422990
C        11.09094352791892   18.15052681015590   16.26348493357399
C        11.44219912443521   16.84589756095096   16.69016388414196
C        11.88168057397128   16.66698880045105   18.00243057105967
H        12.09122117815002   15.66742197268770   18.34822290156126
C        12.01511147186612   17.74884219687893   18.85164115704797
H        12.35589169951609   17.58945640794187   19.86415727257650
C        11.73345463170254   19.03275301937696   18.41112801770202
H        11.86899629064050   19.87807240729164   19.06908892532486
C        11.26698406990744   19.22838885289400   17.12435673889902
H        11.05513135510978   20.23141452751618   16.78049500781173
C        13.11634109189169   13.79736158736639   16.06828420371836
C        13.40704061621037   12.48397233537832   15.75564477392765
H        12.59049089610696   11.82474320134001   15.50600806485873
C        14.71986450068535   12.04527431822816   15.76353387840771
H        14.94399356288933   11.01632082849769   15.52102216210543
C        15.75270129190006   12.91455815571652   16.09292754319796
C        15.44181868735279   14.23376184356396   16.40655761311129
H        16.23601241292709   14.91836856892630   16.66961076167391
C        14.13107639780277   14.67743488621807   16.39263820573182
H        13.89588595975935   15.70236602511230   16.63812457199480
C        17.17639551750437   12.44777283932947   16.12798939578735
H        17.27867583641002   11.46930828413449   15.66595561289037
H        17.51887207941619   12.37511802090566   17.15998643512258
H        17.82473077197577   13.15354513256079   15.61199129167251
C         8.17779879535881   18.74519722098044    9.95049620390763
C         6.93861513859999   19.13943259749817    9.45087196212995
H         6.28051585508215   19.71040500637973   10.08617819221048
C         6.57493658907496   18.80543094295269    8.16126799479571
H         5.61120220856402   19.11080666651114    7.78122958235152
C         7.43958299566319   18.07812693172314    7.35952952428624
H         7.15223458926359   17.81237576436476    6.35298220556778
C         8.67637155761819   17.69983434582138    7.85323153273547
H         9.35978987054897   17.14395330813788    7.22837966778347
C         9.05546163939098   18.03387152016582    9.14094778951815
H        10.02302137968955   17.74673912738163    9.51530260752213
C        11.69926024953526   13.82305346213334   12.53138236883131
H        10.63010314603436   13.83745354821504   12.38736935052606
C        12.45106141515405   12.67666029085564   12.24659054222947
H        11.95108516707932   11.78450762784520   11.90525951679566
C        13.81293823807513   12.71018646555740   12.41192226757811
H        14.42663684640091   11.84559573930632   12.20263883348035
C        14.42088278264051   13.89789600162383   12.85415821004430
C        15.82662077492394   14.04121617221709   13.02442179977365
H        16.45643507563828   13.19491297678768   12.79326423400272
C        16.36154499621036   15.20615060718628   13.46205820830567
H        17.42908764737662   15.31514016300192   13.58593136568888
C        15.53340219135351   16.31984288021456   13.78020150462988
C        16.03781548495742   17.53539255793639   14.27033065306889
H        17.10195507587531   17.65117748740445   14.41901632210286
C        15.16391852905427   18.55708503183549   14.55220395165716
H        15.51417115874547   19.50381172455038   14.93183514218263
C        13.79664418896225   18.35852990601142   14.33711664391550
H        13.08797237474715   19.14866886583511   14.53728136866831
C        14.13399599527443   16.21709479184981   13.61423141498816
C        13.57187917277358   14.98824160682982   13.13632930844501

