73
CSD_code = AGECAR | q = 0 | S = 0 | Stoichiometry = C22H40IN3O5PtSi | MND = 4
Pt        5.86250560537212    7.18074903220534    6.87565749500205
I         4.20444644083551    8.35627864309561    8.51622059716635
Si       14.17480327476489   -0.95780709773950    2.43308352770227
O         9.65915256342765    4.43321382652808    3.01180476911002
O        11.46520983988762    4.46541431821512    4.40249514134921
O        13.26327584134770   -1.34926985122971    3.71290068116814
O        13.41171741945100   -1.50288041232601    1.10874100478597
O        15.65031012295766   -1.66510382942190    2.43316770107774
N         4.52953923500962    5.76597669013660    5.99033874753157
N         7.63649425942965    8.26947040608066    7.32408501672706
N        11.60495032327169    3.69731466833554    2.26662048772242
H        11.03698429625787    3.44334741435356    1.47299850462642
C         7.09254902224600    6.30862371090251    5.64407634520358
C         6.69249674443285    5.15352813111793    4.98943213580967
C         7.56872666651005    4.52865299788584    4.11880662710549
H         7.30189286612035    3.62541248972487    3.59060108076201
C         8.83245428793894    5.07939931529001    3.92653791515744
C         9.23577106866698    6.24094575000288    4.57405122542877
H        10.22292914896534    6.64031497327643    4.40210671761875
C         8.34976575422155    6.85595330440308    5.44334837931300
C         5.32231810326705    4.66353169084264    5.37890467157464
H         5.44070949195558    3.87499845650539    6.13033962902727
H         4.77069092966437    4.23729640343097    4.53028010413495
C         8.59059342891690    8.14268932250360    6.18744866438101
H         8.41330903502772    8.97839156165168    5.50115416404879
H         9.62088426173300    8.22392168348544    6.55715771610447
C         3.49695341941655    5.19577635172423    6.85566783447462
H         3.96117905366023    4.70310825091509    7.71111565822483
H         2.88787934435576    4.46704737948157    6.30825997698867
H         2.84440201715474    5.98435859080419    7.22699257714373
C         3.89207360283081    6.55050966512021    4.92799944018034
H         4.64886299219762    6.90427573978474    4.22557811390149
H         3.37578285140871    7.40999378330361    5.36088148209101
H         3.15990995681594    5.94271192207727    4.38193180464312
C         8.16778211230401    7.54268307544558    8.48234841338410
H         8.38584016956890    6.51064281294463    8.20235818780453
H         7.43479229064105    7.54842725045377    9.29228428651619
H         9.09104289279746    8.01131524130794    8.84406381167972
C         7.48172423369528    9.68258463706841    7.66924709316484
H         6.97838383241323   10.20946810612307    6.85725963231982
H         8.45722407245284   10.14864774981960    7.84952162737223
H         6.87743964625668    9.78280901342974    8.56947158380603
C        10.96317613430846    4.21495603312847    3.33752462362791
C        12.91840200527242    3.10307797381390    2.37267402839210
H        13.34095084088575    3.45081495622552    3.31751850912477
H        13.53980261827525    3.47022646234023    1.54896394148656
C        12.85642314515064    1.57514251787616    2.34901074937940
H        12.41352815604368    1.24447984826289    1.40685690237818
H        12.21197975567206    1.23171312916388    3.15821474612613
C        14.23614618112534    0.94437227483175    2.51280444809622
H        14.65675310522670    1.28207552432933    3.45969401572150
H        14.89578417299527    1.32130209119836    1.72859263961759
C        12.67624215719539   -2.58719127915406    4.04617493501090
H        13.46566962024547   -3.32963486975734    4.21358309323747
H        12.06084801148874   -2.92767356962594    3.20760489449982
C        11.83017215435680   -2.41718868318803    5.29830889050820
H        11.36409669823770   -3.36218625306195    5.56360446635258
H        11.05752689294937   -1.67377584704425    5.12315317024941
H        12.45063480269175   -2.08032640689556    6.12451010129166
C        13.75074787465736   -1.36782206636915   -0.24912582583853
H        13.99153470186920   -0.32021526679944   -0.46359950075829
H        12.85401381804429   -1.64387910637852   -0.81480242616819
C        14.92000346159047   -2.25820874982357   -0.64019134229591
H        15.15785292756832   -2.12169101791858   -1.69174814111362
H        14.66772994216084   -3.29974101076435   -0.46172013172335
H        15.78306215829735   -2.00491368226042   -0.03235837252417
C        16.58335399338030   -1.73097785518072    3.48498296535386
H        17.14952905172723   -2.65683527143059    3.33580407911504
H        16.05777527015724   -1.78911091999378    4.44402552741259
C        17.52511422593059   -0.53520687129494    3.47941233123014
H        18.27193992450048   -0.64920062009281    4.26036379412917
H        16.96500917985301    0.37940439220213    3.65103055811064
H        18.02544449831171   -0.46120902536487    2.51739175671550

