39
CSD_code = AGECOE | q = 0 | S = 0 | Stoichiometry = C18H13Cl3N3ORe | MND = 6
Re        6.63410470647230   13.91756704322926    3.08555677656703
Cl        4.91667498748731   12.82657150897862    1.90832519601463
Cl        7.69751311506680   15.48773737381310    4.46793462754565
Cl        6.03330703381542   12.75590988089044    4.94789623273190
O         5.94050350140104   17.10977520120480    0.48451665387486
N         4.92071902776387   15.34428619347593    3.44902346951983
N         6.74226959529442   15.30068365615326    1.52954503973093
N         7.99683287877728   12.91710765530366    2.62498529119808
C         4.04035810283150   15.30385622900660    4.43552690025952
H         4.16692455488882   14.49753666971161    5.14788935763030
C         3.01673779327659   16.23033175209998    4.55744071511644
H         2.32268997213453   16.15597955783481    5.37850541934750
C         2.90530949726887   17.24289961367251    3.61192310635049
H         2.11766285198198   17.97748690443946    3.68325287334747
C         3.81836341569076   17.29557103978087    2.57755372765292
H         3.78300320342063   18.05640498172161    1.81470264701111
C         4.81756587542584   16.32262649710843    2.52872901379699
C         5.82628913369054   16.25211226555078    1.51490141425589
C         7.53497335633581   15.53227038964411    0.43034574901174
C         8.64974655795634   14.87327280433375   -0.07070201030116
H         9.04325093049118   14.00496105226137    0.43103295243330
C         9.21362440325129   15.38460297909191   -1.22223176949199
H        10.08136748641782   14.90140329569327   -1.64369128297532
C         8.69291320571136   16.51224910486926   -1.85941040222051
H         9.16847976222374   16.87344144678955   -2.75803579844661
C         7.58508261015011   17.18081509778816   -1.37154334587244
H         7.17881375667188   18.05227838240635   -1.85752062255738
C         7.01874673507827   16.67093144552088   -0.21757031610872
C         9.01298173499191   12.11530336805553    2.32642618504127
C        10.25291858253108   12.26567345205514    2.98152086035177
H        10.34590397044454   13.04700470974621    3.71975092940876
C        11.29461937395032   11.41800998268935    2.67662005630596
H        12.24071600961611   11.53157072101515    3.18411045806750
C        11.13475441601655   10.41934498070769    1.72455469293984
H        11.95711807746818    9.75982169217435    1.49270709918544
C         9.91782794685340   10.26450784319291    1.07296664526009
H         9.79669283052394    9.48408863843145    0.33680485668072
C         8.86023913747417   11.09816834874203    1.36124171388025
H         7.90169986915212   10.99653624080963    0.87621488745176

