46
CSD_code = AGEJOM | q = 0 | S = 0 | Stoichiometry = C20H21N3OZn | MND = 4
Zn        8.61259129402545    4.60205053083539    2.31511852904177
O         7.68234154824780    3.36870806619792    3.52043661653161
N         9.82519413902817    2.97132615916881    1.77052728651521
N         8.55984940178635    3.71424200264095   -0.59420527050615
N         7.78687656741787    4.22972071696227    0.37373188693821
C         8.08108918540082    2.27361939270135    4.03939975997232
C         7.35092425354607    1.72402142525216    5.13296883620080
H         6.49251412244347    2.28453397062576    5.47300981501150
C         7.71467316334123    0.55710536251886    5.73986993022602
H         7.13836481694318    0.17949816628098    6.57308918229003
C         8.83158179609876   -0.16401896389322    5.29364661837728
H         9.10987958759870   -1.08650457608769    5.78016084699311
C         9.55391672159853    0.31455341186031    4.23805380274279
H        10.41567437992076   -0.23407143952100    3.87981771572489
C         9.21923210035036    1.52134135568462    3.58562855296268
C        10.00405497148445    1.90143819111175    2.47343698675478
H        10.77914600761820    1.18802062365119    2.16381125836503
C        10.60098661490977    3.26805717666648    0.66678563363324
C        11.99516290725500    3.20965822893462    0.68927724285440
H        12.48479630782343    2.87876285260395    1.59350577853482
C        12.73927518974152    3.60815906022287   -0.40372689512248
H        13.81712033832057    3.56389440380254   -0.36214288899721
C        12.10697010414846    4.07713889103760   -1.54353684702849
H        12.68635832141656    4.40733250400043   -2.39152904493543
C        10.72507351753991    4.12976665907994   -1.59154708347998
H        10.22833643742777    4.50833375512597   -2.47131215699738
C         9.96581658731667    3.71764525626663   -0.50582051141622
C         8.34644507976394    2.48306371197161   -2.77386900989192
H         7.64555953692182    1.71484643214738   -3.09229024628291
H         9.30511170854835    2.02121880625878   -2.54666724795971
H         8.48531352315367    3.17359696659729   -3.60594872238089
C         7.80032657895064    3.18370997619307   -1.58305202682993
C         6.48452066010887    3.38623825274608   -1.21911428916646
H         5.61404612210590    3.08739227946158   -1.76644676011832
C         6.52665349484603    4.04528603019119    0.01658115046775
C         5.40896994560362    4.51030342635648    0.87381449916583
H         5.72562979600251    4.49638561361040    1.91539228600567
H         4.54029937596618    3.86954673721324    0.74480481623465
H         5.12905342754170    5.53019508333887    0.61041386178357
C         9.34897621143809    6.45781844326259    2.52216325534142
H         8.56772373731473    7.19796277575208    2.69974585450680
H        10.01975047768249    6.53442587907827    3.37954035087770
C        10.13176251365794    6.90078552729760    1.28152684636176
H        10.97435244765131    6.23877381081061    1.08562328787896
H        10.52543221117452    7.91067502364660    1.41630549308462
H         9.49667276881380    6.90584204033699    0.39752101973597

