126
CSD_code = AGEKAZ | q = 1 | S = 0 | Stoichiometry = C66H55P4Ru(1+) | MND = 7
C         8.89281342036845    0.89718413609167    6.89237741235160
C         8.96396920932624    0.45940988384597    8.21203280587599
H         8.63996584532745    1.10092653933666    9.01969681319401
C         9.46232239039674   -0.79791126212448    8.49679588813408
H         9.50803980282449   -1.13574848390497    9.52120713694799
C         9.91284000249991   -1.61869261357880    7.47476994674557
H        10.30135088889739   -2.59944805400614    7.70243001452292
C         9.87843247225693   -1.17292711276373    6.16445108531486
H        10.24833681405904   -1.80072702624549    5.36712022625731
C         9.37306976049159    0.08181241186943    5.87241511160231
H         9.35037943454948    0.43024661962728    4.84807224402572
C         9.87398974642424    3.41458161402387    6.97832278474502
C        10.95882360176847    3.21318304572319    6.12615546603141
H        10.82624952605781    2.60559000703682    5.23798683988604
C        12.18733631162142    3.77258343501657    6.41747064551453
H        13.02485684894173    3.61144030995530    5.75542368625549
C        12.34207587965543    4.53620910566924    7.56421337583360
H        13.29982073017910    4.97709533506125    7.79397535766267
C        11.27107346623036    4.72527841970686    8.42078398799629
H        11.39624716069158    5.30902258954310    9.32041990930697
C        10.03731956219635    4.16513880101491    8.13500137006587
H         9.21447987553196    4.31164644429653    8.82039684216728
C         4.58124692970931    4.40903356432666    7.21165973964682
C         3.98052830776166    5.30683199030392    6.34108085234306
H         4.11079992775113    5.16637164414806    5.27529291021467
C         3.22240878039193    6.35367274962334    6.83263844392105
H         2.74947990081217    7.04568118224051    6.15207471507072
C         3.07161066316850    6.51121473157018    8.19959534846575
H         2.48518925362595    7.33018242496262    8.58696771571621
C         3.66651192072132    5.61409414230757    9.07391414639944
H         3.53976695825779    5.73495140911182   10.13929861240269
C         4.41568332172088    4.56118300903003    8.58569655016906
H         4.86420744133378    3.84927054846531    9.26499572880750
C         4.64076960626851    1.59246158556012    7.12432591380152
C         5.32500314298941    0.40067630249465    7.34646643597134
H         6.39548869330099    0.35569650271077    7.18303374310931
C         4.64441888916453   -0.72235208034211    7.77406028030843
H         5.18491586823486   -1.63805639258801    7.96071895174340
C         3.27153646161440   -0.67222457560802    7.95393739463035
H         2.73886536937728   -1.55077883895826    8.28389771970158
C         2.58309723606094    0.50476853956185    7.71108567112070
H         1.51310134659993    0.54329824894755    7.85079296893820
C         3.26135370303703    1.63744411225145    7.29838278335312
H         2.72396619797744    2.56072969200944    7.12776525120430
C         7.03175887949967    3.01472484643310    7.72854636914588
H         6.92500290983939    2.32498312977917    8.56950269133212
H         7.18272929727516    4.03660796560167    8.09071784073925
C         6.03561931964511    3.07238434576064    1.27116481877698
C         7.08362680972987    3.69790663696268    0.60137507414293
H         7.53644650555337    4.59414544162015    1.00525804124625
C         7.56569529768113    3.16101172179652   -0.57810691777491
H         8.37528047725566    3.65092198170441   -1.09801119220604
C         7.02677512892683    1.98896478969659   -1.08247489282857
H         7.41546151557815    1.56854909033442   -1.99707220896148
C         5.99970831530787    1.34994642768064   -0.40660585823121
H         5.58653235845691    0.43078040635290   -0.79352465307583
C         5.50842791094953    1.88333392110489    0.76999864966621
H         4.71176601499564    1.38429646847828    1.30803793477296
C         3.67896685687818    3.52411066615830    2.80616395408788
C         2.95472779370900    3.10189767786731    3.91362716638808
H         3.48851055703353    2.80874773546766    4.81313110524083
C         1.57333793100427    3.05857749089104    3.86432866393533
H         1.01215325235632    2.72328242636417    4.72381603514479
C         0.91579890707579    3.44171422505208    2.70673382297908
H        -0.16196826722095    3.40537280662350    2.66285441568733
C         1.63657838604114    3.87159168535366    1.60185580198051
H         1.11853109171356    4.17141572136071    0.70345425638963
C         3.01729052048502    3.91442442250987    1.64505250958479
H         3.58759623181111    4.23968656687312    0.78538871953241
C         8.63655230388080    6.07152753090343    3.52322173201256
C         9.89078730251331    5.56987326345401    3.84632754650665
H         9.95758705213643    4.70948531143954    4.49836979437251
C        11.03024623678095    6.16762432610359    3.33873488514933
H        12.00329496378630    5.77367803703523    3.59214717312124
C        10.91762897211434    7.26902065326738    2.50653441279263
H        11.80380912909470    7.73448204959043    2.10280478426368
C         9.66710797659796    7.78270721984548    2.19711176960840
H         9.58338589304395    8.64952992851501    1.55879410963910
C         8.52559982024807    7.19437045503682    2.70901398798053
H         7.55444222615728    7.61324679258801    2.48372780992112
C         6.82940278395498    6.57122091865284    5.53361628698276
C         7.54416221843926    6.43763622534634    6.72008655513234
H         8.25425300102487    5.62174180506237    6.80318674020620
C         7.36379625138888    7.33705446895576    7.75168776244685
H         7.91878569348609    7.22862057232968    8.67193820715104
C         6.46989305207341    8.38535482705960    7.59843068905477
H         6.31766810178959    9.08702856739893    8.40403328308630
C         5.78307951720127    8.54194326377274    6.40663388855357
H         5.10378622946569    9.37195116756425    6.28236746850469
C         5.96128564628855    7.64205751351035    5.37022276885427
H         5.42288097078939    7.78413224353129    4.44446320920000
C         5.84179535104749    5.42885596366999    2.99935635380788
H         4.96152361215072    5.95739097283883    3.37628895294106
H         6.15108714643316    5.86809589003566    2.04809566232158
C         6.55402748932179    0.77645524344556    4.12399838452880
C         7.51821592364986    1.24136941234722    3.45984755484996
C         8.29975635047216    2.32492659164445    3.17927248250257
C         9.29855289852432    2.55708730472631    2.32728772387321
H         9.77924596328731    3.52706944251070    2.31041988160943
C         9.78387624041074    1.59414794672990    1.34993442432212
C         9.20333005197980    0.33578440873189    1.18468311666175
H         8.37125141973456    0.04365762589348    1.81429612079524
C         9.66800991797687   -0.53339281658862    0.21920622663211
H         9.20472198553553   -1.50218353491431    0.10254009697755
C        10.72304991470610   -0.16552005914317   -0.60119111741257
H        11.08445221843475   -0.84635330213632   -1.35666848698832
C        11.31006792370647    1.07994973336176   -0.44724281877925
H        12.13250921722056    1.37115493020192   -1.08359057342088
C        10.84598408464166    1.95247272797668    0.51736036572178
H        11.30506163455319    2.92476449294198    0.63296872965560
C         5.72571167918571   -0.34900231817526    4.41195029297661
C         6.29958322871067   -1.56222729746932    4.80229759020245
H         7.37388031572471   -1.63886991757061    4.89091163737712
C         5.49402051353437   -2.64908165017823    5.07726568532377
H         5.94408072972752   -3.58400385805291    5.37691317993997
C         4.11584061607734   -2.54599318892082    4.97071560121888
H         3.49163607414360   -3.39876437574542    5.18962664459228
C         3.54150989452413   -1.34794110408070    4.57760382630838
H         2.46874079025244   -1.26498827063340    4.48572520748258
C         4.33734973080400   -0.25499224420155    4.30132422340530
H         3.89172895246905    0.67839396878345    3.98617202495630
P         8.32846430503673    2.58554400537883    6.47475608825417
P         5.58188116574824    3.04128318052687    6.55160367809309
P         7.18156095424763    5.28982886648719    4.28564724774065
P         5.49007667253162    3.60529797019008    2.91644466583439
Ru        6.91808301945261    3.02197288333169    4.64821148596844

