124
CSD_code = AGEKON | q = 0 | S = 0 | Stoichiometry = C66H50Br2N4OPd | MND = 4
Pd        9.34426441988163    9.06267149557086    3.49637456853015
Br        9.53604162705507    7.54386956694475    1.57785602010689
Br        9.03815158372428   10.59407174421476    5.37961933063995
O         9.18406655328106   13.88828207993105    3.00415168408998
N         9.18434839194561    6.59710865880827    5.05472677292066
N         7.23305245220046    7.55760319107383    4.91970176796606
N        10.21410951315808   10.54392962754098    2.35066918117477
N        10.03557376515195   12.18727810947174    0.86924606149414
C         8.52045292014725    7.65192247847768    4.54598461386481
C         8.32057308020666    5.81390677749368    5.78996323000182
C         8.48771434957947    4.65214270474204    6.53003361593045
H         9.44758908246880    4.17066763618561    6.62039772596593
C         7.36943692995938    4.12503491932603    7.14693676397127
H         7.46884597167454    3.22208715098338    7.72968755034480
C         6.11930908363506    4.72914562589812    7.03758477872559
H         5.27256380386359    4.28314624166538    7.53623928688552
C         5.94077705676177    5.88896693667883    6.30932761978179
H         4.97568940767215    6.36071527246750    6.23254751674036
C         7.05677620843999    6.42618934336707    5.68760587434111
C        10.63560297068286    6.48504618694022    4.93076951372343
H        10.88764047135868    6.93275542190559    3.94836658835669
C        11.08905817942714    5.04732290283343    4.87504359238914
C        12.16382694031427    4.57794184047186    5.61636191594089
H        12.69636959465398    5.24392505206292    6.27899712669042
C        12.56062993154124    3.25559080988029    5.50475502604390
H        13.39523237389379    2.89844537150069    6.09013501735160
C        11.89534288584609    2.39666153229910    4.64803354967570
H        12.20526171543127    1.36538591770612    4.56669610814499
C        10.83946316530799    2.86832094404493    3.88503091798216
H        10.32799573659774    2.20936554482349    3.19959198985041
C        10.44259434447755    4.18730542040736    3.99177896003615
H         9.63244351936091    4.55792410602645    3.38056976013141
C        11.24201756099066    7.36017606016463    6.00575101215438
C        11.80335956121123    8.57950804298391    5.64634817021041
H        11.84883671452563    8.87073517516868    4.59415497878099
C        12.30147929820980    9.43613816477820    6.61281702189067
H        12.72754917746701   10.38451678760410    6.32252559110352
C        12.22799645997369    9.08475941748452    7.94898383207309
H        12.60909060212258    9.75422511598073    8.70531923044228
C        11.64752004725807    7.88224088153275    8.31627268717640
H        11.57170670680377    7.61380704370018    9.35982533075413
C        11.15031072072634    7.02475423295617    7.35156089778800
H        10.68026965133946    6.09711148113119    7.64491348954938
C         6.20787842594608    8.50484026068252    4.52017963679078
H         6.72693321775789    9.23240643863261    3.85688309188165
C         5.18727735661870    7.76418506348465    3.67433768452385
C         3.88121654528404    7.53202031193815    4.07982538905987
H         3.52894438360747    7.91551019122381    5.02662189246660
C         3.01773440509500    6.81487705113429    3.26853701173896
H         2.00181878253756    6.64270274248441    3.59283425446089
C         3.45165466845964    6.31624515917704    2.05286139920719
H         2.77503552542065    5.75576506739833    1.42495316072352
C         4.75741034309641    6.53671882754794    1.64688153023563
H         5.10861974869079    6.14886910723952    0.70252363803098
C         5.61801770556290    7.25706121781963    2.45332176282003
H         6.63827289016058    7.42563567438834    2.13485854835215
C         5.63770955385593    9.28858840309187    5.68005320515282
C         6.12325521019061    9.17568089543260    6.97420429022340
H         6.93729995886108    8.50559295830882    7.20197492853218
C         5.58194784633267    9.94152472449547    7.99285829472165
H         5.97332096022353    9.84361451545914    8.99405469095712
C         4.55512343166708   10.82984683788696    7.73174224458991
H         4.12840501682480   11.41826001008310    8.53096257400257
C         4.08218929346657   10.96675502989695    6.43693987972485
H         3.29312824405720   11.67141204770554    6.21784387925121
C         4.62407881325335   10.20559824547848    5.41906359130100
H         4.26309428787297   10.31932646649169    4.40759062028777
C         9.41600317285039   11.43380260353317    1.81171859718830
C        11.43303879953038   10.69614326597710    1.74348319195367
C        12.60984633603142    9.97493947842242    1.90557307583873
H        12.66944124064885    9.15455635124463    2.60770103060788
C        13.68125925802520   10.31913817417570    1.11261290272893
H        14.60969275686716    9.77663586653043    1.20660521161765
C        13.58511084253732   11.34929612543887    0.17606612686293
H        14.44469150401472   11.58434964678810   -0.43343500101022
C        12.42073300345719   12.06652685074853   -0.00758224412119
H        12.36505692473239   12.84284905416129   -0.75220447454762
C        11.33297658230522   11.73663728192558    0.79107351974910
C         7.96092914229011   11.46508195554575    2.04941093652242
C         7.20246030431862   10.47045837082712    1.43123047167439
H         7.69273719758380    9.71520247379455    0.82853983179132
C         5.81969667065554   10.49655579027394    1.51428498585952
H         5.23969142843566    9.73630350922077    1.01356360225276
C         5.19006348577584   11.50717755676126    2.22222712827538
H         4.11132197332526   11.55245265638857    2.25265558711544
C         5.93746438126050   12.46245974128834    2.88728737500967
H         5.44303615751880   13.24550347960085    3.44209715123698
C         7.32835862490705   12.44792587630125    2.82366605348360
C         8.14674978622274   13.49028675332889    3.50450544972385
C         7.62168317297082   14.05868352653227    4.76270180312433
C         6.82972891000664   13.33165527321857    5.64940996466428
H         6.59733540538874   12.29732702750405    5.45480669730248
C         6.38744866136683   13.92241681244058    6.81801373076126
H         5.78814976144342   13.34611713854798    7.50619770858938
C         6.71601345958421   15.23652690350693    7.10861255729886
H         6.36186248971164   15.69375883104966    8.02109663485769
C         7.51171396408611   15.96193096044284    6.23539317002139
H         7.77816726131943   16.98317382156863    6.46501087702420
C         7.97169539634554   15.37287371495712    5.07495666059535
H         8.60009165166186   15.91962528958838    4.38700034763055
C         9.31170760005860   13.13713722464117    0.04149053664212
H         8.63494336720999   13.67532123287523    0.71932094525153
C         8.47510642282196   12.37518489520100   -0.96110236147416
C         9.00438810217175   11.29047420578220   -1.65041204225827
H        10.03577996091192   11.00476547160189   -1.49879284793541
C         8.21410192018491   10.56697013469250   -2.52553493529294
H         8.63328439220048    9.72089376174967   -3.04883361218838
C         6.89046949993323   10.92238866895550   -2.72267278577524
H         6.27335659637099   10.35395095096935   -3.40227605329038
C         6.35991309809364   12.00655174849838   -2.04445992129380
H         5.32777061001902   12.28757145659760   -2.19306893680884
C         7.14779706587061   12.72733156492398   -1.16514512268883
H         6.73008723901059   13.56705003607644   -0.62731646194229
C        10.24135635519797   14.17040460690565   -0.55397377150151
C        10.94755411690344   14.98986822061882    0.32124364295360
H        10.81313726353935   14.86308344519160    1.38526242673831
C        11.81456187948807   15.94741439647341   -0.16984831929274
H        12.36671175683675   16.57403963730220    0.51465272274889
C        11.97369830910084   16.10416470831241   -1.53762854711923
H        12.65141035215924   16.85198116746569   -1.92217281531768
C        11.25867624092235   15.30294259938471   -2.41030016351225
H        11.37415713083309   15.42594867647363   -3.47716503693451
C        10.39372341511105   14.33686226476147   -1.92239971877524
H         9.84105645282135   13.71238650015428   -2.60901095336453

