40
CSD_code = AGELIH | q = 0 | S = 0 | Stoichiometry = C12H22Cl2N2SiTi | MND = 9
Ti        1.47123133632994    3.81598773889767    6.42010783120494
Cl        0.17300618293098    3.93124484400757    4.57467901979457
Cl        3.09855996608184    2.33606827063455    6.16987430775203
Si        1.00483124470125    5.16745652935168    9.03632454300933
N         0.62480906446444    3.74034206668765    8.12345833477796
N         0.26934579697718    1.84479416180316    6.44149703394764
C         1.36766311173239    6.15684327347271    6.33608092985440
C         2.26310173873511    5.92452058356819    5.27010024058975
C         3.41117351430881    5.31891221358593    5.79254689547554
C         3.23492439686755    5.18459237713815    7.18726171561247
C         1.99161337921350    5.76116195628492    7.54542033783452
C         2.04954294398191    4.81160296502617   10.59705046077806
C        -0.51098271018577    6.24204203871314    9.48509443290417
C        -0.16426497195465    2.64276525009718    8.62986637730401
C         0.20736046294014    1.39518115395263    7.82852931339489
C         0.41741404820120    0.79256212863534    5.40577153425212
C        -0.96583011778692    0.32159360259513    4.95249684187774
C         1.26150301489492   -0.39181726077468    5.86508537394397
H        -0.62480047926348    2.30444853019084    6.23719584405302
H         0.42570518928891    6.68757080701460    6.25955862624484
H         2.11311059506888    6.21998360176832    4.23984115449652
H         4.30595599591345    5.06379484226469    5.23838720790497
H         3.98553748612918    4.82784277305892    7.88342621558220
H         2.55700289833277    5.70624561395959   10.94113496553702
H         2.80167637394546    4.05246997110144   10.40131484615669
H         1.42310616383218    4.45904514708500   11.41028067278861
H        -1.16765530455946    6.38237261666394    8.63154089305337
H        -1.08975091385824    5.77722964560545   10.27679458926377
H        -0.20446053496808    7.22148446101792    9.83530446200970
H         0.02126592622590    2.48031409488802    9.69981738394039
H        -1.24192600724924    2.85624521460142    8.50494097215760
H        -0.53006879053847    0.59498257331762    7.98409836507373
H         1.20031908835761    1.04785721501994    8.13330842206654
H         0.92207286519384    1.26568897521297    4.55090028801335
H        -1.52214695255567   -0.10386344008928    5.78654876666781
H        -1.52956775180622    1.15395290113324    4.53446493058948
H        -0.87121503840285   -0.44112410783324    4.18420585953177
H         0.75512480240437   -0.96546903084548    6.63764467189634
H         2.22573422810414   -0.05484213925931    6.23390252793785
H         1.43567775797227   -1.04798415955659    5.01624281072932

