66
CSD_code = AGEMUV | q = 0 | S = 0 | Stoichiometry = C30H31N4Rh | MND = 6
C        10.82071519716075   26.33930318646156    5.85031376789690
C         9.58231737979648   27.19463627041099    5.84646319726658
N         9.64336161701849   28.56038273525231    5.87029262021776
C         8.35099539760305   28.98984736675746    5.74117062980705
C         7.82583214325431   30.27355106893948    5.59423207120152
H         8.47031241910650   31.13895382968733    5.54448741269567
C         6.46435395131212   30.42476368239952    5.45869252874991
H         6.05008470981345   31.41705771997732    5.34414516636379
C         5.60143579839538   29.32447660521574    5.44925854333624
H         4.53800375706611   29.48923454076657    5.34591943649341
C         6.09450997908283   28.04499855952857    5.54055157453513
H         5.43591447081653   27.18838085409049    5.49810052761576
C         7.47036536582115   27.86313646376824    5.67364686431523
C         8.30278293975248   26.71766517308524    5.73397483131302
C         8.01511661089842   25.25638284541189    5.70402942279886
H         7.86794171346721   24.91960581058635    4.67250751174272
H         7.11028786105856   25.01843153194655    6.26831543046001
C         9.21397940584373   24.52643679700249    6.31064476086135
H         9.24489908770647   24.70025872523145    7.40053215132171
H         9.11000283624854   23.44953463603818    6.15174983459532
N        10.45321149181484   24.93123745843597    5.66793192811147
C        11.57044961663518   26.84683878743273    4.63555305533092
N        12.00437446115510   28.11285140595198    4.68167403992298
C        12.49567337369752   28.65196447881610    3.56471718146626
H        12.79242593107685   29.69142606970007    3.60984984837711
C        12.61657691236348   27.95909331973995    2.37597054127474
H        13.02113459872671   28.44892931958893    1.50442246299657
C        12.19275587316907   26.63957149725211    2.33106368271489
H        12.26699980951063   26.06344567480388    1.42088786179391
C        11.64983800309404   26.08662971771615    3.47413004430372
H        11.26161956501400   25.08240341340052    3.48385268229569
C        11.61402591746575   26.51676545147081    7.13728332062673
N        12.92788531563726   26.30183509058538    7.06637723162258
C        13.61480323261014   26.19042207122068    8.18928917565790
H        14.67945632920111   26.02921630082730    8.06712151766455
C        13.04015019511574   26.24120508690005    9.44860602189745
H        13.63965482166999   26.10630472372158   10.33580969265845
C        11.67199598221571   26.46074678657495    9.53048934407151
H        11.17687389297900   26.49381506842866   10.49185458547571
C        10.94465698218633   26.61194336704147    8.36326470549072
H         9.87868437115295   26.78171063069570    8.38689790014433
C        11.52666440082940   23.99512265788422    5.93331980485229
H        11.30610672511700   23.06037158109734    5.41406391035539
H        11.65062705022234   23.77126974144273    7.00360183704048
H        12.46534512856588   24.39760100583963    5.55866402041236
Rh       11.50175136217114   29.23805611308297    6.35885793185202
C        10.84434391500916   29.98338244412743    8.24434589394555
H         9.88742918412435   29.52199769985823    8.49055470464975
C        10.83645326542972   31.03017590462379    7.32917132233079
H         9.88172060374630   31.30228950150138    6.89217195434397
C        11.86400577987845   32.14134977597597    7.33997707148962
H        12.22839200782083   32.28452194374862    8.35801437128778
H        11.38663190002449   33.07421178317392    7.03322080177554
C        13.03441163113754   31.84374293928384    6.38977994428473
H        13.93998643777845   32.36068666253428    6.72775128706437
H        12.79292315872947   32.23260272891932    5.39676634027008
C        13.32110306394981   30.36524558977627    6.25904281989726
H        13.89702751339651   30.12291972746236    5.36643979183173
C        13.41789208775328   29.47194665357350    7.31844014217954
H        14.00814489207022   28.57589357462422    7.13726523509372
C        13.33078013492737   29.87358072036588    8.77634159171473
H        13.76680058352353   30.86835699127874    8.89084375155212
H        13.94128309288394   29.18455467995348    9.36419913079108
C        11.89108132454866   29.85326153026047    9.32694941614649
H        11.72582202648259   28.91666975579474    9.86054717314932
H        11.75441341230112   30.66429417099722   10.05119464401974

