61
CSD_code = AGEMAB | q = 0 | S = 0 | Stoichiometry = C31H19F4IrN2O4 | MND = 6
Ir        2.15421469934858    9.78393566129750   11.98019381312475
F         5.48586178544241   14.08594076694573   14.90180715874494
F         1.21330209597212   12.44803871708284   13.89676362020957
F        -0.34838237607261   13.29101967314772    7.55620416647254
F         3.54060243773356   11.31118010320315    9.26042232064799
O         1.31838072142151    8.07036034216617   10.96960535401660
O         2.66103082984200    8.42091137780296   13.57516699248346
O         6.20223799899971   10.01038878821812   11.60056490507791
O        -1.74389419417826   10.95455008469951   12.09786831689513
N         4.04861246947923    9.49882381304695   11.36172158581306
N         0.26823433686677   10.13686447879731   12.58705694828470
C         0.62495612171390    5.86141466903734   10.50827249974577
H         0.26716057557651    6.34059550013060    9.60025684057961
H        -0.21308876541841    5.39989118708996   11.02608811979893
H         1.33748824712208    5.08064361511395   10.24958530343958
C         1.28578123865705    6.89193194946717   11.40564631355015
C         1.79678044622108    6.42040686526178   12.61717043428760
H         1.68531969154983    5.36526357950386   12.81656784057776
C         2.43809151373699    7.18404352903138   13.59539218283617
C         2.91068432113492    6.43596257478090   14.82868095948389
H         3.38561499080049    7.12868253726104   15.51910111195250
H         3.62399600311344    5.66509054252172   14.54497126818731
H         2.06690563894755    5.95538910675141   15.31981960667833
C         4.75963424103642    8.64811080128763   10.55298607342979
C         4.37635551881238    7.63514430485932    9.68396012200498
H         3.33492000997430    7.40070983321927    9.54361362434986
C         5.38186704368986    6.96898740461269    9.01304043690036
H         5.12477381664026    6.17584341432959    8.32741142394164
C         6.72705821189312    7.29538062106535    9.19003844388745
H         7.47683241680595    6.74618695611466    8.64165030063323
C         7.12517356932407    8.30936070337761   10.04276655481090
H         8.16133614112626    8.57304527200177   10.17616332498316
C         6.11967873805571    8.97778955476756   10.71553036690919
C         4.93904801959377   10.27786400842522   11.94490127162621
C         4.47636513798294   11.31469925840934   12.82272778825323
C         5.30978414503850   12.22571197949379   13.46932915022265
H         6.38112422852858   12.18192748376184   13.35847591405338
C         4.71452019633163   13.18769035043114   14.25610277975072
C         3.33847445338740   13.26526577452412   14.40195873904497
H         2.88963683022135   14.03005410999980   15.01547408312219
C         2.55471231790123   12.33600957446656   13.73937950963965
C         3.06704327081562   11.32637227486868   12.93540485338908
C        -0.56671490471197    9.80716307474145   13.62502807677141
C        -0.36159619981705    9.12846650700690   14.81895572468505
H         0.61519778517527    8.75373790582914   15.07339006921051
C        -1.45250069727836    8.97661660132602   15.65069039542273
H        -1.33388699866098    8.45593702011637   16.58881714182980
C        -2.70909025080238    9.48359748120782   15.31700562277467
H        -3.53129020726201    9.34041348477352   16.00111232101810
C        -2.92781722098795   10.17206348978545   14.13717563771858
H        -3.89316179900618   10.57476208056639   13.87852744464898
C        -1.83653662160549   10.32542972824470   13.30290146295688
C        -0.46818665797081   10.81243036849656   11.72614384237378
C         0.15990444512518   11.33751887798565   10.54733111667213
C        -0.49649984143229   12.09489562813820    9.57878107351759
H        -1.54946441352963   12.31242988351819    9.65572478073390
C         0.24998388869682   12.55787611534562    8.51705589931895
C         1.60660203816992   12.29663966114997    8.40692290270863
H         2.17655447343169   12.67401462997099    7.57295912417595
C         2.21145022293999   11.53878968871515    9.39519515974305
C         1.53702382436624   11.02183463070094   10.49333977987496

