55
CSD_code = AGETOW | q = 1 | S = 0 | Stoichiometry = C15H26N3O9SZn(1+) | MND = 6
C         0.16026309009609    7.82772964424865   21.27488646227906
C         0.47317974176288    6.31691130190799   21.21631425408675
H         1.55278218093227    6.15874410627614   21.28245537273720
H        -0.02126049276893    5.81593915683237   22.05560056578438
C         1.08967714951025    8.61405331508239   20.32997218791087
H         2.05047188451020    8.74956462347824   20.83889362067249
H         1.25023767267155    8.06148321766248   19.39660219828336
C         0.35422902353551    8.37159128925948   22.71503981694004
H         0.16196722908886    9.44836791813606   22.70023764444619
H        -0.36744524633747    7.89238173905379   23.39077893194469
C        -4.01272378788941    5.23290248326620   18.65134616045849
C        -4.15689012430424    4.98878041917696   20.16534935872661
H        -5.11966535881002    5.37728669957037   20.51547402709868
H        -4.11166645563638    3.90798003399268   20.33731058497760
C        -4.84158794350624    4.19154400290107   17.88052535658255
H        -5.89713587206700    4.26413891692602   18.17309231954260
H        -4.76242503308560    4.39239386601809   16.80385992345739
C        -4.43260079905273    6.66507623829436   18.28272937744392
H        -4.25255666452439    6.82329436347875   17.21379351093607
H        -5.50274547026968    6.80203260830881   18.48347262753429
C        -1.54693985790181    8.71859647910265   17.17241565336457
C        -0.68415138601315    9.06453912321203   16.01081627501443
C        -0.77263369143520   10.20258246845507   15.22457521398372
H        -1.52668119989305   10.94440610652460   15.43607709300653
C         0.12774831895019   10.35070870775637   14.17854626367467
H         0.07870669031866   11.22978393968348   13.55466500910074
C         1.08859883821766    9.38315425070355   13.92114413785625
H         1.77721327260461    9.51710518104221   13.10147360790006
C         1.17463771321827    8.23505369051085   14.70381674605614
H         1.91217883553140    7.47357092631680   14.50785833629994
C         0.28240868139159    8.10508780913661   15.74115816865777
N        -1.22781343531370    8.03312939571410   20.83328285481486
N        -2.58477645394719    5.08220287317939   18.36123966755705
N        -1.12453689369189    7.61091450297276   17.79823163696003
O        -0.04097016124809    5.70614745535649   20.04788200183845
O         1.66520055811527    8.22545165571812   23.17803850645207
O         0.47171364468434    9.85845607323411   20.06389269902781
O        -3.09347249890410    5.64214627053238   20.84425408567563
O        -4.31209607643486    2.92582354599423   18.19652237123366
O        -3.69172074175332    7.58123951287097   19.06334363669553
O        -2.54247479789646    9.35296449147025   17.50999872260716
O        -0.61198803615526    5.64998177259593   16.35113509823356
O         1.14301257586369    6.53285063919813   17.79636615897085
S         0.01678457234738    6.80623132953459   16.92857415849616
Zn       -1.79943412012621    6.68665385792806   19.36027733227850
H        -1.85528593010619    8.03106419029401   21.63488884355630
H        -1.26528001821729    8.97722473155926   20.43832623061964
H        -2.38397769169357    5.14230567402939   17.35947641814891
H        -2.30703713492090    4.14003010441656   18.63725085230344
H         1.11876204039292   10.46044666927315   19.68622367824740
H         1.82437064486595    7.32607539350794   23.48222602034419
H        -3.47719899934334    8.38986126858827   18.51865736097920
H        -4.78489097260946    2.24431533771048   17.70801063553885
H         0.57508906298748    5.86996814316668   19.29812116294566
H        -3.05717007543322    5.30333048481394   21.74389905955803

