49
CSD_code = AGEVUD | q = 0 | S = 0 | Stoichiometry = C10H20F6O10S2Zn | MND = 6
Zn       -1.35136406060053   11.34870774975733    4.63026700878673
C        -3.66891630616731   12.30740338511504    2.67013798529518
H        -3.15237523273932   11.54530257365012    2.09203236467508
H        -3.85187927557275   13.20229086771263    2.06248967936449
H        -4.61326690507457   11.89568151743165    3.03239691403254
O        -2.81626257174770   12.64686110638249    3.75790226699731
C        -3.41991513075066   13.56876625666740    4.65523217355073
H        -4.20180639680042   13.06097944501869    5.23370798489797
H        -3.86226992165338   14.39878935778236    4.08738656527573
C        -2.30361784273945   14.10176522210670    5.55020198626710
H        -1.54252348951911   14.57229819561299    4.92229898568049
H        -2.70239523976521   14.83306021282668    6.26399547190058
O        -1.62849826886643   13.06538953134320    6.23516184325722
C        -2.25927599523073   12.71519561706925    7.46197815156608
H        -1.67818797457349   11.90558579128385    7.89235195523358
H        -3.27978102264433   12.36099817648042    7.31064611619028
H        -2.25501503327554   13.58324175132622    8.13173689789958
C         0.04432900395121   13.33145943587258    2.58014236993808
H        -0.95736242011366   13.72145333150075    2.42943657075716
H         0.20417581318985   12.48588469283226    1.90801874772456
H         0.78768418937571   14.11290589593273    2.38543336125123
O         0.12735194297304   12.92162621486497    3.93883241626249
C         1.42302925745949   12.43882479750552    4.25002202207294
H         2.14325550459844   13.26948786397119    4.21464971254154
H         1.71696587667927   11.67120717045356    3.52533322755546
C         1.38275887839570   11.82834590354972    5.64224230273393
H         2.34840615720138   11.35558331835627    5.86085592847833
H         1.16438379455445   12.60244560693420    6.39046895279795
O         0.35764914140999   10.85314416903959    5.64136871113936
C         0.44796554732396    9.93949425895632    6.72451659985064
H        -0.35673901354160    9.22252656497082    6.58058343040453
H         0.33801030133325   10.45781134467437    7.68238152087233
H         1.41142546169221    9.42217849036168    6.68783664943866
O        -1.04085791427221   10.54099662563769    3.05060707724402
O        -1.16796080218584    8.56818065429335    4.49562847502744
O        -1.68531225595839    8.37198306502338    2.06566157177595
S        -1.08212730370184    9.05416474497988    3.15289386253759
C         0.77677308095203    8.79258035066072    2.77844640240014
F         1.54936807921514    9.12940617400353    3.83133999638078
F         1.10220045111134    7.54318498001769    2.44890903920845
F         1.17696837956291    9.58795788457788    1.76942632193946
O        -2.46763592172836   10.47756206535387    5.76408556030234
O        -4.78885608493727   10.83235753887720    5.25588630774710
O        -3.41555172307652    9.59615789821114    3.68055665587137
S        -3.65286560239742    9.98064877555464    5.03510160912200
C        -4.07494686875331    8.45228914484911    6.04116877361529
F        -4.45082540411513    8.86547028097727    7.26099702566265
F        -5.10741924943392    7.80031808635718    5.50767772063083
F        -3.08398962904043    7.59094591328584    6.21356672584859

