107
CSD_code = AGEVEN | q = 0 | S = 0 | Stoichiometry = C52H40N6P4PdS4 | MND = 4
Pd        5.31720308698129    3.35275419550620   -7.01584939270201
S         2.86798810043953    0.94011600710212   -1.84078138516025
S         2.96864820208892    3.12571575457221   -7.62019812340298
S         7.64356780416515    5.93131615667930  -12.08684582620998
S         7.66110925504277    3.57519604322423   -6.41715462118824
P         2.40675680787729    2.78153776138738   -2.23731517448769
P         3.21056823086113    1.94514149843752   -6.03923347549269
P         8.12530157448837    4.07169866197116  -11.82081190011000
P         7.41801558921227    4.77517455403480   -7.98441034035507
N         4.72811960810297    3.88969157300636   -5.21964131330625
N         4.98556427640256    4.79026023167530   -4.31813695122017
N         4.25519960222267    4.58508281204979   -3.26256215905064
N         5.90548749808750    2.82587025011649   -8.81742991701494
N         5.63616172243982    1.95091628798985   -9.74062234769811
N         6.33812810777401    2.19686674068714  -10.80673243427193
C         3.47936575477264    3.50957457674290   -3.47257869449313
C         3.79155049849706    3.02963026919086   -4.74503696450459
C         7.10643210792456    3.27492159897579  -10.58255884130944
C         6.82119125312034    3.71051995538369   -9.28798867547157
C         2.18647186377336    5.27275745645054   -0.99761443229261
H         1.86743005171619    5.63788520565760   -1.96277369904493
C         2.28378098946618    6.12709287158754    0.08339488029111
H         2.03636082510221    7.17202201240966   -0.03387200330858
C         2.69954015483795    5.64727346260391    1.31656334088710
H         2.77347644562358    6.32141075397253    2.15738360776878
C         3.02134204499090    4.30974618997855    1.47429310913774
H         3.34612899791707    3.93816502744095    2.43502962866641
C         2.92884946122663    3.44727618391684    0.39654680624801
H         3.17856113310670    2.39898123935260    0.49576156596634
C         2.51429375003673    3.93183409054133   -0.83543628679774
C        -0.28712310804965    2.22076430971365   -2.38713220622293
H        -0.03687009088131    1.47755115783328   -1.64182724233302
C        -1.58667475380272    2.37965584115562   -2.82924764827603
H        -2.37415106188755    1.76417824126987   -2.42029874324354
C        -1.87550888442790    3.32934362417282   -3.79589696907542
H        -2.89122779556670    3.45648990537776   -4.14045605252375
C        -0.86497190400579    4.11467181458861   -4.32579654919354
H        -1.09053196348089    4.84892877337435   -5.08532569475066
C         0.43692399746023    3.96183942182067   -3.88539652171190
H         1.22684574205013    4.57336342789106   -4.30133835281331
C         0.72435804455530    3.01631067467882   -2.90911013290732
C         5.76918527444064    0.77684673669058   -5.77960907238666
H         5.91109258651762    1.37082314014140   -4.87556526060397
C         6.80921534208800    0.01100935521669   -6.28254594499363
H         7.77510535005980    0.04750377478949   -5.80027002572456
C         6.61324363673335   -0.78576509467772   -7.40263771216281
H         7.43662971944960   -1.36165204948181   -7.79859401006541
C         5.37364976599840   -0.84461962085588   -8.01862208494956
H         5.22739878849499   -1.46204618271261   -8.89121622404898
C         4.32539742552757   -0.08128211812321   -7.53546176291239
H         3.35925644522145   -0.08772667266240   -8.02476884051202
C         4.52453224753147    0.72930872917514   -6.42150914905100
C         1.80400462985150   -0.05174538571093   -4.77082648137019
H         2.77241423457409   -0.38933440188431   -4.42978610512495
C         0.64902591590901   -0.71186853789254   -4.39582534608629
H         0.71348488235316   -1.57291350136819   -3.74878027132438
C        -0.58278877584817   -0.26388739827281   -4.84564907555584
H        -1.48232613640168   -0.78356574770032   -4.55099121073222
C        -0.67066114298522    0.84099217313884   -5.67848549752459
H        -1.63230992171416    1.17668260497111   -6.03622954856515
C         0.47568543126289    1.51705601892042   -6.05034713652449
H         0.43441778655360    2.37942433292829   -6.70256452734289
C         1.70615230630316    1.06991899494065   -5.58634297815392
C         7.49264719675030    3.55917140888498  -14.46507589459031
H         7.24137245784501    4.61141866434324  -14.49353456263322
C         7.35482555527466    2.76012103964870  -15.58603500493615
H         6.99257025402008    3.18634907979378  -16.51004967524383
C         7.67984876159572    1.41577710331149  -15.51859240670514
H         7.57085917200920    0.79117975920439  -16.39322681704738
C         8.14367395761378    0.86566933890389  -14.33279480284615
H         8.39311826299072   -0.18427691678829  -14.28594288590184
C         8.28655329882980    1.65633708590043  -13.20923993227056
H         8.64288695710485    1.23648074813401  -12.28008849251909
C         7.95571708128067    3.00440153233188  -13.28089284707654
C        10.82412636598927    4.62668455093093  -11.76826075297357
H        10.54048174193106    5.40949166752910  -12.45911556075408
C        12.14283825237020    4.44364482469737  -11.39812917669461
H        12.91166866385915    5.08022277910283  -11.81024741641508
C        12.47486702125603    3.44216498000077  -10.49996885070270
H        13.50561594191163    3.29593264336300  -10.21226384724905
C        11.48872052436499    2.62892728842861   -9.96610375401147
H        11.74861016041392    1.85372887767758   -9.26006201031658
C        10.16772679943773    2.80585802204259  -10.33466039390596
H         9.39626081549705    2.17266653686112   -9.91662089601822
C         9.83687786215494    3.80349725859583  -11.24282973690844
C         4.86027072344251    5.94825985936509   -8.18458571212488
H         4.69447592463882    5.35018833345349   -9.08271478532440
C         3.83475644238569    6.71925108832083   -7.66014115514966
H         2.85636511860125    6.68041841762290   -8.11647616361611
C         4.06167031720373    7.52508410452991   -6.55243360941174
H         3.24997929967870    8.10537828102952   -6.13915389135338
C         5.31742195702876    7.58785124027852   -5.97091410456165
H         5.48742884787485    8.21290382334293   -5.10815017345251
C         6.35172291570553    6.81955049293684   -6.47586065217668
H         7.33071158928980    6.82875795574036   -6.01303726781661
C         6.12186535303766    6.00049200118494   -7.57703799323105
C         8.85056275786986    6.80321050541041   -9.18241591033104
H         7.88516473405202    7.19106197742332   -9.47470025275326
C        10.01639505701059    7.44626679792923   -9.55389957581795
H         9.96290183343463    8.34524454240406  -10.14830755348158
C        11.24473673128741    6.93397399552703   -9.16796078067900
H        12.15262043290186    7.44060292202875   -9.45974615354523
C        11.31865947114514    5.78065491047561   -8.40214675217269
H        12.27807995589422    5.39396930986401   -8.09321338775712
C        10.16093543788347    5.12187931149869   -8.03473199878534
H        10.19210292256919    4.22312609013460   -7.43292572430826
C         8.93303626036691    5.63424000273273   -8.43454428552039

