65
CSD_code = AGEVAJ | q = 0 | S = 0 | Stoichiometry = C30H27N3P2PdS2 | MND = 5
Pd        4.80470257917811   11.57826733365933   21.22633190146123
S        -0.65962078775076    8.78561996771926   19.26710991686780
S         4.06171008262569   10.39120808942755   23.26116279083464
P         0.91088598757465    7.70128993174977   19.64084051293348
P         2.48486829049194   10.47802350179164   22.06560193806648
N         4.02261113379082   10.11058216623608   20.00480881127143
N         4.27727380032258    9.45546128834746   18.90535901018658
N         3.34194276588723    8.58678154092983   18.67173684121112
C         2.84985490436945    9.65939112974721   20.52168068401966
C         2.42504143298719    8.65677516462843   19.65084921524210
C         2.08061711034462    6.52595835679035   21.90626746670681
H         3.03179737937954    6.78951562958707   21.46404382572916
C         2.03178977531176    5.85179020597915   23.11212541566349
H         2.94953455052153    5.59866957376655   23.62219577830817
C         0.80959586474924    5.49635246358451   23.66063944133114
H         0.77768807371055    4.96196930225968   24.59881546945832
C        -0.36933808529110    5.82351540968942   23.01086202981003
H        -1.32081322909042    5.54499726686255   23.43925686595506
C        -0.32765293071651    6.50812497483272   21.81033296060782
H        -1.23530341343351    6.78551497688159   21.29120316663131
C         0.89687242730118    6.85333219748385   21.25521662140422
C         1.16607719408076    5.05372653658266   18.71629535022773
H         0.99238412012711    4.73686379440134   19.73599540344410
C         1.34723980353769    4.11819290937437   17.71283585156558
H         1.31188364356781    3.06483765261116   17.95078201360991
C         1.57263579574058    4.52942831522749   16.40973155182158
H         1.71429983642141    3.79387424700351   15.63142447428109
C         1.61193492467915    5.88022667634530   16.10049831872002
H         1.78538672359427    6.19843014930983   15.08329279207218
C         1.42591397435189    6.82114033340316   17.09453745492300
H         1.44768054223999    7.87860538969826   16.87234511369673
C         1.21552954803736    6.40517148157680   18.40418276382089
C         1.08004434340571    9.07655358706749   24.00072857060936
H         2.05418415420797    8.86536742109541   24.42144458058725
C        -0.07637313494042    8.61248747982376   24.59848542064645
H        -0.01553156929633    8.02391482186656   25.50164293635522
C        -1.31012960806740    8.90443193441829   24.03773369965924
H        -2.21130117724298    8.53767342701478   24.50650335691836
C        -1.39620882276265    9.66698065241712   22.88390960099450
H        -2.35712310895312    9.88929432878660   22.44621759601952
C        -0.24664095945525   10.14507003651764   22.28352404073853
H        -0.30098010130832   10.74266541984318   21.38457681400778
C         0.98803113101441    9.83686207080220   22.84267303806383
C         2.03721160630702   12.65496756720336   20.28623352855882
H         2.16406779595694   11.95804640236436   19.46419360433010
C         1.72593673746508   13.98003550905493   20.02843742589512
H         1.64643465363960   14.31932991147165   19.00628939411252
C         1.50390416621606   14.86513775601698   21.07231548898864
H         1.25730015696876   15.89464363713921   20.86013741947431
C         1.59615562986896   14.43356380830736   22.38679641277737
H         1.42345332715535   15.12479255654823   23.19837024429205
C         1.90062012805320   13.11244394947022   22.65984556769512
H         1.96375536373099   12.75278840287558   23.68015255838699
C         2.11340094891047   12.21872952415933   21.61120096542275
C         5.97568910624152   12.98720702260709   22.24604654637726
H         5.62617637842058   13.62677061409902   23.05355733342999
H         6.84690848174433   12.36818905365602   22.49204275733085
C         5.78991784565087   13.41871191458750   20.91586277537435
C         6.13231519574488   12.50333613978707   19.89769568334108
H         7.00677416645765   11.85743235286535   20.02138565597152
H         5.87791002947309   12.73981761151557   18.86881521168187
C         5.02823534704173   14.67563239020576   20.60783957691203
H         5.73676502154193   15.50156952294657   20.52855895950944
H         4.31764282792841   14.91296155974292   21.40001478988998
H         4.49573012031524   14.59255365642457   19.66100669372058

