98
CSD_code = AGEYET | q = 0 | S = 0 | Stoichiometry = C53H37HgIN4O2 | MND = 4
Hg       21.07301525989508   23.89359446787894   16.12530028076100
I        19.76711764822439   25.80658066817206   17.34031589374782
O        24.35892534738649   28.30636371359608   20.74652876579769
O        25.36178596847683   28.22955238273611   18.73396053101097
N        21.56964871170208   24.41733662254546   13.97264605394048
N        20.51704363278615   22.01001283648971   15.31724336709992
N        22.09681121888356   22.64504677531904   17.71979328479275
N        23.37819403749295   26.53255903245121   17.79953188522835
C        22.28832382524777   25.47022855638419   13.45712450963672
C        22.12294383970906   25.49776943879817   12.02510687198491
H        22.62539821628154   26.17340295424142   11.36058487811238
C        21.29208822144433   24.48047981496048   11.70604113104782
H        20.96132080458953   24.17952971530645   10.73085406288845
C        20.93734692030016   23.82339411165548   12.94169747673273
C        20.08369081208460   22.69764672156748   13.00638417223657
C        19.88693644020447   21.87786047981763   14.11675840755978
C        19.04123264668925   20.70539686442360   14.15653890797350
H        18.39284520443679   20.38571226312357   13.36397430401945
C        19.21860202962905   20.13032084173291   15.36589507578970
H        18.74342445802337   19.24970625658396   15.75254814828144
C        20.17458611086096   20.94252810681498   16.08536838684144
C        20.71720112896178   20.63724246488042   17.33655816008910
C        21.67376984465380   21.40362182901179   18.03300435104474
C        22.39101800571384   20.92193638297740   19.19294717596937
H        22.27357759722662   19.94887243326588   19.62912943496475
C        23.23020552801641   21.90797124182347   19.57495601142529
H        23.95091932229366   21.89204238172078   20.36909299189739
C        23.03458344356537   23.00435156255200   18.65541462830833
C        23.66366333280128   24.23922844879592   18.71664347531807
C        23.54628185033173   25.17252640439996   17.63404587254901
C        23.49481907472479   24.91017733685458   16.26843193316012
H        23.78530320624422   23.98255337830284   15.80190267076563
C        23.28951393008444   26.14502099952651   15.60212004481994
C        23.23763542496964   27.11489192366052   16.60089347732493
H        23.02754872580387   28.16265745395103   16.50498526362027
C        23.02209362236293   26.37497551552918   14.21087494551628
C        19.37759022056827   22.33518933312375   11.75959488847856
C        18.48287028578468   23.22945553974229   11.17785272724141
H        18.30774640339918   24.18524674337158   11.65082890582370
C        17.81176309937139   22.89312134783916   10.01666616913376
H        17.11409650424471   23.59205336379677    9.57887321878128
C        18.03183803403447   21.66454117588906    9.41619773476055
H        17.50867000594439   21.40351626439916    8.50818940793449
C        18.92693298158733   20.77271552720618    9.98314685585288
H        19.10684318767832   19.81563284530752    9.51531887222527
C        19.59427895534870   21.10340322232812   11.14838967261175
H        20.30187903245183   20.41312068479038   11.58522107966620
C        20.29662170967542   19.37092964400010   17.97207810974392
C        20.51651466440214   18.14804952314066   17.34442192515100
H        21.01364218707276   18.12731813235045   16.38500208679754
C        20.12233027267879   16.96900202511507   17.95023698541368
H        20.30320410383101   16.02550722907715   17.45589579034332
C        19.49991705910758   16.99563514125334   19.18714881824438
H        19.19044482638891   16.07421675283364   19.65785969195820
C        19.27796762247496   18.20792116316091   19.81916621804309
H        18.79195888343246   18.23434969079108   20.78357871545840
C        19.67695944613974   19.38787889305739   19.21888667482397
H        19.49946393899876   20.33519292951881   19.70777322536160
C        24.47594855003259   24.61134174542270   19.87562047568519
C        24.05378215796913   24.36327945043151   21.18358315850657
H        23.07899571667321   23.92862380654070   21.35119465719555
C        24.85947813719677   24.69826551865198   22.25446114559990
H        24.52256760323975   24.50284059610133   23.26163298740777
C        26.09617942490603   25.28563431254339   22.04283333399164
H        26.72750430352333   25.53470280787624   22.88191706331713
C        26.51341351564771   25.56008286013320   20.75061425805658
H        27.47219686648289   26.02695030477009   20.57996740975884
C        25.71027014163285   25.23417029433509   19.67526584516800
H        26.04490449587069   25.43444910261512   18.66763020690421
C        23.47271544358403   27.64520933117539   13.65325287853982
C        24.71548527525584   28.16458696658460   14.02696186579115
H        25.34348032421570   27.60003644089521   14.70038166185082
C        25.15278491605878   29.37324806606498   13.52250294752393
H        26.11978794279693   29.75654937843360   13.81294657079348
C        24.35483562764308   30.09394237267152   12.64807553103278
H        24.69715737850502   31.03973300586206   12.25524474909033
C        23.11009259383077   29.60155427348710   12.28934136723394
H        22.47596124623903   30.16976178638564   11.62465610176580
C        22.66938133612466   28.39064130588778   12.78671016885087
H        21.68216470553267   28.03094354220688   12.53824480121275
C        23.18513306901739   27.22259390553051   19.04092132626268
H        22.89138092550158   26.52637053568890   19.82743812454192
H        22.38033093745480   27.95736769012426   18.92413198788039
C        24.44882400255165   27.96884101023155   19.46851951326483
C        25.44568935567641   29.03352057671289   21.32850440713806
H        25.13102927577748   30.08212902350046   21.41204909576542
H        26.30913583271973   28.97962015715665   20.65752904807441
C        25.77731602795127   28.48261870124541   22.68832185092065
C        24.77772527182828   27.96519696242362   23.50074351368301
H        23.76139818975521   27.94429227854074   23.13911042422189
C        25.08678698059328   27.47067933040178   24.75535327823311
H        24.30433060966010   27.06599175127963   25.37990497282034
C        26.39365262273876   27.49809613295735   25.21170189106782
H        26.63441025686118   27.11318425772967   26.19150876248828
C        27.39264720731415   28.02020743499261   24.40714467232921
H        28.41371872800731   28.04311261989963   24.75828602172154
C        27.08695995122765   28.50724065912111   23.14836108173034
H        27.86829423571407   28.90900014950414   22.51960623640537

