98
CSD_code = AGEYAP | q = 0 | S = 0 | Stoichiometry = C53H37ClHgN4O2 | MND = 4
Hg        8.73927204878207   11.11226920836056    5.11217663503617
O         9.61522923805195    6.67799775614243   -0.42582434309412
O        11.33856979773395    8.09347480060782   -0.13453689392534
Cl        7.34030835025246   10.96728651067268    3.32322879005801
N         8.99782841102951    9.00270781557144    5.85997223017291
N         8.59978853465175   11.60398864638576    7.17526665767607
N        10.04332169999882   12.95262583498253    4.97861507951698
N         9.96127140925795    9.36190186332843    1.90011338279968
C         9.41726554399297    7.88554709350984    5.18276729377444
C         9.20563542876634    6.72194420783178    6.01277730601225
H         9.49580026202194    5.72146242438815    5.75681709680586
C         8.63896465535109    7.15597773136682    7.15872621058925
H         8.35574674593973    6.57534089028264    8.01528963576021
C         8.49950162571276    8.59186137811297    7.04395851154826
C         7.96687009520264    9.40785866340513    8.06254649330918
C         8.00392520413260   10.80508082679556    8.09924786163985
C         7.48643773874976   11.62753366707516    9.17045523477011
H         6.92932635111456   11.26557917025286   10.01275542251955
C         7.82454699899156   12.90479037098856    8.88808510039286
H         7.59662005262851   13.78633041714359    9.45535945593544
C         8.55439728014458   12.88404962981922    7.63968181056454
C         9.17618958843527   13.98329536226143    7.04857972044983
C         9.92450082419557   13.97528603251926    5.84857983442447
C        10.72762537891439   15.08981639657599    5.40374012928459
H        10.84941700959721   16.01432762577010    5.93428411517573
C        11.29540127774869   14.72394307199814    4.23232045263371
H        11.99163234268244   15.27967866240907    3.63467096768517
C        10.85171028354860   13.38094268463437    3.95342733491603
C        11.15139234073523   12.63935260031215    2.81829510351058
C        10.82632996434524   11.24573799873473    2.72905693275161
C        10.79505881845260   10.27291473554230    3.76141916791347
H        11.30261350369913   10.34284569093853    4.71089268797543
C        10.24944654495955    9.10944306463518    3.22620968038620
C        10.30732649571602   10.61791172333505    1.59784520457529
H        10.10227796392557   11.04311108638897    0.63421395363466
C         9.92820627258648    7.88154514222235    3.89378750505296
C         7.36015832582032    8.71346034068736    9.21871194222015
C         6.25510910453840    7.88598088349535    9.03776013633701
H         5.84297729350866    7.76611666321606    8.04613795025036
C         5.68062846450140    7.23767768886124   10.11569353639046
H         4.81913403323174    6.60372379769405    9.96390763962501
C         6.20640524826025    7.39989634904829   11.38676523723590
H         5.75842555372423    6.89155214636026   12.22779792572591
C         7.31010497057362    8.21507978464602   11.57487948006830
H         7.72752654571663    8.34037886123612   12.56348956516694
C         7.88265930307582    8.86975972469339   10.49956700431527
H         8.75094513188084    9.49679080936581   10.64290343455247
C         9.08925290252827   15.27710611467819    7.75952626503224
C         9.60866031690646   15.42298228585602    9.04278652245048
H        10.09306359531392   14.58062668531254    9.51541080334258
C         9.52461111719439   16.63764576068741    9.69881366732876
H         9.93645708524492   16.74040330781120   10.69232848510117
C         8.91670363453255   17.72015218303112    9.08512637217010
H         8.84916559731902   18.66731035908947    9.59964196531272
C         8.39738783228753   17.58395313440702    7.80831252569000
H         7.92117533034692   18.42500115126975    7.32572813734417
C         8.48658755840683   16.37277073597603    7.14714536777122
H         8.07740322608321   16.26248577267318    6.15320486819577
C        11.70895252972812   13.26591891497070    1.62438047338017
C        11.29194579221580   14.52969068033970    1.19859761258975
H        10.52631800882179   15.04895125300463    1.75498206142289
C        11.81467658858826   15.09120794315240    0.04984523407692
H        11.47842115343632   16.06661228362589   -0.27032894070945
C        12.75801091814993   14.40457505307419   -0.69797399542184
H        13.16601889071382   14.84753842281158   -1.59436129458699
C        13.16602968145354   13.14235431744811   -0.29656346052665
H        13.89442491993202   12.59905353761835   -0.88036938320090
C        12.64351302271898   12.57405678287915    0.84842212113282
H        12.96987096756452   11.59437111632626    1.16474406657822
C        10.15208896608486    6.62145768009379    3.18044606472651
C        11.35657077225990    6.42685103876079    2.50124827036897
H        12.10527647886897    7.20540064631165    2.51942637362280
C        11.60363339472978    5.24051268189812    1.83797990178051
H        12.54859391769936    5.09606415203282    1.33467518459596
C        10.64561341698732    4.23955799102165    1.81852373918461
H        10.83866717995998    3.31449417623879    1.29543568715918
C         9.43883688465716    4.43003756637944    2.47208531857935
H         8.68507578019112    3.65665425600655    2.45053942085827
C         9.19312285151251    5.60744014475585    3.15220964859220
H         8.24423844372986    5.76398988713729    3.64425783912427
C         9.24879943071024    8.49976483882027    1.00418856368073
H         8.58756858363465    9.10346330980160    0.37329494335045
H         8.63155164635469    7.79061731265976    1.55666192964809
C        10.21133700025314    7.74370217242380    0.08728588896764
C        10.37256861643425    5.87236199568374   -1.34695638048447
H        11.42571058859856    5.90851753931248   -1.05204422414754
H         9.97846412871586    4.86223411934195   -1.22346620525535
C        10.19760134080244    6.36137765204090   -2.75984562104530
C        11.01247940420707    7.37308651870895   -3.25358919768566
H        11.78216126638771    7.79221275132143   -2.62280392327402
C        10.83375950991471    7.84416443585884   -4.54233786014578
H        11.47152179624621    8.62986116868318   -4.91914838323822
C         9.84262031323377    7.30866750938201   -5.34731256281530
H         9.70633706091984    7.67464805617136   -6.35409336230043
C         9.02566181734122    6.30316792183479   -4.85864986384083
H         8.25053200697145    5.88434590908341   -5.48304697053948
C         9.19972355064581    5.83363338342785   -3.56865855279445
H         8.56030312556718    5.05156755418563   -3.18602075528780

