40
CSD_code = AGEZAN | q = 0 | S = 0 | Stoichiometry = C12H16BClN6S3Zn | MND = 4
C         4.41491071760931    1.46220677808346    6.47491189537345
H         4.25384348265393    0.41895642365512    6.20087108013935
H         4.04561476712285    1.64558803053339    7.48070625057790
H         5.48848778810052    1.66179829804180    6.43412269008566
C         3.22915575279860    0.71624868875539    0.12961797609123
H         2.91335484497664   -0.21396802971989   -0.29499489506814
C         3.90355327919903    2.30178820720930    4.21725376046282
C         2.50372656180791    3.91055973810804    4.68885010889118
H         1.84863726822914    4.73333071784584    4.49539091136993
C         2.85769338942453    3.33002791032680    5.85808869377621
H         2.57101113406090    3.55171414605432    6.86485131688242
C         4.94676242722728    5.48110127933825    2.60549942771507
C         3.62195030187431    5.83758144960839    0.90608398273100
H         2.80758692597341    5.65463795151642    0.23785491556289
C         4.55477731191154    6.81713181500441    0.90110638473035
H         4.70282532911383    7.63948227331515    0.23277851187558
C         6.54039629356811    7.33979621956879    2.34359940120377
H         6.39056573608951    7.81161895209528    3.31621086434601
H         6.73623884106231    8.09774789511174    1.58931349655599
H         7.39715675340128    6.66649157440739    2.42201785788542
C         4.56758830476592    2.40976678405396    0.55830344335777
C         2.59447549817511    1.56765921152021    0.96756109366319
H         1.62019260619188    1.50989229083104    1.40528101637802
C         5.50674541215729    0.68342838541307   -0.92421797581032
H         5.81837444035060    1.39198088739844   -1.69276955312760
H         5.14839206959961   -0.23326321317221   -1.38530216712295
H         6.37219225468354    0.46545418248667   -0.29376257441652
B         3.01170865812756    3.74440998041424    2.20709213718766
Cl        8.74513641231563    2.37089611758938    3.20850080633836
N         3.15034509750138    3.26770529615395    3.66606186496165
N         3.72548377258767    2.31960254962619    5.55421739796006
N         3.86194899913145    5.00792204003925    1.96982039430429
N         5.37467433186714    6.59156057419763    1.97038657614720
N         3.42473468919503    2.62548378545663    1.23065056508982
N         4.45814046792239    1.25401660475498   -0.12852550070169
S         4.90521345075358    1.14793917359268    3.47124930096021
S         5.71678140381834    4.91358229177272    4.01112026731919
S         5.96619713435918    3.37107829278066    0.45395985827043
Zn        6.65883792669481    2.86845942390145    2.84258054711530
H         1.86988816359816    4.01598502232917    2.00675787093816

