40
CSD_code = AGEZER | q = 0 | S = 0 | Stoichiometry = C12H16BIN6S3Zn | MND = 4
H        -3.78109379054066    7.49157144881671    4.55640168933851
I         0.11141955510130    1.41452575094660    2.49069294403043
Zn       -1.19790390841040    3.45568724237232    3.17643567346947
S        -0.58780463999817    5.66746966664743    2.12219733641152
S        -1.15630119972718    4.10940142603400    5.61682968845369
S        -3.68963891340400    3.45763025924347    2.77020155770930
N        -3.15479206093811    6.46450687776707    2.68524623728151
N         0.28211919618351    6.36484805409611    5.59232527564954
N        -1.72956620648354    6.66011886169563    4.77573209550194
N        -4.67079634521331    3.29529795754195    5.25212615607131
C        -4.05544266385506    4.05084438977746    4.31811792307560
N        -2.70322460447580    6.16722658556983    0.56211745540264
N        -3.86003703196916    5.28354787291836    4.81596689421641
C        -1.06467700593010    7.85805163407460    4.73272857678083
H        -1.53554570421554    8.73502240179699    4.34135179115524
C        -2.20027595877829    6.09924789546927    1.81296066882983
C        -0.88416137794818    5.75361437793785    5.29458740930105
C        -4.84646703499440    4.06039846378973    6.37227262982030
H        -5.30209026698698    3.67078172781748    7.25843431161605
C        -4.28275466814967    6.74639944512347    1.95923687698432
H        -5.18723061846418    7.04929370867662    2.44312742496542
C        -4.01026527751502    6.56199577002769    0.64840795446488
H        -4.62647814908739    6.67190725628522   -0.21928269929377
C         0.17791493927024    7.68103768370475    5.23377654502866
H         0.98877289915873    8.36750293657334    5.36009683901368
B        -3.16465663147153    6.52706634585388    4.22598025606771
C        -4.34802847007755    5.28622350649445    6.09689309062913
H        -4.29188176252268    6.16403529973335    6.70539828026867
C        -5.00095983305133    1.90507916614579    5.11988678959118
H        -4.99929671541801    1.64458626214367    4.06180168709135
H        -5.98635431967201    1.71748072063926    5.54403296701113
H        -4.26054784048242    1.29007056997121    5.63663563668057
C        -2.01072456165441    5.81386315318354   -0.64390802736122
H        -2.10984434429727    6.61253522779536   -1.37900286677366
H        -2.42043738591770    4.88931789443650   -1.05564938083598
H        -0.95746439329832    5.66361693450138   -0.40781772086509
C         1.45096992762171    5.73242082824555    6.13314891340406
H         1.75456607209899    6.22905346282947    7.05532862682391
H         2.26854768686852    5.77645933600639    5.41158524747822
H         1.21373340864502    4.68986159731597    6.34449724551177

