25
CSD_code = AGIBUN | q = 0 | S = 0 | Stoichiometry = C10H8Cl2N4Pd | MND = 4
Pd        2.52621770243855    4.28657781049009    7.83177658802406
Cl        3.39576060293070    6.08603624431100    6.89112232774161
Cl        4.28042339580501    3.07654008616220    7.20977489151176
N        -0.37893075431684    4.86579111544818   10.65036222304574
C         0.46062731010077    4.47390471346966    9.69716736865597
N         1.09025332047593    5.33844060092558    8.83810265756268
C         0.83737199272580    6.63718298725207    8.96166436497167
H         1.35224897861100    7.29329953576170    8.26822682911053
C        -0.03133002820815    7.10452878014572    9.93216007398945
H        -0.23540718676867    8.15583284334155   10.03992428624482
C        -0.61888296193334    6.15124723200823   10.76572070141195
H        -1.30199633350996    6.43110521204717   11.55613623779770
N         0.64800240471814    3.16003918335946    9.49238879762251
N         1.51733981143530    2.86918051042124    8.57969501188677
C         1.57319236940262    1.54192403368196    8.18371987166339
C         1.33528572988105    0.50725965080067    9.09438579650999
H         1.09153667112163    0.76244774660895   10.11397229685514
C         1.45965337443977   -0.80306389758228    8.68260591514114
H         1.30191240687713   -1.60291897452803    9.38986589452689
C         1.79333654757761   -1.09477920016436    7.36704652398272
H         1.89476413778445   -2.12251691410952    7.05338985026483
C         1.98853698852760   -0.07056298769189    6.45206828496406
H         2.22735820863799   -0.30057990665043    5.42567488377049
C         1.88283450684652    1.24738279101251    6.84970505251667
H         1.99469080440078    2.06070080347753    6.13464327022742

