59
CSD_code = AGICOJ | q = 0 | S = 0 | Stoichiometry = C26H29AsClNPd | MND = 4
Pd        6.99010226781815    0.95558260342116   20.58910825037266
As        8.72246613419439    1.12013898185065   19.06055923671601
Cl        7.11470054433785   -1.28535416144535   19.91214603299957
N         5.43082793415397    0.75383770082553   21.98130830720687
C         6.76390538758625    2.87287596171443   21.05389364494949
C         7.05613958169370    3.98910664373185   20.25105051265849
H         7.55001115063942    3.84369592655644   19.28895972300906
C         6.71509526504885    5.24863254286532   20.66171138642306
H         6.93319759744707    6.10827477783722   20.04224401645100
C         6.07711901894703    5.45828944153994   21.90154543976312
C         5.74307574758757    6.75586688038662   22.34148874783717
H         5.98759919977476    7.59389187986611   21.70367182384093
C         5.12869944687822    6.95546546584534   23.54465375427753
H         4.87671999365169    7.95278950496546   23.87430637375556
C         4.82463291608228    5.85839290517522   24.36398386283793
H         4.34484683134915    6.02607540784241   25.31766507436001
C         5.13253212166094    4.58750245672416   23.96734239665227
H         4.89850169346501    3.76031947126173   24.62080128011813
C         5.76178158443935    4.34155077390987   22.72624567345872
C         6.10185967185038    3.05070669183400   22.25475918819161
C         5.81067591937730    1.76439683622639   23.00091583274018
H         4.98647579744060    1.86666022078476   23.72331812727916
C         7.09381357514544    1.34796170925020   23.73355308205488
H         7.84793567027907    1.02632336202108   22.99182829462186
H         6.91907272114604    0.54692913526230   24.44843346760545
H         7.49004136627277    2.20729442986098   24.27119269990487
C         4.14755192073846    1.10196966550608   21.37117785321017
H         3.94963550053007    0.42706210493598   20.53446521411185
H         4.16752171896150    2.13034225394053   21.00485958610723
H         3.33071481064132    1.00688809284921   22.10034078343466
C         5.33134891408717   -0.59064653794082   22.54740421653996
H         4.64949125105018   -0.60241867687182   23.40867675571156
H         6.31451145249742   -0.95392297375207   22.84961491418027
H         4.95266067619067   -1.27197701072317   21.78443784709454
C        10.17497898391445    2.38575413672609   18.89419687458454
H        10.10788024743097    3.45244649587860   19.04944082356726
C        11.33670157843488    1.75913243616777   18.63895362242889
C        11.24729984943062    0.29821277278004   18.48354658679241
C        10.01967526614357   -0.22531654630163   18.64191751076202
H         9.79312546067422   -1.27885559381482   18.57326454792316
C        12.65717157083258    2.44968963492933   18.50722742145710
H        13.09217608721877    2.26266392941225   17.52613502580519
H        13.35512247931939    2.07999304863694   19.25762484519037
H        12.54089388447196    3.52258039670948   18.63846268923374
C        12.46880953294197   -0.50650714009704   18.17098557831149
H        12.21371086279838   -1.55833047000262   18.07049758184251
H        13.20762345333329   -0.40111854702660   18.96489289765420
H        12.92585268631773   -0.16694057311172   17.24205662670026
C         7.73892929264537    1.34867995414915   17.39762060275353
C         6.35343771426481    1.44130558406922   17.47047539478607
H         5.86168263123567    1.38086949653305   18.45453040795102
C         5.60697592469998    1.59429861756810   16.31462007763298
H         4.52999616364069    1.66356165027716   16.37022977255376
C         6.24243504352776    1.65625301605165   15.08533157150267
H         5.66032472341928    1.77357099753542   14.18297867941233
C         7.62330295390468    1.56403609739332   15.00919931693876
H         8.11509097697522    1.60959862451997   14.04804197149700
C         8.37228595719620    1.41044656099039   16.16251241194582
H         9.45385129226130    1.33437095196288   16.11589376029793

