114
CSD_code = AGIGEC | q = 0 | S = 0 | Stoichiometry = C42H65Cl2NP2RuSi | MND = 6
Ru        1.24146451729537    0.33266818675992    3.73112540521408
Cl        1.92352948997177   -0.02295406984029    1.46395847209971
Cl        0.42743873100809    1.01426053686855    5.88095106360792
P        -0.77117623110464   -0.59962115125444    3.09960461608848
P         2.93628506168694    1.82783557221314    4.17108017823546
Si        3.98767854553964   -3.14597458927748    4.09364411478547
N         0.32007966133128    2.04871309031841    2.91231690087817
C         2.10981305516805   -1.14845118581025    4.48773684733526
C         2.76505401450421   -2.06975045498424    5.11362201102766
C         2.57191455877855   -2.36102813445647    6.54108555560851
C         3.63447121109417   -2.65378297431575    7.38835308674567
C         3.41080047400392   -2.88930282809603    8.73278426391063
C         2.12758282355563   -2.83606786186134    9.24958413841610
C         1.06443976633685   -2.54232353557397    8.41098846062188
C         1.28318214299777   -2.30854127785284    7.06783157568094
C         3.85057370749292   -4.91060171967974    4.81140912854056
C         3.51508026031390   -3.15707334265710    2.25215959003973
C         5.77995783111102   -2.49472230430909    4.25847859262937
C        -2.35365484043193   -0.47425627774544    4.06887593335878
C        -2.25188386722445   -1.29052721405372    5.35616087657183
C        -3.55098223162276   -1.21643547220601    6.15195515372150
C        -3.87725358873443    0.23431579788858    6.48714487313618
C        -3.98751279937983    1.05231215836682    5.20548366639465
C        -2.68502149575706    0.97965981448782    4.41248909379655
C        -0.81770804624962   -2.22755393042973    2.20572314795797
C        -2.17511679625907   -2.63910304597570    1.64088530051817
C        -2.01077714667780   -3.89089654542267    0.78022973705512
C        -1.41635836239247   -5.02960868980770    1.60382953135680
C        -0.07376752443627   -4.61131832920783    2.19704870123513
C        -0.23625737284187   -3.35876330773523    3.05372158582373
C        -1.15747461479837    0.55023858697271    1.69446371896572
C        -0.66741182079744    1.92486288234788    2.01912937088164
C        -1.21148365228651    3.03350881633461    1.38044477129000
C        -0.70917755586229    4.29168133437070    1.65592069207751
C         0.31926744913509    4.40490497842750    2.57414031243024
C         0.80741065794251    3.26189262743923    3.19515901885605
C         1.88287958114975    3.35552965965149    4.22616085467199
C         3.73076083976503    1.86355608978232    5.84880942992912
C         4.23226181715824    3.20183778556239    6.38823110085795
C         4.61998798474855    3.02235020814622    7.85658433123057
C         5.69451721617113    1.94948940156575    8.00972143019353
C         5.22102793698179    0.62404499607869    7.41906884631639
C         4.83298821731509    0.81146859667011    5.95541307527642
C         4.13799872946464    2.23404415974687    2.81577036240338
C         5.04318876196796    3.44791655528374    3.00034149242278
C         5.78006951915017    3.72507950634096    1.69009250744074
C         6.61005562596876    2.51333103405642    1.27400230078621
C         5.73108283522816    1.27117503788324    1.15199320674687
C         4.98860707705913    1.01424323709604    2.45962416973763
H         4.64106393924805   -2.68152154646710    7.00009371890827
H         4.24609653555997   -3.11222561689682    9.38200876393803
H         1.95772174232922   -3.01940068716250   10.30059220183575
H         0.06040630868526   -2.49212257812866    8.80682366380685
H         0.46178504521211   -2.07674399439994    6.40641125835350
H         4.18579697780515   -4.96012557676777    5.84187484752080
H         4.45593790797102   -5.60130350920172    4.23311951629905
H         2.82529173779693   -5.26780772329957    4.78558573617346
H         4.39635820475734   -3.26032051616966    1.62607056375488
H         3.01421995436283   -2.23760835201695    1.96369467782529
H         2.84948986561209   -3.98155707150502    2.01815189534370
H         6.08114152419940   -2.32022498953388    5.28657369570701
H         6.47327115858835   -3.21513840157791    3.83403538656718
H         5.90349933447428   -1.56250230232598    3.71672498134475
H        -3.15270482533877   -0.87842098831001    3.43128435915400
H        -2.01863692067821   -2.33272954498076    5.12733840188994
H        -1.43824189717428   -0.88042223881183    5.95828050746514
H        -3.45229732525908   -1.79985441030108    7.06961341971902
H        -4.36726677932989   -1.64932123707283    5.56587819484039
H        -3.07867353922433    0.64667819025107    7.10652258784128
H        -4.81124848590316    0.29099395878487    7.05063158530855
H        -4.20980208432036    2.09453114426685    5.44498331552815
H        -4.81010137476376    0.66631388708091    4.59569348702712
H        -1.87605326192769    1.39745608089895    5.01629818246024
H        -2.78546965372061    1.58313838279891    3.50607149599202
H        -0.11848157253169   -2.05752812907524    1.37225425065094
H        -2.60636286754895   -1.83529012945180    1.03944708439753
H        -2.86365412961147   -2.86582424511295    2.45798937618218
H        -1.34967867005789   -3.66805188345453   -0.06019441746398
H        -2.98022856319322   -4.18990829372760    0.37485405718890
H        -1.28836321706128   -5.91374991477831    0.97592226409405
H        -2.10509516657630   -5.29065272454933    2.41111017140128
H         0.33744684240864   -5.42318451110990    2.80054280778198
H         0.62668398952893   -4.40433936060353    1.38546293522615
H         0.72831616215638   -3.04359787196079    3.46048682505372
H        -0.90002229286216   -3.58611995239711    3.89047372335290
H        -0.58102674598949    0.17641465702859    0.83872725216593
H        -2.21826145332325    0.56083492941844    1.42844381637147
H        -2.01092109435521    2.89831868314778    0.66847272484523
H        -1.10869785324273    5.16548613076832    1.16415806127121
H         0.74143441854773    5.36719432086197    2.81845703724162
H         2.45219718885728    4.28137907268487    4.11978277511189
H         1.41106899445482    3.33055221824293    5.21804555050623
H         2.89780104300360    1.53369978983293    6.48977462678138
H         5.10506667471422    3.54014237735760    5.82807933751255
H         3.46139834778637    3.97043547024959    6.31451448178936
H         4.98214369284298    3.97094835810450    8.26012705582563
H         3.73520024943402    2.73017981337344    8.42600395790608
H         6.60310495241408    2.27156742332294    7.49378399987669
H         5.93988507968598    1.82111862781665    9.06582894302065
H         6.01347168138185   -0.12285975708983    7.50267361833511
H         4.35601661398384    0.25820872124402    7.97597525615968
H         5.71314603658822    1.13715244010919    5.39588450721084
H         4.47738915670837   -0.13002408764764    5.53035749628955
H         3.46516361800553    2.42472366865523    1.96248980079270
H         5.77870499225532    3.24264833790050    3.78031643556562
H         4.47363872827835    4.33269269357339    3.29385502001161
H         5.05232191134591    3.95176392092726    0.90715060685721
H         6.42768063200071    4.59742231463662    1.80805349015392
H         7.38591035111012    2.33477558107315    2.02318090282090
H         7.10685105033341    2.71502906720725    0.32274159629218
H         5.00314737608285    1.40916697244028    0.35027376395894
H         6.34488299317918    0.40455783120744    0.89858073110599
H         5.71312294406516    0.82292084940750    3.25292426818245
H         4.34778166157917    0.13497382333808    2.36160476856750

