53
CSD_code = AGIJEF | q = 0 | S = 0 | Stoichiometry = C18H32P2Zr | MND = 12
Zr        1.84737932346216    3.90013584716993   11.43695476649584
P         0.32727793138388    2.30628559591732    9.40751220033147
P         0.48312253691103    5.58437277646130    9.91864151231976
C        -0.15429194644947    3.39708705639639   12.36897180775406
C         0.90193391994149    2.58214833676807   12.99184533106469
C         1.92353374226651    3.16573002208795   13.80491645142922
C         2.39478157662789    4.48055944399695   13.77588990702380
C         1.84217734992275    5.56887218266239   12.95431099158972
C         0.79135499698675    1.07100910095804   12.95567383897045
C         3.62278312218817    4.78620432266151   14.60912581878152
C         3.30947766379092    3.50321379541323    9.43280540737281
C         3.49629215560733    2.41051203969164   10.31003678774961
C         4.15687399842145    2.88838754839499   11.45928579567036
C         4.37390023737029    4.26978281640501   11.29509789066577
C         3.83992924360462    4.65482385610304   10.05222472761115
C        -1.34614889474361    1.52713648570968    9.59352241902541
C         1.00418446418854    1.03661430083467    8.23425296870291
C        -0.16123936255836    3.56959912711615    8.11654019901212
C        -0.77095210230739    4.79799649031971    8.77690994338023
C        -0.64426828121446    6.73645995731254   10.80372875019590
C         1.22808414169744    6.79644162907457    8.72512401999960
H        -0.96672260429972    2.78315264253265   11.97238704206124
H        -0.56659477291481    4.17285149029859   13.02281515250496
H         2.49140823421287    2.46898141695849   14.42568221317164
H         2.47118201507722    6.46767978167516   12.98854443149377
H         0.80792962287769    5.83947377505582   13.19214451199987
H         1.75188353612473    0.59580847367885   13.16784369407859
H         0.45185095569953    0.73383859086849   11.97104717333073
H         0.06913796508895    0.70885882071470   13.69648349703440
H         3.32118296131887    5.10209148694769   15.61285947268571
H         4.20263213541145    5.60165484470611   14.17619784943535
H         4.27470258228110    3.91801818056856   14.71970216533705
H         2.96568522334472    3.44959488942196    8.40500858115125
H         3.29946203629539    1.36646346024462   10.08772202089121
H         4.53453722916522    2.27721879948698   12.27125998789008
H         4.94654114269001    4.90556116441100   11.95724033047238
H         3.95073603275814    5.63079058082529    9.59300382498106
H        -1.73022457549239    1.20463974755297    8.62613842495762
H        -2.04111308829701    2.23370900644319   10.04129741565469
H        -1.26827569056560    0.66246013525211   10.25017685045732
H         1.11488977019774    0.09448465253826    8.77026319155539
H         1.98304835839948    1.34148383177834    7.87254036951451
H         0.33649947721649    0.88749305619411    7.38614407454084
H         0.73710578859567    3.85464706592233    7.56078221468553
H        -0.86489649228168    3.11187027533433    7.41284773481504
H        -1.62313234450048    4.50176838832521    9.39599553190992
H        -1.11730464432553    5.51709083337187    8.02715176656519
H        -1.29148780444485    7.25900250884274   10.09823888802836
H        -0.04590044247740    7.45862408387165   11.35761756109549
H        -1.24737779626817    6.16525421877803   11.50757989774160
H         0.46330879533086    7.40837793384117    8.24687750758611
H         1.79587842423136    6.26291656066273    7.96414936372627
H         1.91294215246006    7.43916657144313    9.27818572350736

