95
CSD_code = AGIJAC | q = 1 | S = 0 | Stoichiometry = C44H43N4P2RuS(1+) | MND = 6
Ru       10.03849196028565    2.92730469806091    3.47800517494223
S         8.39161345096660    1.10025411487342    3.47433970570434
P         9.95510188991635    2.70730521898942    1.11128405340425
P        12.16206732031860    2.02721786180315    3.66245143559921
N        10.88741723202817    4.74788589887923    3.74126514012158
N         9.98717660673769    3.07364853008422    5.48376495023235
N         8.04340709636424    3.63344371549826    3.49047758382705
N         6.05883814726163    2.32608002555241    3.61626954190204
C        11.27355369888207    5.59426986406363    2.78667740164242
H        11.14225485647810    5.24238336105726    1.77385578258088
C        11.79901490290547    6.84537530382596    3.03429148004066
H        12.09715958844536    7.47889883596707    2.21471334663829
C        11.93190702571219    7.26402307576562    4.35295893185855
H        12.34338702606908    8.23163307766558    4.58967016184586
C        11.51137414559472    6.40997685361242    5.35304929758274
H        11.58616772659452    6.71029437685151    6.38457487906975
C        10.98938935953010    5.15828581717738    5.02713549657057
C        10.50347685726292    4.20167150359377    6.01319830769108
C        10.06792012502904    3.42698932979466    8.24035696914225
H        10.09788721326891    3.56439060339035    9.30933006951700
C         9.54529285100903    2.26751152429229    7.68359995041547
H         9.15739919478275    1.47503754989319    8.30225972166783
C         9.52734992738497    2.13528601071175    6.30840841996000
H         9.12376626166187    1.24081892843170    5.84876768667762
C        10.55396985820857    4.40246604794271    7.39187548697012
H        10.97407647892245    5.30868132847337    7.79453068624761
C         7.36960880041197    2.45816191725244    3.53964981679036
C         5.32558510151606    3.42491643529576    3.63732637346118
C         3.84845475383659    3.26523198104595    3.71542907035436
H         3.49142235540177    3.60837482571114    4.68536325526955
H         3.58636834631152    2.21897659444980    3.59217228533379
H         3.36127531393932    3.86463566324437    2.94964315250224
C         5.93447588721925    4.68239534252981    3.59070665026662
H         5.34306329931955    5.58260759323564    3.60639905949307
C         7.31694820551044    4.75398627295087    3.51884359950924
C         8.01221991259922    6.07651593407161    3.46982783290959
H         8.56021811145720    6.25154955259281    4.39646650920757
H         7.28801147212279    6.87567586598832    3.34083220685003
H         8.71615788328124    6.09889646647622    2.63967623218600
C         8.55856600758678    3.72369106915724    0.52214530774719
C         7.28164639229266    3.16368219249011    0.57227384398774
H         7.16323554280159    2.12614332602765    0.85754797526806
C         6.17192962925634    3.91948451371422    0.24777428339231
H         5.19032610048253    3.47160871138791    0.28885843040557
C         6.32051028801065    5.24402147682911   -0.13261765810718
H         5.45396780522727    5.83487198879341   -0.38709027027384
C         7.58463762728732    5.80414325631686   -0.19728323772671
H         7.70549322686772    6.83182459236264   -0.50648473006590
C         8.69911105871351    5.05183213994810    0.13349035682985
H         9.67931600618757    5.50377383235259    0.06779794525398
C         9.55242136977663    1.12864896271102    0.27170110170479
C         9.09169735677687    1.17714010929610   -1.04322390181031
H         8.92567707293896    2.13039333685913   -1.52659630482254
C         8.82592441805030    0.00856238396659   -1.73111482472203
H         8.46394053637587    0.05729746890627   -2.74717463439976
C         9.02047949833527   -1.22010537611012   -1.12002316346796
H         8.80830215771540   -2.13067386234971   -1.65902885660129
C         9.48311937137084   -1.27454690239016    0.18317998724572
H         9.63481966662361   -2.22724774844263    0.66726056120178
C         9.74990272581962   -0.10659517310569    0.87569510106822
H        10.09564980269541   -0.15958978498142    1.89846637613650
C        11.32767776829890    3.22940328310337   -0.03654860067918
H        10.86509419266283    3.44268422229816   -1.00508336978939
H        11.77234185809771    4.15955884328100    0.32123629961380
C        12.42809947098925    2.18125485316454   -0.22376984135266
H        12.08235886630227    1.42585250398465   -0.93207859337862
H        13.30098474491327    2.67032085001476   -0.66381711937836
C        12.47981867457755    0.26468694426570    3.98298712567368
C        11.42181713032627   -0.60709431293339    4.20770280442729
H        10.40694734542881   -0.23342085283640    4.18208396960800
C        11.66527930466692   -1.94589979590371    4.46287915370692
H        10.83779865978445   -2.61823831789248    4.63084150693541
C        12.96615186462330   -2.41698693000905    4.50192636693037
H        13.15797316164152   -3.46108336789674    4.69664437263389
C        14.02617290064167   -1.54592857153346    4.29846119376223
H        15.04092599013900   -1.91174794108794    4.34096452019861
C        13.78879083256331   -0.20917268666474    4.04389149406733
H        14.61866628603950    0.46879003429011    3.90404300991655
C        13.07528256596531    2.77278706853534    5.05500140137430
C        12.97752568302156    2.18298704382286    6.31368366737016
H        12.42982882190943    1.25621693271877    6.42513773301795
C        13.58111187842532    2.77034686801595    7.40932902711323
H        13.50471416557267    2.30311433090861    8.37959017204707
C        14.28617288099406    3.95436265496562    7.26162909742945
H        14.76035131056336    4.41121152723244    8.11667189718726
C        14.38876249801189    4.54617474732227    6.01374309833456
H        14.94374835124802    5.46487501098447    5.89468168219645
C        13.78222209813241    3.96344328908394    4.91497619019572
H        13.86545943066244    4.43504745372541    3.94529845485138
C        13.25456149348740    2.36996569474624    2.21482376462352
H        13.13622607565990    3.42383218805742    1.95122391720112
H        14.29828885606765    2.21255807617110    2.49720803615128
C        12.82871229630883    1.45635231361763    1.05856184142559
H        13.63201082603783    0.75591872108789    0.82532019345827
H        11.96917781041870    0.85920890656788    1.38175413891831

