60
CSD_code = AGIJOP | q = 0 | S = 0 | Stoichiometry = C17H37BrP4Zr | MND = 10
Zr        2.68823331954811    2.46369475146746   11.38229224829625
Br        1.06807581198502    4.57636219683068   11.72316812858449
P         0.38076632254271    1.49982944650581   10.47736452998143
P         1.42263058452443    1.99000708323200   13.68243534627304
P         4.29299442323920    4.44664142301361   12.16474857402619
P         3.01583278824878    3.75925245499451    9.08187839138706
C         3.13978497511961    0.01222636260119   11.32718291311270
C         3.98290866985926    0.41633187366881   12.38047019752226
C         4.96804202937291    1.25969184387915   11.85621549659206
C         4.74829680364003    1.38971764250199   10.47122577801346
C         3.61865700311522    0.60691367939871   10.13625912223452
C        -0.49224487610045    0.79407713538563   11.98702082316688
C        -0.37034720154015    1.72753155009296   13.18565424416675
C         0.16560299592631    0.04198404478722    9.36135595353358
C        -1.02164742506208    2.51028800463001    9.81936999052621
C         1.10439020886494    3.22483554143277   15.02647574937244
C         1.60691514346025    0.49925828998515   14.75938465996877
C         4.24708051327256    5.67506077523737   10.74371575039418
C         4.40997182132728    4.98274716966792    9.39553787086679
C         3.94334963189508    5.65757338928108   13.52244218376412
C         6.12802987197547    4.37201283391517   12.37397638088344
C         1.80601075486074    4.93748484387476    8.32775110673698
C         3.66182158278640    3.04361713652410    7.50450270050109
H         2.38318101438069   -0.76217802007748   11.39587608782431
H         3.96148067857699    0.04335893342485   13.39580540227962
H         5.82069368691467    1.63469950359784   12.40645651990112
H         5.43597239153535    1.85231065194231    9.77123438805343
H         3.27232748215263    0.38683513307694    9.13097127651640
H        -1.54608561590963    0.60958737001983   11.75036412577090
H        -0.01611645802413   -0.16643659772017   12.21630635958175
H        -0.91232587979164    1.31774003723586   14.04550363215618
H        -0.79714882299346    2.70543763316534   12.94428932699559
H         0.86408063996383   -0.74865427207972    9.62545361313368
H         0.36997819693309    0.35652567608115    8.33741291202743
H        -0.85400184998063   -0.33985333289673    9.42345020896073
H        -1.20431762864664    3.36665567614068   10.46463462396894
H        -1.92413913265491    1.90353586134732    9.74054230979510
H        -0.74865032550848    2.88105603356469    8.83138375789263
H         0.83024554245232    4.18149042425037   14.58609369212516
H         2.01993148266260    3.35272903207668   15.60549121917390
H         0.30437956803432    2.88317999493690   15.68389456235358
H         1.63659773841836   -0.40336343734847   14.15106584461614
H         0.77845154156648    0.43473361466820   15.46562072412825
H         2.54103939974072    0.57451953158511   15.31552087797474
H         3.28654409505152    6.19713321371306   10.78375420971297
H         5.04569874742348    6.41035347343801   10.89412586217212
H         5.34777516516589    4.41507566634112    9.38209941291451
H         4.44131317025543    5.72115924698929    8.58658887926474
H         2.89627711624280    5.95213262210189   13.48909491035505
H         4.57440478374124    6.54135420534100   13.42454370321604
H         4.14299061899076    5.17348122212302   14.47941669656079
H         6.58030531514142    3.82566292706357   11.54779084995322
H         6.35979660419173    3.85187166903692   13.30313544727121
H         6.54740394079666    5.37777353258079   12.41727375886152
H         1.41747837073277    5.61493322641218    9.08475063164094
H         0.97127028816163    4.36581167379847    7.92257289875250
H         2.27743394507904    5.50552681384821    7.52538410947271
H         4.47381181166792    2.34804146591653    7.70350122777129
H         4.01633246655126    3.83439371873019    6.84246371316921
H         2.85313415812266    2.50034640268734    7.01440408377727

