98
CSD_code = AGIJUV | q = -1 | S = 0 | Stoichiometry = C31H60ClNSi4Ta(1-) | MND = 9
Ta        5.93224302838243    3.82095350556158   -2.23302855594403
Cl        4.18032732679921    5.23961082196261   -2.16975709881467
Si        4.75317471407541    2.53320266694654   -4.30157246408602
Si        5.48812343841213    0.25948108867852   -4.40825074651358
Si        2.39425925858022    2.51015636782793   -3.92641584485858
Si        5.15987356389967    3.55736988004171   -6.41563389376438
N         7.15910689665632    4.63910669808534   -3.30400473743794
C         5.39425835204738    5.38466213715294    0.97524975907180
C         4.46930916651206    4.30515154841472    0.95744855907754
C         5.16012690618223    3.13768557069093    0.64968673756798
C         6.54226759853172    3.47886263556450    0.46374843320822
C         6.66017613492118    4.88529520702892    0.69491539175365
C         4.99194542291600    6.81062924967176    1.18478275275251
C         2.99728360980109    4.47166852205942    1.17482568685959
C         4.63835725722098    1.72852806657196    0.67327361962549
C         7.68004515103395    2.51131816531831    0.64178808466846
C         7.97274255810797    5.61463110591491    0.72024394882367
C         8.04914706053458    5.33348508898633   -4.01814204489554
C         7.85287078914407    6.71638649726867   -4.29383519317760
C         8.79337455616243    7.40733483311279   -5.03279021755689
C         9.92567075207608    6.77936666443388   -5.52393255417029
C        10.13231241066730    5.43586168493956   -5.25797551511097
C         9.22219152265661    4.70380293858707   -4.52184084521144
C         6.63614088141255    7.39062197765934   -3.70589896218962
C         6.18426709476520    8.63818044994736   -4.46371086539364
C         6.91202700957977    7.73108631797281   -2.23800579245352
C         9.44384270465968    3.25517299500445   -4.16307260533083
C        10.32743851110262    2.49326250773525   -5.14886533196544
C        10.03203044165054    3.18538457643858   -2.75026859598564
C         7.38643570576209   -0.00616822968496   -4.36787472684923
C         4.79462985947501   -0.77328834211663   -2.94091948816479
C         4.89656815404213   -0.65960952685716   -5.99260237030364
C         1.97295304330416    2.21571873264889   -2.07932381648119
C         1.47932655527083    1.12314312085827   -4.89269966499680
C         1.52192172761857    4.13796556255858   -4.44375154812677
C         3.92716801310537    2.90652482335139   -7.74954332488716
C         4.97101474326655    5.46423617237949   -6.41151486265098
C         6.91065721723385    3.20970301867806   -7.12113541288066
H         4.46195798106298    6.93371747441430    2.13336638681177
H         4.31814465264471    7.14164733291978    0.38869981163403
H         5.85762693442444    7.47146625695637    1.18998972094376
H         2.80194937427729    5.00767097006368    2.10723235887541
H         2.54383535438753    5.05207006006876    0.36460314485536
H         2.48981482968729    3.50855143412539    1.22607134779089
H         4.88771422785694    1.24022355929709    1.62200284052010
H         5.07733556276179    1.13094127081434   -0.12984256882133
H         3.55446286336904    1.70138896398195    0.56252933326516
H         7.87529652886303    2.35364601455621    1.70853208007433
H         7.45449838634322    1.54411620972779    0.19416876461628
H         8.59349696578092    2.88912496870106    0.18416610469966
H         8.56053483784795    5.31672989044326    1.59469715153602
H         7.82627931179713    6.69272375336969    0.76905638844114
H         8.56576391653111    5.39142183589965   -0.16998715299874
H         8.65190793898803    8.45916357527401   -5.23538372724527
H        10.64910160846252    7.33758292048803   -6.10280601801936
H        11.02709894794693    4.96105096819083   -5.63399079332170
H         5.82048841771584    6.66009371026759   -3.72906927705828
H         5.21284834001796    8.95825214463636   -4.09071732504316
H         6.88372074417023    9.46086357170013   -4.32351850544156
H         6.09157614895512    8.43281177379708   -5.52812145341697
H         7.14507646979645    6.82061004437256   -1.68994183383592
H         6.03768110933081    8.19419497985551   -1.78389630651048
H         7.75532983665556    8.41692653075336   -2.15632403080201
H         8.45569062801041    2.78239044833748   -4.12537559671034
H        10.30272873567536    1.43117170469740   -4.91398851708329
H         9.97465180689684    2.62948948369266   -6.16862536652368
H        11.36230361216018    2.82549799720505   -5.08903276919304
H        10.19590365730756    2.15054211083417   -2.45665425064734
H         9.32617896888580    3.63472947913885   -2.05515437869566
H        10.97868766195772    3.72213089038294   -2.70123973888748
H         7.67132341567188   -1.05531288854972   -4.32836913813045
H         7.80081082752641    0.48663994013694   -3.49466790194102
H         7.85858129541277    0.43177984642301   -5.24111845665784
H         5.14054051641264   -1.80405942919189   -2.94276225272248
H         3.70894919245818   -0.79226315080660   -2.95111473125790
H         5.10466609172573   -0.32748762650433   -2.00080452795106
H         5.16405248088131   -1.71243520924495   -5.98619096205920
H         3.81953137065954   -0.59607889474616   -6.09772710576656
H         5.33525364828373   -0.21627817491550   -6.87997585135981
H         2.35878527531894    1.25899328981015   -1.73673782674343
H         0.90449020151904    2.23253188303090   -1.87342606296512
H         2.43146952431596    2.99041823266260   -1.47196613532629
H         1.82184497891554    0.14153507564164   -4.58402288454287
H         0.40360053653731    1.15690444000790   -4.74466989339224
H         1.66689286774242    1.21249451371669   -5.95685714268721
H         0.45822777892786    4.13908641116404   -4.21619073682286
H         1.63313959484401    4.32307716847474   -5.50805664909377
H         1.97080472274791    4.97399807157276   -3.91836389594694
H         3.97516284510644    1.82577473545950   -7.82389447631143
H         2.90503427237134    3.16719660520822   -7.49618299519872
H         4.13378257972227    3.31277533708317   -8.73567488437298
H         4.18871453099412    5.77066947740097   -5.72412490659510
H         5.89570133640709    5.92053638314301   -6.07360470961828
H         4.73095431415267    5.87677507994777   -7.38879952364211
H         7.10944117033782    2.14430200758135   -7.18081893067093
H         7.65756937704531    3.65068298450405   -6.46957980126533
H         7.05111391594532    3.62799007497901   -8.11480031483892
H         6.82456583987789    2.41692638571945   -2.10853901913247

