73
CSD_code = AGIKIK | q = 0 | S = 0 | Stoichiometry = C27H44NTa | MND = 8
Ta        2.80681483764192    2.42705411578490    1.84775673718929
N         2.54253997953308    2.42226960695777    3.63622399581565
C         3.83731884805736    4.45067092658000    1.34697429331608
C         3.69126113537993    5.71499924896091    2.18794234452083
C         4.18037869059528    5.46960842359695    3.61772178101848
C         2.22634476342189    6.15677096026105    2.21131268873201
C         4.53553970609288    6.83706674535895    1.56161667139524
C         2.47699699558630    2.33117250501730    4.97363699604913
C         3.43564719048390    1.56868655437962    5.69683671699984
C         3.37448598119321    1.53952688559646    7.07716771429947
C         2.38440499473969    2.21305897194253    7.77256716632138
C         1.42572606063421    2.92388766180758    7.07630546112318
C         1.45261215757386    2.99354047562001    5.69534765152330
C         4.51046353388220    0.83120599464293    4.93613089693550
C         5.03989989468582   -0.40312291488186    5.66593282176705
C         5.66065699931129    1.79338148712535    4.61861027709501
C         0.39088460367656    3.76557199218681    4.95031504350707
C        -0.99444465583164    3.16466612620046    5.20130777178935
C         0.41181670760540    5.24613029355387    5.33525064909807
C         0.65292761994679    1.74817197448017    0.92536414779930
C         0.51462178369704    3.07902937804796    0.38793409691280
C         1.31279729641217    3.15899416066224   -0.75510073517294
C         1.91784114656331    1.88718848191526   -0.98387797764068
C         1.48985931723994    1.00943691972896    0.01108284418702
C        -0.33580983214417    1.09658394747772    1.85191020719772
C        -0.48474362752561    4.09099062684470    0.85953146640624
C         1.47293780077960    4.33532404936457   -1.66467087103655
C         2.80336795599704    1.57924525980536   -2.14954220111959
C         1.72741203069762   -0.46868812129515    0.09311638560741
H         4.09146802209277    1.37625023309200    1.57583598609485
H         3.50561099170691    4.67836009348640    0.32757894426663
H         4.90551746702300    4.19865722871245    1.28737985845699
H         4.08285582362872    6.37582383029969    4.21227279229886
H         5.22789124046173    5.17611188572151    3.61488848929558
H         3.60223915841386    4.67607158564646    4.08660771038525
H         1.88335696310907    6.38942997113502    1.20463634361455
H         1.60484836578488    5.36469788626165    2.62318637702395
H         2.10447319238348    7.04780270427970    2.82372557308502
H         4.21503608297644    7.03855979332913    0.54102602249415
H         4.43412485855789    7.75437743760742    2.13805477722438
H         5.58744961038567    6.56029192269876    1.54209542816210
H         4.11021175383773    0.97951344684372    7.63244285448708
H         2.35820803307009    2.17573965890858    8.85149238571084
H         0.64552408880959    3.43520918431665    7.62049213650663
H         4.07089009080255    0.50416864895196    3.98510053993215
H         5.65970306900760   -0.98714524106532    4.98925629760895
H         5.65166372390359   -0.12521170215301    6.52076792079093
H         4.22017881239774   -1.02971041922336    6.00910976445050
H         5.29454584120703    2.61874375305801    4.01098757479796
H         6.44345162337519    1.27439357043786    4.07044914666671
H         6.08193703645637    2.18922177257507    5.54039652970352
H         0.62184976721683    3.67598127847191    3.88109951025148
H        -0.99693272389072    2.10378999194739    4.96139216123160
H        -1.27964293341721    3.27715286258301    6.24436552717325
H        -1.74297106820253    3.66573045778363    4.58946293985515
H         0.13368850255530    5.37604162406950    6.37818226294321
H        -0.29142442168319    5.80690143648181    4.72238041921748
H         1.40659675532722    5.65879684996619    5.19186701642497
H         0.13869862846574    0.31806375063302    2.45202752649584
H        -0.77656540486108    1.82659125532637    2.52749792719979
H        -1.14403915506076    0.63556597534210    1.27869257505168
H        -0.19567027540072    5.10137015893086    0.57746612348390
H        -0.60871763093824    4.05930130734042    1.94087546616662
H        -1.45791556381006    3.88465641422859    0.40682515835738
H         2.51211342755652    4.45838454930403   -1.97440160045424
H         1.14358866977430    5.25586867282836   -1.18607827672055
H         0.87814055702060    4.19620585550132   -2.57009278967426
H         2.22645613972362    1.58900654497970   -3.07658322024208
H         3.26349633233819    0.59853822032681   -2.04792339399186
H         3.59721401095658    2.32180081236504   -2.24962330009108
H         0.90648426173287   -1.00827749934308   -0.38587471651360
H         2.65118870570188   -0.75281506950550   -0.40960824019248
H         1.78681765356851   -0.80103543216392    1.13076242926526

