116
CSD_code = AGIPEM | q = -1 | S = 0 | Stoichiometry = C56H56B2FHg(1-) | MND = 3
Hg        7.69538314365187    8.23245217426829    6.45295396099294
B         7.85188399089828    6.00662119080967    8.84198519316783
B         7.40863521214645    6.78563793788337    3.26127056432566
F         7.77270883229869    5.86070456410385    7.35163378784677
C         9.67013763270142    8.31603384346587    7.52405485913733
C        10.48961130248431    9.31261492045347    7.02942059047063
H        10.11040501440251   10.01774392123578    6.29340792326032
C        11.82346243061650    9.46949912995108    7.43141964362981
H        12.42420393547726   10.26578612660066    7.00756160591546
C        12.34692811269968    8.61297336033484    8.35026959588009
H        13.37728968085500    8.70474712251269    8.67448467200294
C        12.12049243722317    6.78023306343094    9.91558361657454
H        13.15884938784522    6.93594467139040   10.18451108214173
C        11.36496676213292    5.82937570618419   10.53397129992287
H        11.78724740924294    5.20333691418383   11.31072554699909
C        10.03024213702040    5.66238007967268   10.15631896768136
H         9.45680205552428    4.90246825297473   10.66895961587028
C         9.41091517121330    6.40432780598203    9.16980838979286
C        10.18720744061785    7.42301662873406    8.51968411341761
C        11.55050854817241    7.59921022053869    8.92083930813146
C         6.72478206615689    7.16870073258387    9.16738901512404
C         6.93120400101706    8.31285659617758    9.96324828131375
C         5.93779144626113    9.27340036556846   10.10909253232033
H         6.13429874420280   10.14603096694994   10.72235432617742
C         4.69837117261945    9.14946092579723    9.50359688808598
C         4.46509671297715    8.00603541364760    8.76464818355942
H         3.49523282367334    7.85902978576893    8.30362698239862
C         5.44365875581713    7.03176135265160    8.59636729631287
C         8.19685192972305    8.56125938433327   10.74111830886304
H         8.94169572901501    9.05369215346864   10.11663040145469
H         8.63182726438438    7.63474729675373   11.10157844957841
H         7.98918685161517    9.20974603296495   11.59305071779029
C         3.64876990397169   10.21167281877556    9.67005925138606
H         4.01973762501296   11.17535161477048    9.31852535867630
H         3.37704477906639   10.32378196594745   10.72085424120944
H         2.75298362633779    9.95877053859921    9.10611274127026
C         5.02426218380037    5.81637163676061    7.81403340191616
H         5.09468319672686    6.01935674103911    6.74501758038765
H         3.98603943434888    5.56831207736338    8.03840650107160
H         5.64893942126397    4.96069597783293    8.04372493326379
C         7.50408168776286    4.51446549267686    9.44605663041903
C         8.02005496467470    3.37634155894389    8.80254644627811
C         7.68782477903206    2.09534913104220    9.22760538920046
H         8.09695156548418    1.24237739158068    8.69779542984237
C         6.85920564580852    1.88062967497062   10.31243941258519
C         6.39845736536537    2.99591497379496   10.99216790290198
H         5.77749137059688    2.85425554998043   11.86960532452924
C         6.71274452058926    4.28509705514408   10.58368587899158
C         8.97173451384942    3.46995117589417    7.64254939505510
H         9.57679605088199    2.56526697618816    7.57623942720203
H         9.62848477094269    4.32767600989991    7.74918019088152
H         8.42603773125466    3.58218085982088    6.70711080603265
C         6.48601392550567    0.49613791954501   10.76273556993577
H         6.77024174819606    0.33974292735314   11.80405875370469
H         6.98162516698718   -0.25644654551437   10.15211289363361
H         5.40796904095942    0.34700386700915   10.68630767261208
C         6.18469054119480    5.40577488784040   11.43554981071214
H         6.94701111739050    6.16081491925233   11.59594947200012
H         5.85976832322879    5.02275296781499   12.40327951715946
H         5.33544695167996    5.88913590382653   10.95656314278973
C         5.75316796006747    8.65493802943606    5.24819227703669
C         4.98879954900331    9.56952737269074    5.95121479516780
H         5.39953404144447   10.05428490452919    6.83242740544816
C         3.67699260842525    9.91257495526410    5.59604612755052
H         3.13069528053492   10.62801519739645    6.19723946553472
C         3.10028632823856    9.33065991129615    4.50758470631941
H         2.08092343494947    9.56028429841891    4.22184590810792
C         3.21537925517400    7.83048662164753    2.59989785012586
H         2.19234071083999    8.10221459034823    2.37111282518350
C         3.89330137576059    6.93801941209406    1.82195014518517
H         3.42265457537086    6.47932728755312    0.96219630495463
C         5.21346777435546    6.61540279998387    2.14302405086753
H         5.73285768561103    5.91349720001764    1.50421920813406
C         5.88774800047146    7.17020218057014    3.22121850354162
C         5.17489743590608    8.07597244879064    4.07484501262670
C         3.83038240727314    8.41244041986195    3.72658282501293
C         7.74587096968813    5.32028396621317    2.77108663740342
C         8.51550379133545    5.09645745248055    1.62081870547886
C         8.78854757621566    3.80369220599147    1.19530818326071
H         9.38328909478954    3.65588730522601    0.30234899085550
C         8.32197383172904    2.70012505756887    1.88954799005507
C         7.54381679907894    2.91944068506742    3.01669055401768
H         7.15944424368902    2.06956693861552    3.56505640821623
C         7.24340645988429    4.19992833336135    3.45223773993368
C         9.04605243698273    6.24420223931308    0.80734072942672
H         8.27395894768897    6.99148927560356    0.63833836129677
H         9.41074264214683    5.89389638933462   -0.15715881528510
H         9.86782215308696    6.73274452803262    1.32888050967482
C         8.62803453751769    1.30253049371194    1.43659582970853
H         7.71077685375778    0.78514377693908    1.15371489793137
H         9.09407554241586    0.73594778241205    2.24206497099400
H         9.29968888623532    1.30800547456729    0.58061847568936
C         6.37062335897010    4.37443882853857    4.65670063122534
H         6.80616341717879    5.08169592073947    5.35639704826899
H         6.21730266496812    3.42785433314203    5.17090777208904
H         5.39774339371685    4.76463933188114    4.35824143038824
C         8.60456302207825    7.79386012457523    3.43769527955538
C         8.57469960265007    9.08049260517128    2.86218324817029
C         9.70091569260549    9.89052661186431    2.88378079907659
H         9.65142055349973   10.87253131352361    2.42967682157621
C        10.88639742469323    9.47721035486215    3.46764951402783
C        10.92225110501458    8.21584254073206    4.04146835198405
H        11.83707657706321    7.87719937836321    4.50864857485304
C         9.81728927406417    7.37875672801720    4.03526202275011
C         7.34952342171213    9.62259093057231    2.18129308645881
H         7.60505622306233   10.49000332191375    1.57432339172034
H         6.61642238921482    9.93109885564233    2.92544405036702
H         6.87826752967917    8.87715918800295    1.54531500874199
C        12.09277747977606   10.36628005522134    3.50312599903127
H        11.99091779194947   11.19486745676811    2.80488186914245
H        12.99296336111286    9.80436551540381    3.25843454867066
H        12.21943285381970   10.77518564909388    4.50562625162666
C         9.97490144064766    6.02367093380965    4.66233337249293
H        10.14705166837009    5.26739083126663    3.89627613179045
H         9.09250551203863    5.73632156303724    5.22416880232642
H        10.82383096623361    6.02316338383184    5.34283961832610

