57
CSD_code = AGIRIS | q = 0 | S = 0 | Stoichiometry = C16H32F6NiP2 | MND = 4
Ni       -0.72933848452076    4.72952234393465    4.21465555544466
P         0.07259942824322    3.12973715398767    2.90913049949295
C         0.06713229701251    6.08860197517882    3.19858099064379
F        -0.55361631234752    7.26117703731440    2.94385347149209
F         1.23383443814172    6.42128756340093    3.83544310215606
F         0.49314043551692    5.70796609296965    1.93524904405516
C        -0.10964767604105    1.49875503405487    3.77134021719263
H        -0.13850057353431    0.67818941361356    3.05150842926379
H         0.78661231351389    1.37801359821835    4.38621153163288
C         1.77917847187537    3.02454318627011    2.16607977061450
H         1.79942379452085    3.80609845221858    1.39939873264046
C         2.80265146571958    3.38441577540820    3.24258678647624
H         3.78651468362234    3.51325487536914    2.79632482005699
H         2.87671916083014    2.59669930588791    3.99139648288078
H         2.53171279966108    4.31623332600680    3.73583381489541
C         2.13409930414665    1.69330534925179    1.51245936332695
H         3.14342394149363    1.75832989124751    1.10889845076261
H         1.46526594330466    1.45890516068223    0.68938448747130
H         2.11608532449255    0.87613677223185    2.23000658456118
C        -1.10118978489271    3.07874283341105    1.45442741830340
H        -0.58807784899875    3.65787283874050    0.67669538820202
C        -1.45705975760580    1.70093636334350    0.90459070632932
H        -2.08512276062732    1.82313474838059    0.02336516988241
H        -2.01950640763015    1.11930477365574    1.63217081055747
H        -0.57904511127775    1.13276809554272    0.61061649890266
C        -2.37937609117535    3.82502318491075    1.85216815641110
H        -2.97339423220738    4.06570821688924    0.97255188489977
H        -2.14631577517243    4.77274421650605    2.36452760524485
H        -2.98947748599019    3.21289260244781    2.51456475946467
P        -1.53144777979245    3.12972440311515    5.52006053219234
C        -1.52595416408355    6.08862109541421    5.23065593055753
F        -0.90523738650473    7.26120940202768    5.48540941294553
F        -2.69262215787864    6.42125485608371    4.59367759969361
F        -1.95204889135654    5.70801716750004    6.49397417898246
C        -1.34920306873071    1.49874840485530    4.65783840917289
H        -1.32034987944236    0.67818045974093    5.37766758080811
H        -2.24546407959213    1.37801119638286    4.04296780938237
C        -3.23802972928874    3.02454069817611    6.26310579102891
H        -3.25827014565597    3.80608776357527    7.02979507220979
C        -4.26149508545223    3.38443115730716    5.18659889110715
H        -5.24535796139040    3.51327974657172    5.63285683129977
H        -4.33557133224798    2.59672078093609    4.43778469701759
H        -3.99054423481583    4.31624689757352    4.69335792514422
C        -3.59296145368151    1.69329990834542    6.91671330269358
H        -4.60228654128651    1.75832766412282    7.32027231031959
H        -2.92413088978710    1.45888771958119    7.73978687424264
H        -3.57495104537641    0.87613861907589    6.19915817317309
C        -0.35766434791822    3.07873802784654    6.97476421272319
H        -0.87077252738391    3.65787717355036    7.75249279651039
C        -0.00180034829726    1.70093375396257    7.52460412788007
H         0.62626167983247    1.82313528275457    8.40582829993454
H         0.56064538350034    1.11929672474018    6.79702669668171
H        -0.87981765615496    1.13276977486437    7.81857977408054
C         0.92052355481620    3.82501120351145    6.57701515994690
H         1.51454578531094    4.06570494517457    7.45662611955136
H         0.68745882076087    4.77272797327434    6.06464187191791
H         1.53061998180754    3.21287701885700    5.91461908555952

