57
CSD_code = AGIRUE | q = 0 | S = 0 | Stoichiometry = C16H38NiP2 | MND = 4
Ni       12.30011161120180    3.19583420937754    4.40232455172761
P        11.89595506959535    1.59542531572712    2.90717833139044
C        13.19063357282941    1.29986001275765    1.59180312301642
H        13.06678576735822    0.28867629415227    1.18369715012511
C        10.30484415964221    1.52791399365296    1.93342858780896
H        10.38613885309122    2.35331521096644    1.21603274361035
C        12.71454109640992    4.67360676309578    5.65489559187371
H        13.35712454671629    4.30870481993911    6.46545071233569
H        11.77986754475356    5.02641003893008    6.10961413433175
H        13.21473726286022    5.54575450746747    5.22763011756859
C        11.87200105118432   -0.05736151686583    3.76949209535538
H        10.82962443707055   -0.24791910051396    4.03637317095513
H        12.19284188019326   -0.84914424580082    3.08584118155965
C        14.55615513279607    1.41556898643309    2.26401641720096
H        14.61163924253390    2.35668237094309    2.81449405141088
H        15.35649669842293    1.40060941276875    1.52523441186784
H        14.72338105387335    0.59587688708019    2.95902441804455
C        10.05579905269316    0.23430855345083    1.16600324592433
H        10.86722951404797    0.01768778044775    0.47527842550067
H         9.13717277305981    0.32538614836214    0.58741358312997
H         9.94043869302323   -0.60981310347621    1.84186417056467
C        13.08317470972059    2.32328832519557    0.46612394309423
H        12.17007536206486    2.19449215441275   -0.11044085988139
H        13.92717206203207    2.21560161661811   -0.21482813407210
H        13.10195300799425    3.33061965668317    0.87573712459878
C         9.14597131517449    1.85429250035401    2.87283253132994
H         8.93846563823729    1.02569999635904    3.54743032376632
H         8.23857794246559    2.06120256907042    2.30764995328241
H         9.39052148211404    2.73438685587624    3.46900627896885
P        12.70412095401390    1.59547272553986    5.89757702407930
C        11.40945403697925    1.29987626592782    7.21293734926587
H        11.53330940060448    0.28869258880542    7.62104636944536
C        14.29523692161786    1.52793165754056    6.87132038618068
H        14.21393340544601    2.35333066488096    7.58871773239681
C        11.88556072659270    4.67363750321916    3.14984091071687
H        11.24296261698250    4.30872318355786    2.33930287967728
H        12.82020095174894    5.02645810285280    2.69507785884590
H        11.38536011118973    5.54577343450245    3.57712846119259
C        12.72804604264275   -0.05729975450547    5.03522226731321
H        13.77041811999249   -0.24785443830370    4.76831905277159
H        12.40724094044957   -0.84910631867989    5.71886387091048
C        10.04393443980622    1.41556302138378    6.54071517968429
H         9.98844205187532    2.35667622542617    5.99023558259398
H         9.24359445607541    1.40059560635127    7.27949884816100
H         9.87672285125239    0.59586516846453    5.84571015839454
C        14.54428956910144    0.23432294089207    7.63874137512685
H        13.73286594325614    0.01769698068071    8.32947342731254
H        15.46292062591128    0.32540718578412    8.21732555671047
H        14.65965239113528   -0.60980068685046    6.96288125891029
C        11.51689689400080    2.32330217502721    8.33861581236379
H        12.42999269353458    2.19450985122508    8.91518865979276
H        10.67288939283290    2.21559756053713    9.01955381882120
H        11.49811575065479    3.33063522342763    7.92900355089771
C        15.45411454828921    1.85430348616430    5.93192153669023
H        15.66162501666154    1.02571106679391    5.25732479621968
H        16.36150350454692    2.06121511055703    6.49710837567740
H        15.20956510964090    2.73439645533303    5.33574652345006

