80
CSD_code = AGITUG | q = 0 | S = 0 | Stoichiometry = C32H44HfO2Si | MND = 12
C        -0.84945662329373    3.28802352333376   13.09953431772896
C        -1.21748847740785    2.00312699524176   12.89472379347642
C        -0.73364280897801    0.99774496949335   13.88153808444600
C        -1.49917223456200    4.41497534686666   12.44041798087651
C        -2.89585623645638    4.48843758020038   12.37785470089347
H        -3.47665943032911    3.67031292855009   12.77539956957772
C        -3.52526650074508    5.59214511456769   11.83636160284651
H        -4.60481353979574    5.63012273756817   11.80131544797323
C        -2.78136085047910    6.64722321638688   11.33369712229396
H        -3.27476467604948    7.50582125872664   10.90348415221507
C        -1.39766274219441    6.59577333355776   11.39728187945942
H        -0.81107729056419    7.41914771828352   11.01423659024128
C        -0.76525147742101    5.50447428191482   11.95937930042150
H         0.31257428342766    5.47902427020618   12.02332890915744
C        -3.96533189749006    0.60317010650444   12.29701570989352
H        -4.55865528428518    0.09247121114482   11.54462114575866
H        -4.55952531120747    1.42926503957217   12.67777376678872
H        -3.79159559869241   -0.08860051804446   13.11404342454113
C        -1.35078439173617   -0.30454680137180   10.81534050162851
H        -1.00685946494997   -0.97638057236141   11.59299858358696
H        -0.48979457136138    0.01397682991139   10.23266144905867
H        -1.99869338511958   -0.86945122099908   10.15143516623651
C        -2.61417235389075    2.35453356254282   10.08870512639714
H        -1.77189084507571    3.00872920514074    9.88739515546704
H        -3.48101634268116    2.98562967797482   10.24391150560417
H        -2.79550105735797    1.76996140068366    9.19262446850273
C        -0.56299046031181    4.97051932747555   15.73227595174216
C         0.76002022839522    5.05817276584471   16.25638210092828
C         1.03245593960469    3.85108452824443   16.97106929922284
C        -0.13545128707995    3.04106294490863   16.91089829029108
C        -1.11602179874074    3.72024718852984   16.14687535897477
C        -1.31868433911339    6.15067212784319   15.18659311579481
H        -2.23726599559145    5.84736821706916   14.69176235157694
H        -0.72190503519894    6.71905235542931   14.47441093239534
H        -1.58612277573095    6.82290276756996   16.00607479718095
C         1.50323120882150    6.36262833153339   16.35961814233555
H         1.70477043787258    6.80672526494320   15.38434289087425
H         2.44448093369739    6.24634495075937   16.88943430207105
H         0.89730557573512    7.07857859058121   16.91939111581598
C         2.14238763914133    3.62306433153752   17.96345251763097
H         1.73417301451494    3.66289476887102   18.97575459073172
H         2.90800319270439    4.39054262082857   17.88950303068361
H         2.61085116181466    2.64719284958854   17.83874013173929
C        -0.36970078898120    1.76542446552702   17.66692094409852
H        -1.04798336055912    1.94691140360777   18.50369716444821
H         0.56135011972193    1.36839259575624   18.06422963021897
H        -0.82274294151130    1.00785035323899   17.02862467308811
C        -2.52233185568561    3.23399327570926   15.95009292295815
H        -2.53545360970571    2.21148014125347   15.56831260259971
H        -3.06550767338863    3.87016728485915   15.25557043836611
H        -3.05550494048004    3.23691107575002   16.90304242330645
C         2.31686900937102    1.94627597343083   13.12588159462514
C         2.09036985602255    3.14810031403242   12.40702188379240
C         2.59135101161143    4.22804799143091   13.19187534077450
C         3.13544521951021    3.68320877401841   14.39565195835459
C         2.94189968525166    2.26756804159257   14.35921128499912
C         2.08528815182846    0.56391243568886   12.59356864652723
H         2.95872107270901    0.22875472197835   12.02788102539487
H         1.22395442197249    0.53959541592593   11.92892457358731
H         1.91338081788596   -0.14549453902057   13.40019190616657
C         1.64315802637652    3.17309893080831   10.97126249832140
H         2.33807816445982    2.58810815139269   10.36645649305929
H         1.62189615507075    4.18296888895869   10.57007902825681
H         0.65049657871605    2.73724529144730   10.85033814052650
C         2.87121605613348    5.63026987430363   12.71570041181860
H         2.32271060663460    6.38854271125647   13.27794250760696
H         2.61882268811694    5.74230732819648   11.66379164755577
H         3.93485073254357    5.84931667247066   12.82128333500498
C         4.16314869854777    4.39787202623406   15.23184012238165
H         5.12318843756410    4.37344459842095   14.70793310363977
H         4.30910504091606    3.92047352711152   16.19641330626365
H         3.90539884328467    5.44151540113929   15.38904078762182
C         3.46836113532201    1.24442502962087   15.33000264269019
H         2.65938254132945    0.62465474574101   15.72324772695557
H         3.98943971667238    1.71590777779033   16.16037933814291
H         4.17563466656789    0.58362490180642   14.82566942181205
Hf        0.72361227130427    3.22113251976413   14.57485920389420
O         0.16777250326580    1.38390705479489   14.74411819894326
O        -1.22675758038453   -0.11927193152279   13.90137409677715
Si       -2.29703800976414    1.17649164834514   11.56671060041007

