88
CSD_code = AGIWIZ | q = 1 | S = 0 | Stoichiometry = C40H44ClP2Ru(1+) | MND = 9
C        -2.39965560604931    1.94974709609881    3.86394265329493
C        -1.98497966022733    1.03166282620606    2.88648588252677
H        -2.66586755584593    0.74992837277470    2.09082934593977
C        -0.71993565943560    0.40237431675814    2.94720487863216
H        -0.46641430915088   -0.35718828230348    2.21560176646412
C         0.16669976078324    0.68013430191482    3.99929891275058
C        -0.23177749910238    1.62276123935401    4.98538349777208
H         0.40899655510101    1.78855075777321    5.84522822038974
C        -1.48452450698742    2.25412293562057    4.91103087220405
H        -1.80252699021563    2.90629137111205    5.71925110124778
C         1.44217234129284   -0.09205448097141    4.15358579257053
H         1.23084594348940   -1.03258334154535    4.66555939952327
H         2.17018847292369    0.46003263733355    4.74473796198576
H         1.87995920700398   -0.32705390980638    3.18516701328226
C        -3.79639472597874    2.52545108141401    3.88581882928255
H        -3.76449092689352    3.46317354808410    4.45506199923125
C        -4.72157868204837    1.54848210320220    4.62081320861231
H        -4.75753477734930    0.59391657349434    4.09970213572216
H        -5.72905424292913    1.95371910588066    4.66671329619617
H        -4.37243007069839    1.37330085295956    5.63663363886135
C        -4.33070445782516    2.83030162632298    2.48462823426135
H        -3.57273828450363    3.32778934803627    1.88037262636899
H        -5.20079783801423    3.47859625538298    2.55287462275684
H        -4.63399713070260    1.91907386556629    1.97484992255818
C         1.52254153008057    5.39663392920233    2.75191259453413
H         1.64013109216964    5.81732206251225    3.75436751271490
H         2.26902850466464    5.82130199367578    2.07858805531487
C         0.09795278410204    5.57336164510432    2.23972751569786
H         0.04923878375385    5.17451532329758    1.21226919674374
C        -0.85687492256812    4.78789826455627    3.13301717272626
H        -1.89498058263609    4.95630209193234    2.81866377914321
H        -0.75471523544484    5.14471324170647    4.16830348249929
C         0.79132278303076    8.17352581562983    0.97567434499879
H         0.41744011044627    9.18861274352632    0.80431310204702
H         1.76897979122431    8.22360237702849    1.45998475221319
C         0.86131653635066    7.39630859822611   -0.30490640445726
H        -0.05026197734478    7.37753238578373   -0.88753159880803
C         1.93811496913575    6.75781323228326   -0.72351129871907
H         2.86591159140370    6.76960752733267   -0.17446502719906
H         1.94306960694637    6.20778862026505   -1.64722075692126
C        -0.49322284745882    8.12451185065200    3.68557132760961
C        -1.63507144380542    7.91527239615707    4.45767717196888
H        -2.44966057305238    7.32742292034569    4.05777844064367
C        -1.72005501797933    8.47179580846333    5.72010370044040
H        -2.60487154504491    8.31573593318994    6.31790091234102
C        -0.67177195881253    9.23301671897515    6.21500541508096
H        -0.74232091825644    9.67042981661248    7.19875723228098
C         0.46525043592963    9.43696456660082    5.44917397057142
H         1.27866340913658   10.03088195435783    5.83661313587792
C         0.56185113812805    8.88204195488704    4.18509791046265
H         1.44912305075623    9.04444173056936    3.59103139782492
C        -2.01564201881223    7.41353614558679    1.27265899987043
C        -2.52318912064431    6.35518311723498    0.52311497851721
H        -1.98518683004775    5.42133578307178    0.43342657679602
C        -3.74494570006259    6.50662385677533   -0.11111443334383
H        -4.14451869026573    5.68769551705968   -0.68881119665911
C        -4.44800387497453    7.69649394041502   -0.00953022264457
H        -5.39884894461507    7.80475101459591   -0.50808287558504
C        -3.93394804405268    8.75167613281855    0.72969587724070
H        -4.48037163394962    9.67914518324894    0.80506693731852
C        -2.71778804624046    8.61445309226887    1.37147125133481
H        -2.30966345625528    9.42985556588020    1.95511617564589
C         2.79848029485897    3.26308589096569    4.21819947627349
C         3.94788698057831    2.48737348838399    4.11151199475746
H         4.22990368440281    2.07170605545219    3.15484011290735
C         4.72832108462672    2.25049308981145    5.23048320362132
H         5.62205104057508    1.65153996346973    5.14214538808522
C         4.36346879033430    2.77379073061302    6.45980896166691
H         4.97423896665652    2.58646257935317    7.32951912204110
C         3.20697201950372    3.53057602567859    6.57551530626315
H         2.91609457014028    3.92944304932151    7.53611417063821
C         2.42378329792534    3.76723976750592    5.46211578190921
H         1.50661408850640    4.33710451791790    5.54882432224967
C         2.70962636708520    3.18344116691550    1.36870712031541
C         2.31935458940824    2.18186463281308    0.48850841560597
H         1.39796370632741    1.64589552234154    0.67511447382495
C         3.09337574329512    1.89315971017655   -0.62182226428071
H         2.78383997889061    1.12036913507363   -1.30875508100820
C         4.26232867040544    2.59886659993957   -0.85146408682450
H         4.86533945557758    2.37755014465081   -1.71887261826811
C         4.66597430950051    3.58669651543185    0.03498114590217
H         5.58543063204050    4.12564093544189   -0.13970357071763
C         3.89677712082392    3.87905753859434    1.14482355404697
H         4.22329883598978    4.63138817433196    1.85105474331513
Cl       -0.90684549017856    3.04547848550572    0.70426336043229
P         1.67151062661335    3.53599812047361    2.81773762053176
P        -0.40502829330133    7.31944737563729    2.07516797587230
Ru       -0.42694316209116    2.70529573166513    3.00039645235253

