53
CSD_code = AGIZIA | q = 0 | S = 0 | Stoichiometry = C18H18CdO16 | MND = 6
Cd       -0.28858194427764    0.02126538971525    2.90859085269131
O        -0.27483953807028    0.83010153207668    6.00974013167396
H        -0.90771910289072    1.30287952546563    5.44923888005848
H         0.57739512141691    1.22198570223658    5.77603482436389
O         0.15709733305083   -1.40126975596984    1.28192958334065
H        -0.13045271675166   -0.79869251915530    0.56077915835417
H         1.12412363739226   -1.37092498587619    1.24276286980416
O         4.18466076254450    0.65271706622937   -0.64543858451306
H         3.76130625505299    0.08652326759189   -1.31104159543929
O         2.70267530310961   -0.31853868231123    0.69718603095491
O         1.80305209509036    0.03529792084047    3.56907939314637
O         1.12810805934023    1.57219345638207    2.14169515379537
O         1.95726614877395    2.38191012961841    5.10134465806289
O         3.83747784166222    3.17595649673586    5.97993881270114
H         3.26294318869429    3.31982673149668    6.74881766061666
C         4.16727796742333    1.32953879982577    1.60937969766864
C         3.40409109912053    1.57820224148473    2.75177194794678
C         3.94422280794451    2.35766003045174    3.77498748336766
C         5.23187542605464    2.87759797534562    3.65109315851792
H         5.63496167079790    3.47682591172128    4.45250068759826
C         5.97663140075149    2.63272178800943    2.51184147525225
H         6.97115011819131    3.04167038753449    2.41961266029669
C         5.44852953275107    1.86279175952074    1.49093509940864
H         6.02209029281472    1.66094820292756    0.59960821513358
C         3.59865192956309    0.47629310002937    0.54158473529387
C         2.00173112112802    1.01913055594983    2.84228325815636
C         3.13342550110435    2.62293217752042    4.98370211707720
O        -0.30182235627283    0.84308225507959   -0.18907123263609
H         0.33223740910555    1.31304442957145    0.37248752928283
H        -1.15324231813015    1.23584786868572    0.04631735770721
O        -0.73622826494455   -1.40726619297218    4.52953724878979
H        -0.44764158582657   -0.80804307320804    5.25309886871882
H        -1.70318260156641   -1.37557101941264    4.56930799731022
O        -4.74894837884164    0.65959214201345    6.47317507842282
H        -4.32381634761859    0.09331553387011    7.13757382570249
O        -3.27789603715887   -0.31975309588508    5.12435454482957
O        -2.38058611206628    0.03866766839102    2.24917390197648
O        -1.70396416016692    1.57048190517413    3.68121277143066
O        -2.53734022870923    2.38782311136766    0.72160337911297
O        -4.42480912246957    3.15968816466264   -0.16155888338167
H        -3.85247990196744    3.30172377942230   -0.93244740027566
C        -4.74084075100830    1.33221810461165    4.21702072492585
C        -3.98036790784698    1.57956872318499    3.07256094114386
C        -4.52304526865627    2.35739505873391    2.04953666650152
C        -5.81021167028142    2.87787336945763    2.17601205875697
H        -6.21530030297967    3.47596793536487    1.37474252397422
C        -6.55189903253938    2.63511842894807    3.31772747259059
H        -7.54593872998170    3.04473899300442    3.41211544318744
C        -6.02150735009038    1.86614970570243    4.33819881762388
H        -6.59289653933933    1.66553443445352    5.23120747446557
C        -4.16990609663793    0.47882829531066    5.28347507286727
C        -2.57835784799113    1.02013286918269    2.97943628878645
C        -3.71535980749161    2.62009639998656    0.83814316314322

