64
CSD_code = AGOBEE | q = 0 | S = 0 | Stoichiometry = C26H33AuClN3 | MND = 2
Au        0.42165123454178    4.07209769045867    3.67891277258387
Cl        1.44033352466351    4.97205954075854    1.88598400058641
N        -0.58592586362623    3.76569532590653    6.51667589507153
N        -1.53572043855096    2.38061907331836    5.18473296440957
N        -3.44627844779172    3.51621675895327    3.78622832222235
C        -0.58762351939083    3.33224815915762    5.24521984706524
C        -2.13861273636176    2.23089822996581    6.40164468123719
H        -2.93369616796561    1.53449531519320    6.56966864949260
C        -1.53196038852297    3.09769407342446    7.24551343305529
H        -1.70215325794014    3.28121944907757    8.28537144601066
C         0.32316727211061    4.76056609448395    7.04889387365041
H         0.88909287728067    5.13486282570090    6.18784459058669
C         1.28564465312317    4.10740106289271    8.03907289337008
H         0.75043874122322    3.72410861566003    8.90495447955231
H         2.01424047762547    4.83723303288398    8.37918831938734
H         1.81610758390829    3.28582905039116    7.56363069178479
C        -0.44852966349569    5.91262775448585    7.68556087925312
H        -1.15957065307241    6.32900302538554    6.97666959236646
H         0.24426822984123    6.69627858759265    7.97836309530522
H        -0.98683005758499    5.58271127467034    8.57101770688081
C        -1.93074462316395    1.69953732191151    3.98647902118954
H        -2.29197606540942    0.69963522596728    4.24405717993321
H        -1.06010087376650    1.60103026795859    3.32975627754063
C        -3.00788350538457    2.46613629943181    3.24108433639356
C        -3.40463990683653    1.92789044461722    1.92458727654082
C        -3.64105014877547    0.56769833042659    1.73790546290781
H        -3.54093793392851   -0.12218579928428    2.56324696021033
C        -4.04381517482996    0.09238261471871    0.50380428660470
H        -4.23613760316315   -0.96231730018002    0.37338326613011
C        -4.20122806879021    0.96364885189165   -0.56122110060001
H        -4.51288140038768    0.58886939536654   -1.52457205083573
C        -3.95686921284314    2.31564028579153   -0.38657910272699
H        -4.07123917796105    2.99868897869793   -1.21453924259392
C        -3.56727819505484    2.79795273140504    0.84861646379904
H        -3.36672973646845    3.84948741446916    0.97886206572306
C        -4.44763884776391    4.34925135928565    3.30799423991382
C        -4.08350654098699    5.64615033376786    2.91104520908723
C        -2.62528182179329    6.04101030894687    2.89976237806651
H        -2.01955055866256    5.12640610909380    2.89137807905856
C        -2.29618405274533    6.79439871489079    4.19043181186233
H        -2.86496329361747    7.72033589227393    4.24800993425565
H        -1.23455409099366    7.03015206343814    4.22141838399491
H        -2.54950313476436    6.17783965169025    5.05141471120725
C        -2.22906550611975    6.86458594742062    1.67542745337328
H        -2.62095036793064    6.41587900378791    0.76471513215574
H        -1.14485869302635    6.89539405589035    1.59868540567023
H        -2.59707495310487    7.88537907503788    1.74514096159244
C        -5.07580289736569    6.53682621672825    2.54297975368998
H        -4.80664447113225    7.53399493768000    2.23129853905940
C        -6.40824880148545    6.16427581102516    2.56826586706576
H        -7.17331307837175    6.86913560119262    2.27821430247158
C        -6.75600728915487    4.88931853610696    2.96665445058416
H        -7.79781287406588    4.60626421987261    2.98495129048049
C        -5.79302589294929    3.96152275430053    3.33922716541900
C        -6.21375467562222    2.58145686883442    3.79109704270147
H        -5.31907079263360    1.99835668029592    4.03222306804888
C        -6.96491895620448    1.84750401125180    2.67816032383331
H        -7.90037163040610    2.34952934210377    2.44634019412634
H        -7.19087598461996    0.82837692393367    2.98587052815614
H        -6.36230308345655    1.80984022928078    1.77299115857797
C        -7.06544318319336    2.66638301355945    5.06035481905346
H        -7.98739420736685    3.21026341039824    4.87246014237327
H        -6.51834416072409    3.18175607436678    5.84727326795875
H        -7.32166793300274    1.66805285002884    5.41009515211070

