58
CSD_code = AGOBOO | q = 0 | S = 0 | Stoichiometry = C24H29AuClN3 | MND = 2
Au        4.81427257573973    2.10175906849988    4.07451374764402
Cl        6.19992453376646    0.40196338474616    3.58216287478052
N         2.89023119160129    4.45563172354467    3.82617795388219
N         2.87471735606096    3.57053808971399    5.77702388140163
N         1.53315956594922    1.21995852018944    5.88818757657007
C         3.48473294038710    3.51542738197386    4.57811741242818
C         1.91028755876741    5.08856214431287    4.54281649525698
H         1.31257815818349    5.87306686285633    4.12758824620944
C         1.89655940442466    4.52184537711940    5.77318591810501
H         1.27782449758314    4.71660806819277    6.62399985595942
C         3.15550003079836    2.64218788182252    6.83898372827179
H         2.62666553616404    2.96779250756901    7.73889916009688
H         4.23122359372774    2.62840768485835    7.02740027156577
C         2.67971934901861    1.25265526337336    6.42257450760217
C         3.21935218991036    4.75533586974026    2.46251976056097
H         4.01091329017068    4.08010469877118    2.14069070087242
H         3.56370328379301    5.78691049686132    2.37050752405599
H         2.34549517598073    4.61671000188542    1.82415417951471
C         3.61001284811536    0.13014188773367    6.61964202155459
C         3.68811499265901   -0.88867198003726    5.67123144657372
H         3.06225558666279   -0.85172487541477    4.79353405130391
C         4.59007571259809   -1.92240681558097    5.82960789728206
H         4.66169062077015   -2.68775886396591    5.07272297721121
C         5.40802035849183   -1.96668017247655    6.94570464362484
H         6.11676115243726   -2.77209968414746    7.06587218766469
C         5.32078824008207   -0.97174100053759    7.90576051184656
H         5.95374850551144   -1.00611678065334    8.78044536069984
C         4.43561432711667    0.07600392513103    7.74230112037505
H         4.36984508839381    0.84276696377027    8.50177469792777
C         0.83178524437739    0.11397676297895    5.44219491006467
C         0.48872021758849    0.08006352179766    4.08076232533474
C        -0.28386270567365   -0.96572371014511    3.60684105366671
H        -0.53336672229980   -1.01286810847702    2.55748524551617
C        -0.74298780894696   -1.95098987337497    4.46133961265767
H        -1.34476891417227   -2.76272866173275    4.08054126875887
C        -0.43669674053977   -1.88644387479837    5.80657263096435
H        -0.81419927325253   -2.64974879104664    6.47023193426167
C         0.35168918294886   -0.86840097637200    6.32232347938417
C         0.98467744643211    1.16109811871460    3.14691416614215
H         1.53652730359036    1.89247202289552    3.74685914772125
C         1.93641994768330    0.59317981085988    2.09270342600123
H         2.81670851278672    0.15719356143862    2.56016168207063
H         2.27025296002428    1.38274015092814    1.42208737793015
H         1.44481563254636   -0.17475747477181    1.50061839757206
C        -0.19192251195441    1.88138331784895    2.48471713309883
H        -0.85794008968015    2.29080994020442    3.24131003259270
H        -0.76163760380337    1.20061755140269    1.85774233703576
H         0.16825661488335    2.69681558739709    1.85978983366773
C         0.62479809642079   -0.81534163155689    7.80812797893323
H         1.27366334067348    0.03937290830143    8.02295867527628
C         1.34331219929573   -2.07890342626448    8.28558863017905
H         2.26096247919697   -2.23133749562276    7.72190452145784
H         0.71287597169524   -2.95520590811537    8.16007331969530
H         1.59699057749783   -1.98846737088586    9.33982510031096
C        -0.68203433181990   -0.60911825955535    8.57962178392932
H        -1.18469655240096    0.29275175165965    8.23609409248004
H        -0.47855773287479   -0.51025288751832    9.64398406260422
H        -1.35437240560491   -1.45096418615241    8.43572513003348

