60
CSD_code = AGOCEF | q = 0 | S = 0 | Stoichiometry = C24H27AuBr5N3 | MND = 4
Au       -0.16958312921669    1.57618281385262    6.37475061976929
Br       -2.27124068426691    2.72420682473776    5.81912069186010
Br       -1.14888681281274    0.58169312836334    8.34234642259091
Br        1.99066928831787    0.53104829928786    6.85390218817193
Br        1.99738486480968    5.91563939919659    5.97100284276779
Br        9.93615505023332    2.32772890854921    2.96677641339943
N         0.22747842699198    2.27083114992948    3.44865916321334
N         1.50636869873353    3.47472428988304    4.69106278706402
N         4.18476537200507    3.34938943443012    4.53768003572843
C         0.62195909965510    2.46152539690880    4.70990833974894
C         0.84857618200320    3.17420395601920    2.63119385248024
H         0.66824342169324    3.20640115453153    1.57701453507643
C         1.65460837684430    3.93208682559111    3.41059841191380
H         2.28514275930548    4.76364572149891    3.17889509142527
C        -0.74263916996753    1.30810661244594    3.00286760265732
H        -0.69256460678116    0.40977739736519    3.61782191251269
H        -0.53881375774347    1.04301622765266    1.96720082060991
H        -1.74985353307152    1.72590271044129    3.07759816013598
C         2.26432623544865    3.94967624844529    5.79829019849997
H         1.87018452182510    3.53496822269477    6.72815424613150
C         3.75384194506275    3.70184528219041    5.67525015841995
C         4.53446928951252    4.02326570477436    6.88496996405282
C         4.12667677973358    3.60416593630007    8.15020777586518
H         3.25838243285963    2.97400615416627    8.26823066099474
C         4.87095344117977    3.93636682802948    9.26629941903171
H         4.55085937428152    3.59592274768808   10.23894184950200
C         6.02004085189178    4.69873993379604    9.13820140476925
H         6.59501808835190    4.96179633792727   10.01285729685934
C         6.43446416708041    5.11460376204389    7.88358077364567
H         7.33172074657649    5.70475089679038    7.77544150079823
C         5.70317619571214    4.77367721557194    6.76203126538860
H         6.02868469040127    5.10417181088054    5.78756719928269
C         5.50368061579359    3.06293257560459    4.22101133270306
C         6.25057855157887    2.06954004518152    4.87675101027798
C         5.65697104364308    1.15970577494586    5.92269477582104
H         4.65507578565156    1.50425116910385    6.18286683236114
C         5.50735961359181   -0.25180773501854    5.34792286978414
H         4.92148588655639   -0.22671199233647    4.43189470610898
H         4.98985810124133   -0.87998531361812    6.06743339761543
H         6.47715812858484   -0.69045360491712    5.12769374588856
C         6.49199003234826    1.13166043947723    7.20340673191395
H         7.44314810747156    0.63162164207291    7.04191008335964
H         5.94896629499496    0.59002449956889    7.97307247691046
H         6.68791197876163    2.13969698799974    7.56152026437497
C         7.55932003433330    1.85256818706561    4.47146414327659
H         8.15173792121293    1.09510029776331    4.95850763159917
C         8.11245283275390    2.60578478128574    3.45728850136395
C         7.36296084429312    3.54054669333380    2.76778155874552
H         7.81131313848938    4.08686444080119    1.95500760027667
C         6.04255672258881    3.75544311755615    3.11881411924846
C         5.17639695689644    4.73471727241046    2.36062320710986
H         4.17024561628339    4.30182120336663    2.34717923960244
C         5.12046296604584    6.08798124168850    3.07780064752755
H         4.68879356686418    5.99368467941570    4.07164089761551
H         4.51383931360437    6.78985152845621    2.50943545751164
H         6.12148261264882    6.50304691314868    3.17498951003305
C         5.61872118974983    4.93409398158309    0.91180625801873
H         6.53419836510495    5.51725496271007    0.85494261582422
H         4.84769982668629    5.47522696386788    0.36738704782278
H         5.77786534556980    3.97697191550130    0.42082973293110

