48
CSD_code = AGODIK | q = 0 | S = 0 | Stoichiometry = C17H26N3RhS | MND = 6
Rh        5.63871028104096    4.24318548837033    5.28752902570946
C         4.34283677504789    4.18168788902947    3.76500309592254
C         3.45068831669789    4.36281538883862    1.73177670073223
H         3.43435798545640    4.52445593859253    0.67362176617412
C         2.44956134444401    4.07892163677549    2.59692183784028
H         1.40130942190765    3.94353946337164    2.42791467059816
C         2.29109024284107    3.80725447664796    5.07593580464197
H         3.03601072146403    3.60718404525967    5.85939901365032
H         1.61168439301566    2.95263045698742    4.99205444408861
C         1.51744432146768    5.07640604711726    5.43767596831394
H         2.22090062350014    5.91116159651423    5.46757662661771
H         0.77311695193610    5.28871801437187    4.66655495258640
C         0.83157510210097    4.94409774472975    6.79385296798062
H         1.58517464186790    4.73436400815731    7.55544726250648
H         0.13429552364497    4.10235160928246    6.77148308216960
C         0.08396479144849    6.21841070721382    7.16419781609337
H         0.77280334524042    7.05809481569518    7.21277867801971
H        -0.39666553652120    6.11130419004628    8.13345342458419
H        -0.68096557041541    6.44395939713035    6.42405007171734
C         5.90298643553901    4.76809389257768    1.95315207251799
H         6.58342545656058    4.87844126871960    2.80562241520299
H         5.85710326397466    5.71256404703374    1.40935894069907
H         6.27514164294520    3.98867972347881    1.28466133347486
N         3.01463092989790    3.97103268705065    3.83984231781037
N         4.60494859821840    4.42715837577080    2.46718356876020
C         6.64826679326608    2.43183847794681    4.75091033760568
H         6.53616989173650    2.25422009915587    3.68109379086959
C         5.54498550758570    2.13575784522512    5.55441842794322
H         4.66947718154053    1.71359191126297    5.05776403674472
C         5.61968494709188    1.77726087801227    7.02075267410610
H         5.97705039787271    0.74600344469047    7.12205645146441
H         4.60507795262420    1.80459969850961    7.42803568345065
C         6.51345932543890    2.72783610242257    7.83883803419085
H         6.14129275602595    2.76407653790804    8.86443160709985
H         7.53537196711921    2.34901638480656    7.88095043782781
C         6.53084307743374    4.13150128278764    7.27483619268807
H         6.02274516953845    4.87756543482638    7.88656085372685
C         7.47540792045602    4.57948175724406    6.37603310844257
H         7.68857739393615    5.64887400584607    6.35239808074249
C         8.57299422186174    3.73250758565669    5.77376132082673
H         9.35842137641398    3.58128843243359    6.52184262621411
H         9.02002036781791    4.29402662310864    4.94873337807475
C         8.07856149379869    2.37293180754323    5.24362511773708
H         8.72608013819459    2.06193261002937    4.42088988263179
H         8.15675997057163    1.60962259040547    6.01884969902039
C         5.63031431858713    7.14037179983996    6.70304762040670
N         6.06933207973081    7.62312611242528    7.65523814389295
S         4.97327574807485    6.50505566908573    5.33418463581673

