51
CSD_code = AGOHUZ | q = 0 | S = 0 | Stoichiometry = C22H20N6RuS2 | MND = 6
Ru        4.25972278487891    4.53265097892940   11.39144252498500
S        -0.25556863546629    3.51496805571108   12.08622399397217
N         4.25895678566133    6.53330545644968   11.39134548621689
N         4.52351846616651    4.53240788504224   13.38424012111285
N         4.25838997036174    2.51244236219680   11.39102465592534
N         2.27118274723370    4.53730483220709   11.65143748999879
C         1.20604587979178    4.07496288846377   11.83738664090793
C         3.50938731328871    7.23142804818369   12.25624895911508
H         2.89165273895842    6.65500706320719   12.93570028621414
C         3.47848760096855    8.61213533273493   12.28664577585513
H         2.84990871149320    9.11640244675224   13.00359269791630
C         4.25726786966306    9.32969433866886   11.39002354021052
H         4.25649748979714   10.40824064954144   11.38940311632315
C         5.45890204743211    5.30246830592215   13.95795440457264
H         6.06790201128059    5.90180920867590   13.29068142916912
C         5.68244690973495    5.33222813927018   15.32079636438944
H         6.45561574870487    5.96895025424032   15.72097936253910
C         4.90766216914340    4.53822445465496   16.15396793404764
H         5.05552681962537    4.54065164618105   17.22237381795021
C         3.93764612690365    3.73962765449826   15.56601616018929
H         3.30401829953091    3.10304761077003   16.16300083712902
C         3.78221984115433    3.76278176135549   14.19330722002614
H         3.01853039205459    3.15511368888098   13.72214375866661
C         5.17316051265050    1.81368780177465   12.07644595441718
H         5.91976248698102    2.38481691321086   12.61563427829994
C         5.21087782487291    0.43263594623658   12.09770224887373
H         5.97988644003086   -0.07028124549644   12.66225260388216
C         4.25764702656087   -0.28337467743942   11.38919796149858
H         4.25741985744707   -1.36203496583684   11.38840133315390
C         5.03725396684181    8.61222232999567   10.49438959303585
C         5.00805706016901    7.23151488370877   10.52613107292179
H         5.62683327776092    6.65516499927966    9.84756996158676
H         5.66529726864349    9.11655154954729    9.77702753400028
N         3.99432992359330    4.53190527386161    9.39891351899445
C         3.05958000149280    5.30227321146708    8.82465806699791
H         2.45077536961588    5.90222730337631    9.49155070564199
C         2.83645194058329    5.33158027508876    7.46173008098180
H         2.06366982426141    5.96846210443124    7.06107900853430
C         3.61105875625952    4.53680791271655    6.62911336816527
H         3.46343844530554    4.53876704059802    5.56068001739043
C         4.58079053777737    3.73827811028855    7.21760602055405
H         5.21445878665344    3.10129589006754    6.62108279592920
C         4.73580763098194    3.76192619217629    8.59033737348360
H         5.49935066209327    3.15437032521449    9.06187411427921
C         3.30476436558157    0.43405269689335   10.68165941656500
C         3.34322720407541    1.81504355190104   10.70471464901673
H         2.59682265993127    2.38716852538099   10.16635059055798
H         2.53549409863105   -0.06766500836524   10.11640363765505
N         6.24796666616758    4.53692386342818   11.13173926087875
C         7.31339466679862    4.07529269960982   10.94438063128415
S         8.77550264986867    3.51803343434463   10.69123762398914

