95
CSD_code = AGOJAK | q = 0 | S = 0 | Stoichiometry = C40H45N3NiO6 | MND = 4
Ni        4.86110790889122   13.77750935650419    5.52052519720851
O         1.48854928637914   12.11487067360023    4.80314638713039
O         1.20208364759879   14.33303011451595    5.19033177551548
O         3.16014417230026   14.80246050165268    0.95614971415931
O         1.60176863291727   13.60519929452279    2.07630618485799
O         6.10021597461550   12.88740834112415    3.65779313995704
O         7.52935228483734   13.27123509313947    8.37845329080816
N         5.24948056759418   15.25444282631753    4.50299442059978
N         6.15940337058893   14.28754364651979    6.82644676856102
N         4.65888240459281   12.11198295023475    6.51749769253271
C         3.24552287181495   13.70288090304171    4.40778406720950
C         3.52391613742487   14.26838983936235    3.21884986432470
C         4.92056933461638   14.87412357087957    3.14111666515406
H         4.99671198137761   15.67591203313174    2.40354149521304
C         1.88722159805832   13.26073862956134    4.77923715813661
C        -0.10234108499883   14.22619010755331    5.80448257551932
C        -1.11836031134328   13.68431085466513    4.80216517264121
H        -1.14506957176860   14.32773874426541    3.92583474681803
H        -2.10668003236254   13.65913356604998    5.25365012878664
H        -0.83963609398092   12.67970451086978    4.49721012640830
C        -0.03948063161043   13.33934458605976    7.04861940875594
H         0.17154564403125   12.31101898027902    6.76808852167074
H        -0.99381288408022   13.37104519049123    7.56735507883290
H         0.73927551410546   13.69368367403977    7.72088187021368
C        -0.44496772659409   15.66472861066287    6.19448481880966
H         0.29434931460950   16.04611351793742    6.89376284431694
H        -1.42733808215337   15.70373616166716    6.65632796495665
H        -0.44044639229275   16.29846638891467    5.31171102307748
C         2.74012602578845   14.27870193403663    1.97122356073700
C         0.80313059617786   13.31287967687797    0.90004974657268
C         1.64265529422639   12.54193137053011   -0.12059702307221
H         2.44625596404822   13.16410411087859   -0.50445541336393
H         1.01309027634180   12.23422822312911   -0.95075949201966
H         2.07063957443779   11.65749711552163    0.34692178330213
C         0.25267448865507   14.60517733344886    0.29899689888137
H        -0.27693468075599   15.17414350467029    1.06046462001155
H        -0.43640807455854   14.36746509220969   -0.50677937046213
H         1.06193811355971   15.21487511682121   -0.09357504409814
C        -0.32905399288370   12.42464783613840    1.41535235482070
H         0.08452687091312   11.63390175445525    2.03561289649411
H        -0.86417471199449   11.98259248408222    0.57989751561647
H        -1.02668925324846   13.00286844377745    2.01269585967004
C         5.78995084089828   13.67672567501623    2.78757532508113
C         6.14933639165051   13.53235576455616    1.34750375054242
H         6.51283817435544   12.53007350993120    1.13698766304568
H         6.92993705727232   14.25422254981505    1.10862894137480
H         5.28466948116301   13.76964373587477    0.73076790849166
C         5.95500023838571   16.29979819298559    4.76574359218027
C         6.42825950080946   16.59306606326334    6.09944291773519
C         6.52793341125550   15.58402481202255    7.09773022822579
C         6.98385283773090   15.97826283524084    8.36858859955068
H         7.05356385257172   15.23707485701683    9.14685699914444
C         7.34094360489064   17.27691291661598    8.63874355759557
H         7.67993587980709   17.53852538260518    9.63041766960454
C         7.26397787867698   18.25510245255459    7.65153216206229
H         7.54693954457527   19.27420930528019    7.86628963212035
C         6.81032558071761   17.90839085416768    6.40297262402746
H         6.72121739847488   18.66502766296587    5.63700068053595
C         6.32172407261257   17.26025188195239    3.69261446524895
C         5.35541956652124   18.06841344919134    3.10151763373226
H         4.32965398624952   18.00250770547667    3.43428038280260
C         5.71395303271074   18.95771821015041    2.10442665265308
H         4.96158109013078   19.58614623557287    1.65218946788808
C         7.03179533272786   19.03963651462118    1.68568989550171
H         7.30820471237189   19.73238522356237    0.90511985548492
C         7.99506520018902   18.23463010575251    2.27079499367816
H         9.02352791500252   18.29852632941966    1.94806530018689
C         7.64460149890619   17.34909587683445    3.27440609742139
H         8.39118053987833   16.72148266730395    3.73857078803736
C         6.63084358303513   13.24825966856810    7.55420573447759
C         5.94641254028771   11.90963861426545    7.21332563474226
H         6.63996429461179   11.37573107059649    6.55874708567211
C         5.65487306439086   11.13312555111044    8.50700711043576
H         5.90143161153417   10.07813300731170    8.40102197578986
H         6.26793104799038   11.54292225348200    9.31020785665499
C         4.15502989103928   11.32652579483839    8.75869253869476
H         3.96455937364900   11.80030666090438    9.72059773553504
H         3.63594856419302   10.36922417648468    8.74647099124032
C         3.67465379964812   12.22659001366496    7.61081894490337
H         2.68436777342551   11.95827154190694    7.24744032253391
H         3.65546866289428   13.27002152174959    7.94459549524025
C         4.35976233772453   10.98870902344990    5.58701375624675
H         3.39607537397997   11.19939255554217    5.11628712872434
H         5.13505818688539   11.00636638181462    4.81560734645949
C         4.28868565105755    9.60716774990526    6.18620257474610
C         5.41315594471698    8.79339034172816    6.26379408108662
H         6.36508966310607    9.15434058142630    5.90055018126058
C         5.32641163182845    7.51571728186698    6.78934655368405
H         6.21033004202565    6.89735974196725    6.84660410708996
C         4.10961666008107    7.02851165361145    7.23431287292454
H         4.04181130336154    6.03172813138416    7.64427957171033
C         2.97680975022215    7.81828150811560    7.13299299655993
H         2.02028846556087    7.43544563205437    7.45789095682406
C         3.06599303769560    9.09514089562071    6.60750791559373
H         2.17489479864567    9.69723121276327    6.50442375195192

