61
CSD_code = AGOKAJ | q = 0 | S = 0 | Stoichiometry = C21H36IrO2P | MND = 8
Ir        6.13122914939021    3.19270189877742    4.28109379151101
P         4.54165571712445    2.03170906734901    2.98874646705597
O         3.17242712051557    2.97746153478367    6.01624074398167
O         5.64459188052715    7.68827237324182    8.05855701683205
C         4.50582010689548    3.32629785511531    6.08219420018214
C         4.83146502165076    4.64171120197864    5.93013396858334
H         4.04726407771099    5.36481908958091    5.76265701097435
C         6.19778701269994    5.12346320647235    6.34017127373744
H         6.43147711091432    6.06374895003792    5.83317924037687
C         7.17747449960965    4.04685491875504    5.93410746027841
H         8.22327988939135    4.34273358073880    5.96400677070092
C         6.86666093520804    2.71890586653261    6.32678318491672
H         7.64384494304353    1.99193655709885    6.53045056238617
C         5.52854390883911    2.32778349056266    6.31435768206379
H         5.24349288610960    1.34322112469428    6.66132762807105
C         6.28684686055138    5.40198809505461    7.87619694602030
H         6.03499303915455    4.48962193628015    8.41784568452659
H         7.31608753561285    5.69093421044447    8.09811210652813
C         5.36156679402733    6.52836927626594    8.24525672083476
C         4.03870713725978    6.09415145565002    8.82485895973437
H         3.58867800901946    5.33597990244464    8.18645867320822
H         3.36930893483432    6.94449622505608    8.92676804277799
H         4.20771974757477    5.65157539755317    9.80542582996977
C         7.82398347886414    3.27166881112362    3.02124820677511
H         7.87996712785035    2.65557442308738    2.12808567844462
H         8.74625746228819    3.24777650884087    3.59660936335365
C         7.11649717213191    4.51162726469387    2.93692373612962
H         6.67468541894718    4.78828170085989    1.98574977644193
H         7.52613091560375    5.36985150436665    3.45936321316189
C         2.88350161054547    1.88516403141967    3.84153657610134
H         2.33484844949191    2.79464096522148    3.59148018548478
H         2.34815232842528    1.03201625817424    3.41895972752329
C         2.83538350819213    1.77202956602442    5.36865775956066
H         3.44210469863074    0.93892205852816    5.73248849666805
H         1.79750613603175    1.58631926608306    5.66889000322456
C         3.89889795228980    2.88873926474825    1.40294702840824
C         3.67063641006005    4.34811015320413    1.82023384325080
H         4.49117809628874    4.70610428166368    2.43958504597975
H         2.74661800802704    4.46291817991994    2.38210040824012
H         3.59890233517072    4.98231438456114    0.93855092734028
C         5.00861951251017    2.83936612013979    0.35284073605976
H         5.96500647498325    3.08999424407082    0.80256071799442
H         5.07809272668243    1.85212253087976   -0.09665066481696
H         4.80273180928178    3.55134496071934   -0.44524601931466
C         2.60175972835221    2.37292522948621    0.77652590793900
H         2.71318884641626    1.38447208638704    0.34635694465477
H         1.77763343545754    2.35370484602142    1.48343390340964
H         2.32352337587344    3.05107040023362   -0.03017410000896
C         4.93625498229899    0.20095980177558    2.60236150156807
C         6.37641997267633    0.13744401907055    2.09497830214129
H         7.04395296925719    0.58242120491382    2.82941009036064
H         6.49390327576075    0.66832448766788    1.15600488732248
H         6.67043434953909   -0.89954988415093    1.93867470073506
C         4.01470887792988   -0.50310348409986    1.61142389239357
H         4.17468760591835   -0.14302075011154    0.59948959944648
H         4.23713034890759   -1.57018707465320    1.61829263038726
H         2.96562362141033   -0.38432857209572    1.87192941467772
C         4.88995558905753   -0.54852127565424    3.93570937563899
H         5.46132581247507   -0.00791109239297    4.68786621876034
H         3.86887677899416   -0.68883620250401    4.28278227282079
H         5.34009647971044   -1.53378743269725    3.82058974652015

