71
CSD_code = AGOQAQ | q = 0 | S = 0 | Stoichiometry = C34H31I2N3Zn | MND = 4
C         0.50789383322235    2.01621674253983   -0.58026700341601
H         1.11053697036925    1.55825797619675   -1.35344615922731
C        -0.78654537786009    1.59023340724979   -0.33731450227606
H        -1.21565858653168    0.79437308236865   -0.92357530383926
C        -1.49835365682655    2.20171153246625    0.68287012747648
H        -2.50329162600216    1.88610719906728    0.91979410354385
C        -0.89914953219374    3.22092811863841    1.40119836949969
H        -1.42161933481061    3.69802607884265    2.21459539746778
C         0.40164551463950    3.60067341311328    1.07854455985046
C         1.10981276393181    4.68198163033729    1.78059835928891
C         0.43691407356926    5.71702946740295    2.40948605772051
H        -0.63987664118851    5.75814154037380    2.38670794172771
C         1.16111446566441    6.75103644704934    3.01037862528131
C         2.55041764362573    6.68089336112146    2.93749900527153
H         3.16785246250437    7.43650586465668    3.39662277982647
C         3.15635390411025    5.61187457303377    2.29026628831704
C         4.61654212736210    5.51567362570827    2.15949325365821
C         5.34564846827133    6.59069513764831    1.65755818585454
H         4.83477169605069    7.50168698508219    1.38216399319331
C         6.70797022475387    6.46815654494142    1.45902488015016
H         7.26349464160847    7.29631472873563    1.04592566647170
C         7.35460246167059    5.28314061690224    1.77167037222985
H         8.41687648173432    5.18798689875078    1.60461164841590
C         6.63927465164102    4.21958852917084    2.29643573674757
H         7.13848413023716    3.29599874135865    2.54792536070047
C         5.27352851089541    4.33152190964404    2.48739648809098
H         4.72007953902514    3.51676796791868    2.93248458462007
C         0.48743554725844    7.86500866735390    3.67511274229537
C        -0.69688924896484    7.64313492610118    4.39555547250482
H        -1.08339298433599    6.63752749937962    4.47239973468741
C        -1.35889286382620    8.66153024901024    5.04455647937588
H        -2.26075069664015    8.45363516135023    5.59944449466304
C        -0.83403325728468    9.94664275032547    4.96275312370772
C         0.35979774986724   10.18827950956937    4.23392371553470
C         1.01785226592414    9.14924557171790    3.60107537176137
H         1.91247131054357    9.34355188851569    3.02966076085710
C         0.62434849111502   11.59439043186467    4.34677697247423
C         1.62913685044883   12.42138249047120    3.86193978847817
H         2.42587331477580   12.01868035483668    3.25523449231939
C         1.58326530052330   13.76529720122873    4.17270909714105
H         2.35286205144277   14.42739277456973    3.80582695722235
C         0.55540256590819   14.28506749361932    4.95677194240064
H         0.54809843481469   15.34074157126950    5.18398621669157
C        -0.45529455868348   13.48191329403777    5.44917305233761
H        -1.24356811956939   13.90107817696313    6.05580781216928
C        -0.41726270913923   12.12951157570234    5.13939049523187
C        -2.48941338297335   11.31141894904512    6.26100055044272
H        -2.27961222568035   12.00908544030706    7.07815448089820
H        -2.78062534302047   10.35417689987994    6.69931976954037
C        -3.63112538724429   11.85937068772732    5.39620070267045
H        -4.47531368771138   12.09568163318256    6.04701246113032
H        -3.30314027909382   12.78568132473381    4.92014271790449
C        -4.07537859797830   10.87111204898723    4.32106718770099
H        -4.41681750936296    9.94757687153120    4.79553211289076
H        -3.22632773638908   10.62187277212287    3.68041313367033
C        -5.20197196157482   11.43834203205684    3.46123963559250
H        -6.05134726649745   11.69350143904323    4.09967897131634
H        -4.86131095976858   12.35860268618681    2.98097486473246
C        -5.65693280936453   10.45064298747185    2.38954125314928
H        -4.80938471849226   10.20119811593391    1.74684200176827
H        -5.99182383995543    9.52731238519375    2.86856087914459
C        -6.78740822972637   11.01838340677494    1.54047463124032
H        -7.64787360471910   11.25775351705276    2.16139738120991
H        -7.09805641376466   10.29976095255554    0.78602099560197
H        -6.46640542599863   11.92717054594373    1.03651900397484
I         3.69463316114856    5.18481664777066   -1.62161544019765
I         4.12725045631344    1.16125332296435    0.69572461751812
N         2.44456905951825    4.63332479944440    1.72985598437701
N         1.08328073406020    2.98919571636781    0.10774587857868
N        -1.28024238311040   11.11958165267910    5.50624954627637
Zn        3.21509909774224    3.44264945685877    0.13459914048437

