73
CSD_code = AGOQOD | q = 0 | S = 0 | Stoichiometry = C38H30N2P2Pt | MND = 4
C         4.67531121438410    7.89380677697617    0.46540481750924
C         3.74184436502007   10.28132107491097    2.26314095645711
C         2.81827696718061   10.39293325709466    1.22623581307083
H         3.17887153282884   10.56321785578001    0.21596535153344
C         1.46756890028249   10.26821001434456    1.48078232460810
H         0.75379747669593   10.35207418807172    0.67460867439104
C         1.03314518134732   10.01850294513475    2.77348422007166
H        -0.02222917015443    9.90985850476747    2.97521605339232
C         1.94963645566452    9.89214146604920    3.80318159779756
H         1.60868167283999    9.68314114534521    4.80671001250794
C         3.30530105993901   10.02284539757976    3.55401708810924
H         4.01882651290908    9.90842760658393    4.35745582164108
C         6.47274153729849    9.85566513923189    3.17741738371022
C         7.19342327611892    8.67887851576353    2.99689521727003
H         7.13083069965514    8.15825902734342    2.03685388569433
C         7.97576078417315    8.17926946522467    4.02143402003688
H         8.53570493465466    7.26657027297986    3.88039657244592
C         8.04098096616884    8.85463607140357    5.22952797641964
H         8.65060405260175    8.46596100592589    6.03181486999690
C         7.33330619819289   10.03305557862893    5.40997438897404
H         7.39423079649669   10.56058677512578    6.35073927169186
C         6.55281031797487   10.53939597492765    4.38692035602942
H         6.01433898229376   11.46907990507792    4.51562297234627
C         5.76070023102924   12.24653951985123    1.84504142559890
C         7.07826328663369   12.69583474603214    1.89915332242359
H         7.88716162549057   11.97851767000631    1.91583485530809
C         7.34655884783669   14.05027802794607    1.91893399947862
H         8.36940590204000   14.39333478047164    1.95852273659167
C         6.30564852795074   14.96503024381404    1.88016957633580
H         6.51643824023249   16.02420710069370    1.89335684568092
C         4.99542864255201   14.52162521175764    1.81990926922415
H         4.18326567169945   15.23342099821781    1.78708085952459
C         4.71887394042288   13.16567081285475    1.79903076167022
H         3.69435112310519   12.82256141156378    1.75176384462546
N         3.83959003089359    7.15679460403822    0.75242842013660
P         5.48421200636696   10.44843763717663    1.77879016607546
Pt        6.11974680421283    9.17815404990441   -0.00018837962861
C         7.56377445388652   10.46287115792481   -0.46597150762065
C         8.49769004209753    8.07469192141695   -2.26319307037925
C         9.42132722031755    7.96283362523075   -1.22637636455924
H         9.06080474444118    7.79253533739783   -0.21608912107769
C        10.77204754318708    8.08729303625324   -1.48103952644147
H        11.48587700622441    8.00322490745606   -0.67494537618559
C        11.20642646245441    8.33702074571797   -2.77374887832672
H        12.26180268666088    8.44550848181208   -2.97555330622658
C        10.28986675076176    8.46368268140387   -3.80335142090472
H        10.63077217837882    8.67274334039641   -4.80688519030977
C         8.93419925636204    8.33321205413047   -3.55408002576329
H         8.22064054215165    8.44778971309835   -4.35745878103356
C         5.76692910970160    8.50041674913724   -3.17765882483687
C         5.04625004505093    9.67722933665256   -2.99733047367221
H         5.10875071285835   10.19795128058013   -2.03733746383579
C         4.26405285696781   10.17677114738684   -4.02200829779077
H         3.70413459531408   11.08950470216705   -3.88111081964770
C         4.19897183941808    9.50130387622180   -5.23005189285737
H         3.58948733133222    9.88994181712793   -6.03246132886962
C         4.90661710474668    8.32283344214381   -5.41029597981868
H         4.84576355372663    7.79520952366163   -6.35101423010786
C         5.68697268954426    7.81656040688163   -4.38710197083891
H         6.22540564777166    6.88683135288335   -4.51564315225992
C         6.47850789128088    6.10972913587962   -1.84476705657776
C         5.16081604238368    5.66076277574674   -1.89858323584474
H         4.35210099277187    6.37828377836309   -1.91532385551717
C         4.89213351965679    4.30638730972033   -1.91793379078130
H         3.86917954680934    3.96361672581154   -1.95717881894623
C         5.93279501344233    3.39136111162957   -1.87907546567556
H         5.72170775169834    2.33223663250841   -1.89184448337573
C         7.24314943875227    3.83443341268133   -1.81921432771635
H         8.05511413473408    3.12241266377727   -1.78631116558930
C         7.52009417701589    5.19032183571959   -1.79874730744054
H         8.54472808109277    5.53314960765441   -1.75181486896419
N         8.39871876082892   11.20067809601584   -0.75328902682946
P         6.75528068116074    7.90782149876766   -1.77883694211937

