51
CSD_code = AGOSAT | q = 0 | S = 0 | Stoichiometry = C24H22N2PtS2 | MND = 6
Pt        9.77888690473192    8.99390510760875    8.11380596564079
C        10.35381838580246   10.81759272557259    8.75657998561592
C         9.63712373077610    9.69278688589898    6.22672496520758
S        12.05830933075654    8.16082625085174    8.25060449852957
N        10.22488732353630    8.04592481481924   10.06708891646345
C        10.31976275434195    8.99891857842102    5.23765135338110
H        10.93958244695531    8.14593405973537    5.48891400138888
C        11.47513130000489    7.63908083964641    9.78822803117783
C        10.22684653784629    9.39627373423661    3.91445886923472
H        10.76454344119256    8.84728924453780    3.15379326773889
C         8.86530905989542   10.78939480962824    5.87431911505803
H         8.32537901232780   11.34736610839173    6.62833626385455
C         9.65226102171990   11.36738175256713    9.81851208984371
H         8.80057724764892   10.85031954467876   10.24527290285767
C        11.43029366272036   11.51234609239908    8.22337022132549
H        11.99213644936569   11.10331042623624    7.39365728454189
C        11.79530592537790   12.73909220298906    8.75231844163661
H        12.63623337651529   13.27020735050746    8.32903312196955
C         9.45392702024216   10.49193893242035    3.55142369394032
C         8.77863708919141   11.18180059005689    4.54738496126181
H         8.17212818969131   12.03830213293202    4.28863632665055
S         7.36283141740570    9.02865848232291    8.37587693373978
N         8.83572069572255    7.05800580315861    7.58682626722802
C         9.12102069713264    5.81679178582417    7.22252406464282
H        10.15631125355605    5.62118547304818    6.97214101331272
C        11.10113935721270   13.29576421091558    9.81895324786894
C        10.02491207962307   12.59512053177438   10.34331232827772
H         9.46680591601708   13.00985998556493   11.17130378695936
C        11.49733594337387   14.63297030565636   10.37028886579916
H        11.08001768266305   14.78441646030455   11.36272571932527
H        11.12955969779097   15.42768911267564    9.72079844275240
H        12.58037781480167   14.72153149132917   10.42545212462417
C         7.57246012843462    7.37959467969819    7.91445299114378
C         8.16295674399248    4.82405946024013    7.16383350304799
H         8.43140418576983    3.82450643245328    6.86302315397752
C        11.61936408280303    6.50377272547239   11.87873398985483
H        12.15841755370690    5.90086356301190   12.59470581712321
C        10.32134665892761    6.92960796797904   12.15655220560713
H         9.83526991186979    6.66761221834424   13.08215137326942
C         9.66581939739897    7.70085536402227   11.21728664242617
H         8.65710831910128    8.05903837702542   11.38163715135998
C         6.54311612607473    6.43426181010732    7.88024769307377
H         5.54274423920726    6.73272348818696    8.14948880113998
C        12.20839400568587    6.85695859563602   10.68539882757037
H        13.20918529438767    6.55213109182091   10.42499745494301
C         6.84905177204414    5.14691761228593    7.49972173094064
H         6.07721755139986    4.39222955274609    7.46191040680620
C         9.37053803763405   10.91643525507947    2.11540866854264
H        10.33264651011225   11.30482031415457    1.78193141438128
H         8.62163320317599   11.69287293605202    1.98246418833717
H         9.11501351233022   10.07025272897106    1.47963691460534

