52
CSD_code = AGOTOG | q = 0 | S = 0 | Stoichiometry = C24H20Cl2O4PRe | MND = 6
Re        8.10700570280723    0.96685797413253   13.56965874542898
Cl        9.05939024198373    2.31778147013101   15.12603485134169
Cl        9.51543117849268   -0.69241484131953   14.19256112603098
O         8.69372411795159    1.62321499564199   12.16860934645776
O         4.79912461131146   -2.92983850221428   15.02854567970329
C         5.23654555781429   -1.50698102437969   16.91606868982531
H         6.14925357950572   -1.07301413539952   17.31766519064367
H         4.98577945079207   -2.41312148508869   17.46087312896914
H         4.42979632832572   -0.78450102024200   17.04546303134969
C         5.43490746549709   -1.82185425723753   15.47027133198767
C         6.19651576050429   -1.05306208375733   14.62293634791541
O         6.80039265188511    0.03968706715738   14.98335878028798
C         6.33151868892923   -1.44414381462148   13.22285198250178
O         7.01940480389781   -0.73379029201827   12.45566036874404
C         5.62513182621385   -2.61710857884282   12.83457566794250
H         5.68371228716458   -2.95632724305946   11.81478185191630
C         4.90413028130771   -3.29410722865384   13.76343342183655
H         4.35256162376121   -4.19730337138949   13.54614357672695
P         6.11864047620813    2.37526882728433   13.73590215087909
C         5.84023172126002    3.25327790478029   15.30179876950324
C         6.08616147420984    2.60689865279437   16.51131451468036
H         6.46810914560888    1.59732855833066   16.50824294397586
C         5.85862216748142    3.26402885080333   17.70589430268161
H         6.05607245932983    2.76102006674602   18.64079118652868
C         5.38925261658935    4.56773007429067   17.70486521976657
H         5.21684132171480    5.08129580235253   18.63898918341458
C         5.15011979839196    5.21502573983445   16.50428944481397
H         4.79147341038182    6.23368758467953   16.50049230427132
C         5.37570655350054    4.56503901471603   15.30385459386559
H         5.19666352967338    5.07907219183343   14.37090263769126
C         4.63155376904910    1.37666051181752   13.46356819138102
C         3.73659605365488    1.07320297374770   14.48263476159578
H         3.86399141114650    1.52027860734469   15.45864185898146
C         2.69161786230660    0.19749247896642   14.24170333373667
H         1.99679262819964   -0.04057305924018   15.03388577037152
C         2.53802699055303   -0.37669595362952   12.99069754713171
H         1.72583532342085   -1.06502464554249   12.80997913950300
C         3.42555605502689   -0.06955383319791   11.96998313574902
H         3.30455743442671   -0.51725400520325   10.99505045233090
C         4.47291869171407    0.80082543138663   12.20383239272872
H         5.18924931085455    1.03056125643733   11.42593722230329
C         6.04987961344555    3.67453140279700   12.47048501387440
C         7.24136449491775    4.30103850560476   12.11684582517035
H         8.16738001584340    3.97073812067423   12.57076916931096
C         7.23228557541149    5.31745226756989   11.17912627246029
H         8.15655954481099    5.80068190528528   10.90188377712770
C         6.03975073968221    5.70838491189364   10.59034409556013
H         6.03432852563067    6.49730455627898    9.85308484922136
C         4.85315947886040    5.08494675567665   10.94118733844076
H         3.92451461983200    5.38887086516694   10.48078328513431
C         4.85256704578279    4.07044171534532   11.88206384692363
H         3.92639398294198    3.58554233353131   12.15928234928761

