88
CSD_code = AGOTOH | q = 0 | S = 0 | Stoichiometry = C36H45Cl2N3OPd | MND = 4
Pd       -8.02500945854233   12.27679863622368   16.23774730456681
Cl       -9.93259926097445   11.80699205559085   17.41632845393103
Cl       -6.26224962124232   12.83222674879420   14.89475315815872
O        -8.73015342362264   15.98515317935485   18.19229838242018
N        -6.68698075623518    9.65972570308472   15.82464218844079
N        -8.70255767915233    9.62309763515993   15.07821366428497
N        -8.36360800322554   14.27267899228098   16.81261851371004
C        -7.80263372289591   10.40655925655171   15.70471717610937
C        -8.15323488297370    8.39576798510734   14.80628997990759
H        -8.70255100128215    7.62878896305350   14.30113967121657
C        -6.88719650098387    8.41855167794621   15.27564845095406
H        -6.12640976320004    7.66638438283783   15.27939439695832
C        -5.48623457589039   10.04203839730052   16.48507733024868
C        -4.30977901684308   10.19236090757929   15.74286912264232
C        -3.14796850334290   10.52127486906937   16.42796639931213
H        -2.22628786205815   10.64405331715560   15.88166695692431
C        -3.15137247744011   10.69066442157301   17.79856164047714
H        -2.23497274766552   10.94555706409979   18.31154115064894
C        -4.31846713894938   10.51768955187449   18.51603393958495
H        -4.30729528134955   10.63700244434322   19.58835202092823
C        -5.50563143363967   10.18240232819212   17.87722001058845
C        -4.25946000266178    9.96727970990137   14.24990119963523
H        -5.27914328141245    9.86389829973679   13.86893033888662
C        -3.48817945497854    8.67825376947003   13.94621635998949
H        -2.45243877812745    8.77127619120631   14.26401447830817
H        -3.50269952446537    8.47843387013691   12.87720659603373
H        -3.92304638602185    7.82416993828391   14.46182132771859
C        -3.62361709864152   11.15039824438085   13.51904578631765
H        -2.57788534105987   11.27120053351878   13.78795995560916
H        -4.16149636974120   12.06087115700284   13.76711266906266
H        -3.68297132755948   10.99076599560786   12.44467274426375
C        -6.74500530865713    9.92094989180103   18.70364145292492
H        -7.57368419683437    9.62362707314967   18.05104880043756
C        -6.50176360769975    8.77811896879688   19.69267691730871
H        -6.17210005468923    7.88215366637840   19.16971578544696
H        -7.42295003135106    8.54931280041126   20.22344762813537
H        -5.74394319236423    9.04627577968198   20.42407939495377
C        -7.17973738827880   11.19724214652966   19.42491598245228
H        -6.41240428224997   11.55289437790944   20.10876219725109
H        -8.09634581704961   11.01665385909675   19.98162040384151
H        -7.37796242607343   11.97963772843650   18.67883251673806
C       -10.05844136761671    9.95323127473015   14.79493833026751
C       -10.34054572560909   10.85463757778571   13.76635753691178
C       -11.67199562261407   11.16025491407011   13.51130640624312
H       -11.91680521727214   11.86366269611308   12.73034589269537
C       -12.68577769269748   10.57326328286889   14.24098441222883
H       -13.71547051365111   10.82412187709897   14.03254553365604
C       -12.38671922617149    9.66102366178720   15.23425307065509
H       -13.18858338937162    9.20376883374171   15.79197994651700
C       -11.07214538251315    9.33311615747850   15.53386605290270
C        -9.25207518040632   11.47983905631030   12.92380937140084
H        -8.27319585604216   11.10010710486439   13.23969177481222
C        -9.43464669586811   11.12878137109132   11.44597787284864
H        -9.45520438337364   10.04921268800792   11.30931375428486
H        -8.60871131078544   11.53454291216938   10.86655903303742
H       -10.36164948311618   11.54056416021420   11.05547749111430
C        -9.24184606765799   12.99413094271547   13.14324686576210
H       -10.16907518279960   13.45058855671057   12.80335185860769
H        -8.40657155399007   13.44417909459303   12.61099356198825
H        -9.11923358007826   13.18760808766304   14.21986930400596
C       -10.78134990360767    8.32340826355189   16.61994035862171
H        -9.70275691713818    8.28442487293958   16.79884827720776
C       -11.24552249503245    6.93159661500893   16.17891945863856
H       -12.32189729121882    6.91849090884595   16.02662107319392
H       -10.99721044391177    6.19661577695013   16.94138821899974
H       -10.76808296027310    6.63555098006202   15.24670329691492
C       -11.44341215412442    8.71940725271922   17.94057542206589
H       -11.16168806131345    9.73688312058527   18.19823344774728
H       -11.11539938115682    8.04990869792036   18.73315060571088
H       -12.52639589160791    8.66385491608492   17.87354120995080
C        -9.55122725309282   14.92149745850862   16.27878374149063
H       -10.37536384175862   14.20186588433010   16.22250139960046
H        -9.33244232312422   15.30305160603549   15.27513360882086
C        -9.82672163009095   16.05380087479309   17.28788291125545
H        -9.83835938981685   17.04619200600739   16.83115381288941
H       -10.75161823724233   15.90054840352003   17.85168751724678
C        -7.97962973487631   14.92160010509258   17.84620354700058
C        -6.80314790065657   14.66365360757924   18.67037277773946
C        -5.70565961685587   13.96552416371565   18.16512762157314
H        -5.71554165337665   13.58622731883287   17.15051252847499
C        -4.58497078658932   13.78889811973530   18.95515774839596
H        -3.73126002067051   13.26818608929509   18.55064270369516
C        -4.55658570230985   14.27806627944804   20.25125663390249
H        -3.67951281448218   14.13359247695945   20.86534410060023
C        -5.65145925147035   14.95888899823588   20.76023064009534
H        -5.63120312406342   15.33894962587014   21.77085967744862
C        -6.76782331778727   15.16238214454138   19.97275089179058
H        -7.62083748932136   15.70051666414500   20.35600625175739

