62
CSD_code = AGOVOK | q = 0 | S = 0 | Stoichiometry = C26H34CoP | MND = 8
Co        1.27795842736255    7.02642917771774    7.72874180423810
P         3.53151894000570    6.94847468332171    7.97058426447026
C         1.02148916837116    9.04291355456065    7.76563372341433
H         0.52575847703176    9.58321724247327    6.96658390928383
H         1.93761936432824    9.52315851221015    8.09565160933637
C         0.21435211902267    8.43317885545478    8.75298196182085
H        -0.86390108389045    8.38251232930272    8.63386083822321
C         0.84513123605094    7.70228401925548    9.75311047587383
H         1.81764473259658    8.04926612526843   10.09284616521940
C         0.08676529205263    6.94459056792494   10.80326421431563
H         0.62480914177210    6.04234310230826   11.09047040856715
H        -0.02174441806315    7.55919532906290   11.70054100288679
H        -0.90614117034210    6.66645871536300   10.45664550709237
C         0.94410063158348    6.68707209115133    5.67428488328143
H         1.57740985467864    5.85181161480888    5.40739001023288
H         0.87985924646676    7.44125409466009    4.89941854361127
C        -0.19617595740996    6.44394124862222    6.44696308281536
H        -1.10928525098889    7.00813472916833    6.28624954098319
C        -0.12059757322156    5.54414192256630    7.54149963341059
H        -0.98046206247210    5.44455596302163    8.19646482534447
C         1.08248260446695    4.91945345365213    7.87051093934596
H         1.09798362582251    4.32048746650163    8.77296083713188
H         1.74452285205663    4.54520409636882    7.09848383509350
C         3.96526308447964    6.76179497167941    9.73711074079540
C         3.70321567433141    5.52388701169682   10.32311429005302
H         3.34673059318829    4.71686204822192    9.69844206499137
C         3.89299176365609    5.32486554444604   11.67624317212637
H         3.69164581923436    4.35725005012693   12.11342092850723
C         4.33364530010265    6.36842384252162   12.47529664217412
H         4.48040684773792    6.21755141100501   13.53465019276314
C         4.57241526504652    7.60836960580436   11.90996233017071
H         4.90275758217324    8.42998035496176   12.52951252557939
C         4.38321953130553    7.80803599522428   10.55256337650485
H         4.55680234461568    8.79084041878720   10.13980583992847
C         4.56664430659555    5.62568137037139    7.22968479634346
C         5.57882183541122    4.96243989945470    7.91738005613710
H         5.77393272981616    5.19277220310126    8.95405372445737
C         6.35047185622943    4.00650820641946    7.28111956536778
H         7.13096966741547    3.49946389187047    7.83023658382205
C         6.13318385042909    3.70209532211997    5.94791208235704
H         6.73710309477826    2.95403860048488    5.45565668935954
C         5.14054365509821    4.36766624203862    5.24923427267884
H         4.96887989566699    4.14404557095772    4.20593636076243
C         4.36645805323589    5.32018855274009    5.88668125545356
H         3.59800809878264    5.84251858985560    5.33800267392157
C         4.56510700242934    8.41749629360582    7.45052154390075
H         4.21090972290772    9.25306513279634    8.06794547148323
C         6.06904212116173    8.25012462238919    7.65160425121966
H         6.29686635518254    7.97403953665724    8.68326818353678
H         6.43703992712467    7.45092510379927    7.00466493843683
C         6.78113934814410    9.55255360785338    7.28991335663648
H         6.44234423987632   10.35140939915162    7.95456288945985
H         7.85776602320364    9.43547465625351    7.43185450753609
C         6.48675253405112    9.93856964822855    5.84305339423898
H         6.88704084491613    9.16939233554495    5.17834931846925
H         6.98267186532959   10.88109286092320    5.60113025367525
C         4.98270949785655   10.06619123079093    5.61645609028681
H         4.59062730857547   10.88301631135507    6.22737278203468
H         4.78417164570631   10.30787628517685    4.57024734791598
C         4.27793006185914    8.76569521627665    5.99206233925579
H         4.64513326912698    7.96327190755167    5.34886509628694
H         3.19973918593207    8.85744725302023    5.84296605537593

