61
CSD_code = AGOWOI | q = 0 | S = 0 | Stoichiometry = C16H32N12Ni | MND = 6
Ni        8.52504443519596    6.74667039556970   14.55865184590577
N        10.30253419950119    7.10733806855118   15.73101715255216
H        10.00093704146644    7.50824207515206   16.61972882044022
N         8.74385118239212    4.71321010305422   15.26309455669015
H         9.20180505093917    4.18335607017049   14.52082074375931
N         6.64488212004971    6.38934650419395   13.50598373159119
N         8.41507811110114    8.77135305345076   13.73755426845642
N        10.52670758055429    9.25405899391415   14.50979433846801
N         6.41492530677174    4.32928115130426   14.50283830588867
N         9.43729950396268    6.23888623219503   13.04820244395438
N        10.30536792162030    5.48020628597697   12.86876130817016
N        11.14358867024434    4.76162533263632   12.57616361638636
N         7.54647750730632    7.30763367112743   16.00752611860078
N         7.71425474470383    7.21510567523473   17.15845048701493
N         7.78090878008852    7.18991310840669   18.29839572000633
C        10.85249742111619    5.78120848541308   16.04362502538604
H        11.38722792443816    5.41574611918095   15.15907238226609
C        11.82252339658847    5.83704111429961   17.22913193162198
H        12.63034039309434    6.53604450911396   17.00168477822215
H        11.28853170404775    6.20803171276170   18.10880490600086
C        12.40606727362338    4.46177594104174   17.53301815356985
H        13.09239911696127    4.53149260049120   18.37863095994912
H        12.97238366122470    4.10949041867205   16.66812747904806
C        11.28752620724605    3.47568208709155   17.84583313760230
H        11.70335466263338    2.48533593693283   18.03904876924661
H        10.75634527664955    3.79861901006388   18.74384521671702
C        10.30990255746835    3.40434758658627   16.67820715768676
H         9.50879381690654    2.70014408446418   16.91320175957187
H        10.83222632209678    3.04152380528793   15.78820431023711
C         9.70260032781918    4.77856849143076   16.37437203800138
H         9.17183956788618    5.14091792115327   17.26261339683566
C         7.43042528542046    4.07733907841468   15.50179052901965
H         7.53791312948753    2.98245917939676   15.56095025902600
H         7.04270863579272    4.43724412592587   16.45867210548682
C         5.80784783907973    5.63873462570421   14.45759503000500
H         5.76530910654765    6.11171054261744   15.43590237995852
H         4.78352436066404    5.52482337683261   14.05750255636070
C         6.76035528032515    4.07084141214278   13.10110961925285
H         6.02651921834117    3.37694806264942   12.67927793427613
H         7.74682864036783    3.61840755480422   13.00762249130566
C         6.68692801679864    5.44304949006343   12.39240035079645
H         7.54377610890504    5.62488248519800   11.74633337295083
H         5.76293325747578    5.51582996536141   11.79764910618768
C         6.21538981911642    7.74200207639587   13.17439265416444
H         5.78421174230987    8.18299014166761   14.07554951932051
H         5.44955929835256    7.73379643026109   12.38365602908940
C         7.39414713348027    8.62947132749743   12.70736256378786
H         7.86158595154647    8.15841925307175   11.84012634594939
H         6.99480633096341    9.60967753151087   12.40474593073806
C         9.78287607869906    9.07620008590084   13.28470854257532
H        10.19705353985789    8.29108031510645   12.65655178563133
H         9.79862320859372   10.03552742116028   12.73533263885501
C         8.20922993830111    9.85661627276325   14.69488244748355
H         7.42593919053716    9.61453575952093   15.41078539427761
H         7.94150366503429   10.78430511698172   14.16507116721529
C         9.59656165441501   10.00274853143771   15.36159670876746
H         9.90683319612859   11.05206343911471   15.38558325326188
H         9.59658804831695    9.62640408068858   16.38383989533676
C        11.18596047541902    8.10261641868325   15.08605631360940
H        11.91483125403401    8.49721658122401   15.81189261840150
H        11.73560880999100    7.60536277298077   14.28225559706093

