51
CSD_code = AGUBEM | q = 0 | S = 0 | Stoichiometry = C23H24ClFIrN | MND = 8
Ir        7.40098102449811    7.68015872499858    2.77270274977536
Cl        8.86297108375227    9.33561225658171    1.98677944117517
F        11.08597894756197    6.72162205794307    6.62854506022791
N         6.31845715106665    9.13385496751788    3.68839734179677
C         8.34922979943864    7.85333094233520    4.54824358450768
C         9.47779263832520    7.16482442958211    4.97328285561447
H         9.96774087219261    6.43807860928714    4.34504872352428
C        10.00343593471006    7.42156815286326    6.22578140489584
C         9.46827412953234    8.36561070619768    7.09343546913802
H         9.92848923190615    8.52882682992140    8.05475405759520
C         6.68126092638732    9.51013096592287    4.87713535171741
H         6.17438071090384   10.32045042185190    5.39213650987083
C         7.80587771795798    8.82777156660386    5.42659168208094
C         8.36616184048952    9.07992133383716    6.68225156380452
H         7.93597858364393    9.83793270971260    7.31974097596617
C         5.21602336289628    9.71973312452668    3.05460992144775
C         3.98079500316539    9.78876658583965    3.69672322088971
H         3.87904107799382    9.38913880091546    4.69575210471443
C         2.89406073551792   10.33995759260436    3.04298943637441
H         1.93650548852109   10.38201471396941    3.54085755128117
C         3.03089838106519   10.83597375416970    1.75701231887375
H         2.17996849983600   11.26734461885347    1.25183998621412
C         4.26137735331883   10.77611412013222    1.12116107242054
H         4.37155118505134   11.16950989023078    0.12161913887658
C         5.35050952324499   10.21460050506128    1.75858040642229
H         6.31778069517563   10.16805405082307    1.28123779130569
C         6.02990583154714    5.95570465576279    2.52652527974014
C         5.85875087089745    6.68407253116190    1.28581563310090
C         7.09822791770799    6.74511292702634    0.64964370191645
C         8.06916388491689    6.03444215402128    1.46967791385459
C         7.37057181283971    5.45255254754591    2.56608511117501
C         4.90720956381071    5.49167940009723    3.39930202747340
H         5.26451687476419    5.25102069140417    4.39804213386487
H         4.45271665796626    4.59441016607751    2.97409651467589
H         4.13365674692593    6.25304045546619    3.48150644493448
C         4.54195699361148    7.15642736078962    0.76061126117368
H         4.66969514795805    7.94354904634844    0.02150566694540
H         3.91165999109611    7.54337319709132    1.55953137580715
H         4.01418314413253    6.32484494452078    0.28893807378782
C         7.42669030604330    7.34881502638850   -0.67503896420612
H         8.22613521198218    8.08210829610909   -0.56776861129645
H         6.56074304368058    7.84268212857994   -1.10872013989910
H         7.76888583321685    6.57524876460110   -1.36371862325126
C         9.45149541918493    5.70261749234287    1.00056959437845
H        10.05677572067597    5.29817019683903    1.80788432502461
H         9.94551614940089    6.59224606716033    0.61521913211800
H         9.40648895756283    4.96229151418318    0.19940126645676
C         7.86922048022951    4.40362279667938    3.50960567279755
H         7.57335429773041    4.61567970645765    4.53503606023131
H         8.95193692192983    4.32468009980292    3.47467835838400
H         7.44892032205232    3.43670540128011    3.22736107033212

