65
CSD_code = AGUDIQ | q = 0 | S = 0 | Stoichiometry = C22H30FeN2O10 | MND = 6
Fe       10.26628206482888    5.03285332557607    2.54359929620515
O        11.52335671284258    6.26519087174887    1.68389608520786
O        11.58403731790381    3.59481587272865    2.38523416991747
O         9.03544307129922   10.26814839774855    1.88342344139781
O        11.15598072227434   10.34288200204284    1.16966086643903
O        11.22386960063068   -0.33464314835073    3.75727589033528
O         9.16266387333528    0.13221033988152    4.48119381489366
O         4.36413444742873    6.78317370395216    4.32010745697987
H         4.49215548767637    7.69658549544527    4.03697898309617
O         4.40681714825899    4.16946659374376    4.99523317423087
H         4.55980574382154    3.23446281928166    5.17598375236162
O         9.55491389953589    4.41717810248376    0.53277362108144
H        10.42206220647891    4.17978402290477    0.18071860134586
O        11.22809820665537    5.62732802967410    4.46057564481064
H        12.13241423327372    5.65820606546482    4.12382851183805
N         8.96191153198826    6.38760487763871    2.73868659117474
N         9.00549199338199    3.89076306380455    3.37872750130099
C        11.40954259871553    7.50290985129350    1.48158751128435
C        10.25412279267906    8.24423691677771    1.83784290526681
C         9.12541621595815    7.64333069749346    2.44016118885055
H         8.33595408670468    8.36000414746568    2.65356509627075
C         7.79113407565475    5.91081589113059    3.30744400624042
C         6.62814523311427    6.64882754227561    3.53287493530200
H         6.58329554904767    7.69393932405151    3.26297558917420
C         5.50358728866332    6.07563792001869    4.09609877877488
C         5.52631137384508    4.71505484272699    4.44632265019783
C         6.67151354921642    3.97449054020858    4.22118778918315
H         6.65643945599868    2.92845409331118    4.49207122569215
C         7.81355854343958    4.54387743101539    3.65432666921768
C         9.18997463992393    2.63495867056360    3.67434018107638
H         8.39739595137387    2.08494920772577    4.16995976695294
C        10.34818618868485    1.86767340873574    3.42402275994552
C        11.48996465935741    2.39777128733893    2.76116665203940
C        12.59420672897664    8.15222720686842    0.80742751749156
H        13.32480930989385    7.37843143380650    0.58107203196418
H        13.04148356702062    8.89530722664786    1.46160696036329
H        12.29409114693918    8.65478146363686   -0.10761953207604
C        10.07418917106167    9.68256241144162    1.63882895467936
C        11.00211338363626   11.74273105562053    0.95901982685856
H        12.01569142676515   12.14859932174989    1.00103218919463
H        10.39747618329993   12.16240703227531    1.76986945366893
C        10.34892396945150   12.04190739694863   -0.38384189527254
H        10.92429646154443   11.59560816867336   -1.19179384756376
H        10.29769376397622   13.11649669695818   -0.53470681433138
H         9.34130199741427   11.63451316863974   -0.39885058033003
C        12.68371064890416    1.52585879840928    2.47169293775939
H        13.43135201153823    2.11981952286625    1.95061205646238
H        12.39228854536067    0.67339208017217    1.86413467187459
H        13.09907421134381    1.12738210161644    3.39363742807714
C        10.32965017533144    0.47898702521871    3.87159793301059
C         9.08714572407120   -1.21219810769030    4.94218119345175
H         9.89657815887877   -1.39030920048977    5.65994937403441
H         9.23607933619216   -1.89042471753990    4.09390217657159
C         7.72711308386476   -1.42163251986257    5.58279639807304
H         7.59690524070003   -0.73719922063593    6.41720246298767
H         7.64700599825280   -2.44228593260165    5.94539049680210
H         6.93940874737447   -1.24037480878950    4.85606054658369
C         8.95952185534829    5.36347225058834   -0.33850858875313
H         7.98391128575350    5.60509531027975    0.07774626951578
H         8.83063396021436    4.93268966736635   -1.33577328254839
H         9.55310165844994    6.27778999832089   -0.40528118306341
C        11.20112959790056    4.78412697737419    5.59931262162764
H        10.17526643112972    4.77684065825049    5.96141452768152
H        11.85662281858716    5.18047793219371    6.38033787474935
H        11.49854293683204    3.76257739378758    5.35180471237302

