142
CSD_code = AGUFEN | q = 0 | S = 0 | Stoichiometry = C72H60N3P6Y | MND = 6
C         4.17858069106688    1.18310812264628   13.72670446001190
C         4.09234369457971    0.49086597808853   12.52291008354069
H         3.65441377405969    0.96910510400151   11.65780890383329
C         4.55493970094336   -0.80847348993027   12.43281718144062
H         4.47318693739124   -1.34335478119071   11.49707729937465
C         5.12274578864451   -1.42675108346987   13.53473570996395
H         5.48491415886063   -2.44180217387144   13.46026369336988
C         5.22510268117531   -0.73819936299218   14.73149030959996
H         5.67211948926649   -1.21553895509011   15.59247979078670
C         4.76056808796726    0.56009292295742   14.82290159077103
H         4.84491617923777    1.10229367381745   15.75528662737003
C         2.20324954497012    2.78386340094429   12.76130181919241
C         1.12010707738959    1.99549044460390   13.12714006764925
H         1.14407499943049    1.46010783205311   14.06999920318066
C         0.02187470241198    1.89314478809627   12.29480550802798
H        -0.82564304175476    1.29280008540098   12.59284860647942
C         0.01450582354469    2.54852962959233   11.07334585139905
H        -0.84096028662418    2.46131174056956   10.41966469925308
C         1.10558989474335    3.30821336164530   10.68751942016683
H         1.10589422651941    3.80173605801937    9.72681537755989
C         2.19157525985274    3.43792027132771   11.53509317130994
H         3.04507648545966    4.04165255376703   11.25093144454427
C         3.16406393018840    2.07810059709807   17.89793698997900
C         3.70064146370786    0.94249507378353   18.49270845001894
H         3.64206038822055   -0.00074115224174   17.96608011249884
C         4.28332246525040    1.01347173143163   19.74569325671100
H         4.68855065868191    0.12350252386380   20.20481914061570
C         4.34199918875512    2.22435720727251   20.41430079708522
H         4.79475555282581    2.28330998224112   21.39284806748166
C         3.80586320757921    3.36187772676147   19.83279907545385
H         3.82859918957862    4.30151717658451   20.36871742826026
C         3.21726432030482    3.28765523886352   18.58200458154007
H         2.73063662329870    4.16827956171351   18.15775978917630
C         0.76044504071248    2.68600640304017   16.71955357294100
C         0.12839730623802    2.28767008189086   17.89603492589641
H         0.64068141820087    1.61620485247289   18.57338129675020
C        -1.13952299096349    2.74536053476052   18.19898798259710
H        -1.61704386727467    2.44026516311972   19.11954543839143
C        -1.80352846840956    3.58495628771032   17.31790032510216
H        -2.79855069426686    3.93477911774880   17.55082497075757
C        -1.19297974728101    3.96535629600048   16.13524273950119
H        -1.71598476139652    4.60468108964159   15.43977995116418
C         0.08399129781386    3.52137828353245   15.83577838371123
H         0.56121943588140    3.81454693421093   14.90545403684280
C         6.96001893969342    3.63914213737807   13.37716820726781
C         8.08599694532657    3.39321920337167   14.15062045834527
H         8.40624957751260    4.13157293214907   14.87865675421488
C         8.79379118872763    2.21683733944499   13.99566791358800
H         9.66025507759675    2.02440507140309   14.61226494372273
C         8.39572950394363    1.28873077647094   13.04601023472491
H         8.94788398867865    0.36788129996276   12.92657812912135
C         7.29619075372641    1.54461062111271   12.24488773390671
H         6.99316898101567    0.82726260708486   11.49608653048523
C         6.57711536814117    2.71414133514327   12.41455197098643
H         5.71402825290442    2.92380149388143   11.79385257857907
C         7.32742046073637    6.31180989163584   13.07529309050462
C         8.06151066555265    6.03477304266112   11.92560885109930
H         7.88631358305304    5.11141093571503   11.39015225516823
C         9.01693050517888    6.92685964954807   11.47714543792937
H         9.58995522840690    6.69968923386742   10.58942909360868
C         9.24172247072504    8.11086548648517   12.16130880091264
H         9.99159513258641    8.80517704267642   11.81078967201252
C         8.49662942956366    8.40454779141752   13.29079949345450
H         8.66344200951361    9.33298878717485   13.81978275782063
C         7.53716514916482    7.51437336749299   13.73581806862157
H         6.93636359957231    7.74806646267349   14.60509007278904
C         7.05325813507828    4.27183985791097   17.40104485013775
C         7.67257791628701    4.37426213613325   18.64468360823133
H         8.04626663450513    5.33759592392909   18.96948467978252
C         7.80948026915007    3.26094594165120   19.44984591233468
H         8.28498847283698    3.34753754446137   20.41645801792181
C         7.35793078112887    2.02771223780782   19.00618477414899
H         7.48837696781819    1.15159351266869   19.62415110616829
C         6.75197903802790    1.91620587294140   17.76687811396994
H         6.42066377078134    0.94956550033965   17.41700184895609
C         6.58880787954986    3.03513135866124   16.96880505020495
H         6.13489107696329    2.94954325860795   15.98479959659091
C         6.15448677372662    6.87356889558112   17.41028033593966
C         6.46894547870999    8.22677136255406   17.42652241243743
H         7.30821749874170    8.57908922540954   16.84258249364085
C         5.73669474912634    9.11156776623646   18.19951485846296
H         5.98764664602119   10.16201263451656   18.20160282997101
C         4.68871983294696    8.64883185516621   18.97627117936915
H         4.12156889677130    9.33528011897828   19.58634130035101
C         4.38530287511085    7.29641415420826   18.99682784905603
H         3.60159663258843    6.93081702152575   19.64643629799420
C         5.10580609286726    6.40994059836507   18.21030614702539
H         4.96049771455132    5.33551980428516   18.33273790302949
C         0.87885194744119    6.29886468915944   12.61083694225863
C         0.71806988427656    6.36734245606124   11.22980841297410
H         1.59480606785167    6.45595659419980   10.60181593561273
C        -0.54522838790708    6.34428657632116   10.67351857769671
H        -0.66574535078127    6.40554835855414    9.60124270605411
C        -1.66090199201349    6.24597038236464   11.49029894195393
H        -2.64983306386688    6.22898841544705   11.05575028296450
C        -1.50636634393832    6.17683382478698   12.86382449532048
H        -2.37841906752489    6.11350340654904   13.49992766993081
C        -0.24024816993030    6.19506262348986   13.42182532171231
H        -0.11658593226505    6.14901232607474   14.49677310737042
C         3.11665818423398    7.84987970729419   12.51639509175534
C         2.27486514932942    8.95777537841531   12.50758406233624
H         1.25100893667434    8.85934935921204   12.84684031803562
C         2.74064053420043   10.18064731808421   12.06336642085795
H         2.08394369547051   11.03877498613249   12.06829243753109
C         4.04682632246998   10.31030575183487   11.61830912723124
H         4.40920241595387   11.27091126312042   11.28203489004551
C         4.88135186515505    9.20658773085850   11.59906797778226
H         5.89866300525785    9.29563237134077   11.24516019590503
C         4.41464331318060    7.98204967644401   12.04322782912849
H         5.06400202290071    7.11680738762785   12.02609430844578
C         1.47741374392375    7.61601424471323   17.20784720438819
C         1.12800657886644    6.32051892721832   17.58926201449156
H         1.01072787783525    5.55236917727297   16.82851146525215
C         0.82475181633620    6.02532406501123   18.90953976072693
H         0.53714199815542    5.01915693995961   19.18326529911073
C         0.85826878422131    7.02546856019471   19.86592953454163
H         0.61467735436439    6.80128805642321   20.89426372624807
C         1.18535667405688    8.32140866182589   19.49357501448944
H         1.19648751347243    9.10660585462607   20.23640568729988
C         1.48689079963800    8.61689440393925   18.17789908992801
H         1.73465800887399    9.63023636642665   17.89728814826480
C         2.91369448818067    9.30180424064605   15.48960168040194
C         4.24821893225964    9.05852316366914   15.20061932253835
H         4.58161826389106    8.03685787156337   15.02454943430794
C         5.13920651162006   10.11093540881886   15.09680185736608
H         6.17085976910095    9.92324770606485   14.83979475592544
C         4.70975586242134   11.41089430014280   15.29987310977262
H         5.40857629923555   12.23045671193267   15.21459324160708
C         3.37910953008904   11.66249597504277   15.59075513879122
H         3.03808029880801   12.67787166811797   15.73529530784859
C         2.48306450052736   10.61392737457802   15.66446485613830
H         1.43190888613281   10.80526112881472   15.83888317893420
N         3.12851718275775    3.16460050789328   15.40926981513245
N         5.81331045674163    5.41036236721389   15.23421571416216
N         2.44666842148685    6.60930554098345   14.91912321594698
P         3.69578430989004    2.94984920544953   13.83033135545688
P         2.35883256500994    1.91503514609029   16.23794575571177
P         5.96390635212993    5.18191151226538   13.57158561998194
P         7.08535369000697    5.73438815905984   16.28201043017140
P         2.58888097259225    6.24648388363389   13.26965092677124
P         1.62091227937443    7.98837981121962   15.41846277375260
Y         3.77291647043351    5.17637255271149   15.75037416573612

