43
CSD_code = AGUGOY | q = 0 | S = 0 | Stoichiometry = C18H16Br2Cl2FeN4 | MND = 5
Fe        3.65660828173980   -2.79990514975024    8.84051894810577
Cl        2.87539400293577   -2.96353788809561   10.67854832716760
Cl        4.47786844885848   -2.83663749015367    6.99450662200474
N         1.68176826706195   -1.54785330788561    7.97223616324968
C         0.93560490365023   -2.20084338429531    7.10423217099733
C         0.09160703604563   -1.59329944952754    6.19009846895811
C         0.04090007682203   -0.20819494190994    6.20678643544121
C         0.81918648895761    0.49152226293892    7.12122798312524
C         1.63090257647552   -0.21732955129186    7.99425199109271
Br        1.08401771617355   -4.08609779835376    7.20582962619009
C         2.50249061882942    0.42358130100995    9.03945036386173
N         3.85699321546665   -0.10676344198458    8.94031479099745
C         4.55062075593713    0.39289820615058    7.75098440324688
C         4.76474253873138    1.88331115424012    7.73568778859020
N         5.70072887038510    2.35572900895394    8.55169798387750
C         5.91428880348126    3.64723140581939    8.59890008415269
C         5.23046880036289    4.58842861939156    7.84674023502786
C         4.25358438376947    4.10343341222761    6.99164911393936
C         4.01143777249637    2.73908414504045    6.93539180144420
Br        7.27264344910064    4.19575419009291    9.81528581123293
C         4.62733575067673    0.08146389724092   10.16662462466572
C         5.92411051941383   -0.67815631152066   10.09331016345736
N         5.83437057086563   -1.96538640397512    9.76440693638318
C         6.94542593286871   -2.68363582344090    9.69462577641674
C         8.20253147447634   -2.16007666256667    9.95105537402062
C         8.30028818137051   -0.82081817747450   10.29338270531182
C         7.14144555232940   -0.06608854206217   10.36419446810528
H        -0.49647300834787   -2.18125808707801    5.50519293413930
H        -0.59972795125850    0.31898363390900    5.51635318705890
H         0.78800245201466    1.56948573276224    7.16149665663135
H         2.10533799486109    0.13143505556823   10.01604829822728
H         2.46169735439894    1.52105514361888    8.95649346036713
H         3.97180747684450    0.09271228046737    6.87509910478611
H         5.52085660863066   -0.10546055474484    7.70625210514847
H         5.45573237782948    5.63941748147334    7.92578832046968
H         3.68828038518346    4.78730059668554    6.37585698306102
H         3.26060520000288    2.33756346192600    6.27271307454003
H         4.03837725945062   -0.34429864212386   10.98485606003599
H         4.82787080977576    1.14041368250652   10.37909799167948
H         6.81738228469476   -3.72223958225422    9.42178275696212
H         9.07867333155128   -2.78508721660512    9.88279955367070
H         9.26033064404611   -0.37025035596393   10.49753774333970
H         7.17608179104173    0.98151409103292   10.61619260881500

