50
CSD_code = AGUJOC | q = 1 | S = 0 | Stoichiometry = C18H22ClN4O4Zn(1+) | MND = 5
Zn        0.34575768841682    8.27080317249434    2.32083685607729
Cl        0.84818268191911   10.23816064405194    1.54490405104908
O         0.99547604346155    7.28695699458974    0.72583946946501
O         1.79800083030847    7.80911303119270    3.55235148217492
N        -1.52770905916746    7.72251221521852    1.58371788955880
N        -0.81093752957445    8.47039632449427    4.06254011328017
C         0.54958552855012    7.69715238980883   -0.37313319868403
C         1.48547780329866    8.05366831753608   -1.41305794755900
N         1.04559693585769    8.41470543975928   -2.60715771202551
H         1.73328939545240    8.69550517952202   -3.30274246135626
C        -0.25948611310757    8.46397081206964   -2.94524765336798
H        -0.49553707763219    8.74829325374407   -3.95685957507620
C        -1.22732107637483    8.21144650738937   -1.99938702518359
C        -2.68333016838413    8.36107583434909   -2.39433977668201
H        -3.11824680989438    9.20586398586696   -1.85073472665206
H        -2.74467047129627    8.58358675683585   -3.46645629428027
C         2.92584256409706    8.10764236545247   -1.08566677541139
H         3.54255481993689    8.31267391400125   -1.95653287396819
H         3.22898082616842    7.17354036792691   -0.61533044197293
H         3.07307087850707    8.88897275352805   -0.33635479190149
O        -3.47487958145923    7.24657926794691   -2.06702368420673
H        -3.24422783172188    6.50252635586379   -2.63390750105716
C        -0.84303542889710    7.86234105272111   -0.69153283683459
C        -1.83444253235562    7.73564972553510    0.34877579206727
H        -2.87784030131643    7.65977571154426    0.03696184625718
C        -2.53231092165624    7.62606869216209    2.59849545678586
H        -2.48567605858577    6.61229805872461    3.01191031150334
H        -3.54283355429214    7.80906280119387    2.21180272557118
C        -2.19122192597092    8.62528092541229    3.71224217100450
H        -2.31557362479984    9.64029809320204    3.31720677409717
H        -2.86039949942107    8.49601084046520    4.57165797702343
C        -0.42901718426720    8.59246179664325    5.26960153162954
H        -1.16060916747634    8.81723649348503    6.04686707751841
C         0.94864648411510    8.50696733057448    5.68723145950997
C         1.29622424364581    8.79726009405916    7.02054117208830
C         2.62194407151288    8.81011006721423    7.39238592167046
H         2.94247330756211    9.04078311964990    8.39410618618361
N         3.58267846297784    8.54239492180306    6.48617034801609
H         4.55420517063720    8.59497499697137    6.78515621339523
C         3.33810527260289    8.22701742621386    5.22474487292009
C         0.26122594210122    9.11863079654932    8.07449827973036
H        -0.39923434835211    8.24651611421637    8.21009157688898
H         0.77483435819189    9.30400385288064    9.02508481636183
O        -0.48157550284281   10.24862552578371    7.67598954792941
H        -0.96881738610900   10.59817864333027    8.42951469540650
C         4.44614850622102    7.96988589950226    4.27856847187927
H         5.41947186996924    8.01912589823322    4.75925333480256
H         4.39758794997643    8.69676406783270    3.46670861324178
H         4.30661585430928    6.99403955513903    3.81414942546340
C         1.97755566516074    8.16259161531346    4.74265881566748

