44
CSD_code = AGUJUH | q = 1 | S = 0 | Stoichiometry = C17H19Cl2MnN5(1+) | MND = 6
Mn        4.18200221572236   15.54652887791359    9.99413993637374
Cl        4.49655595088395   16.25569675431633   11.96439960534814
Cl        6.04511996756841   15.99470273288760    9.14185914477636
N         2.18300768770720   14.92685519140114   10.47168964376207
N         3.54489226034812   14.79039380686821    8.22215191209489
N         2.04138580616739   13.87072652922317    6.90609200494223
N         4.62676859562549   13.69971311544732   10.60480934716694
N         3.27551890177033   17.26188180055910    9.53659328310436
C         1.43836473551109   14.30443347898604    9.35837723678790
H         1.16165206500028   13.27339271725833    9.61306721751640
H         0.51347626542983   14.85953234495086    9.15593803551511
C         2.31368334070073   14.30953568037414    8.14897725834448
C         4.08843573505214   14.65846602437512    6.97746700289322
H         5.09058063225890   14.97866800968439    6.77275964993511
C         3.16355775230436   14.08960362264594    6.15576771091964
H         3.21136966033248   13.82790421585227    5.11963796645149
C         0.82182210966773   13.28483411262780    6.41615336156253
H         0.10738856628347   13.16837362360228    7.22719604197404
H         1.02817677004661   12.30612388015012    5.98130640099650
H         0.38397843716752   13.92012085576925    5.64453128995091
C         2.40742833616672   13.96733946639955   11.56649950365117
H         1.52400227060252   13.34401312796530   11.75258157054144
H         2.63079541983877   14.52914368683010   12.48043622591812
C         3.62252366064081   13.11383392097977   11.27962069477235
C         3.71641814190750   11.81279025191983   11.74736436919919
H         2.89054220322422   11.37512371347271   12.28628002132956
C         4.88358209425532   11.09449362341709   11.53467128815085
H         4.97997891112396   10.08521212102540   11.90203684998513
C         5.91830432084730   11.70797209718340   10.84808859608267
H         6.84912915154140   11.19703266981593   10.66553449153215
C         5.74433515789988   13.00577799075858   10.39901508259135
H         6.52907980449713   13.51987462883397    9.85945753919245
C         1.55930036998341   16.19382176628963   10.89070616640347
H         1.90514934375622   16.43248368912424   11.90279276016222
H         0.46443660222431   16.12527754176998   10.90801793283350
C         2.01634375551877   17.32913494013762   10.00240862357293
C         1.19532190524901   18.41353407064531    9.73719737283407
H         0.19020124955070   18.43448121966874   10.12875412742652
C         1.68508024243785   19.47183450905740    8.98641744816198
H         1.06504577971908   20.32955193541794    8.77962074732302
C         2.98681205107125   19.40050964689041    8.51859576085777
H         3.41796588913727   20.20022071885688    7.93948380680504
C         3.74141181244834   18.27815844485263    8.81347531095791
H         4.76247407081027   18.18469684379439    8.46722965929917

