70
CSD_code = AGUKOD | q = 0 | S = 0 | Stoichiometry = C29H37ClNORh | MND = 6
C         6.29105972393580   -2.38080127802833   -2.95890551315136
C         6.95257916374342   -1.17760184075887   -4.66568653249629
C         7.80534570281597   -2.27858974867811   -4.59252605498787
C         8.81705564479524   -2.48371978745536   -5.51458698534857
H         9.43237048726804   -3.36365154261432   -5.45342843910329
C         8.97507303237805   -1.52951765489511   -6.50795074999365
C         8.10951159167464   -0.42922955956277   -6.55349000003235
H         8.25338209894268    0.28844266293044   -7.34197395564481
C         7.07092709474286   -0.21297194603938   -5.66038431698545
C        10.06684549181917   -1.63723169995139   -7.56308185019102
C        10.92775625453608   -2.89196908124764   -7.39206946566511
H        11.43495574548576   -2.89257143987079   -6.42998203670773
H        11.68765649375204   -2.91682858052275   -8.17020786961180
H        10.32775503519100   -3.79433275398530   -7.48166063874878
C         9.42200485946320   -1.68900605389195   -8.95497887367233
H         8.74370269746528   -2.53659008882589   -9.02271715211268
H        10.18975180519325   -1.79869612470534   -9.71769128364096
H         8.85943081076322   -0.78485305985112   -9.16843457478312
C        10.98563660949131   -0.41140690750798   -7.45787286355199
H        10.44204031049102    0.51109724159742   -7.64001227012374
H        11.78797378215935   -0.48286053901643   -8.18876727142680
H        11.42745987538152   -0.35618790808282   -6.46510377290559
C         6.09380290418256    0.94276108084415   -5.73276229601123
C         6.40972462253487    1.90419777677896   -6.88003726696781
H         7.40034384597136    2.33942886650697   -6.76571684245554
H         5.68419530503963    2.71454674850846   -6.88038051476711
H         6.34806913560009    1.39976000696004   -7.84159806789020
C         6.14356630789708    1.71916281817173   -4.40991492552932
H         5.84799612231662    1.08538928189915   -3.57906438250343
H         5.46289790112763    2.56638396489663   -4.45130761410820
H         7.14952903785700    2.09275581249303   -4.22588198702486
C         4.68695057357489    0.36507366310786   -5.94148297789624
H         4.64625030565237   -0.20640585883931   -6.86665300178419
H         3.95824577888723    1.17034057208221   -5.99984320886920
H         4.40807584404297   -0.29044315623792   -5.12148986715004
C         7.92701704388086   -4.19564774013889   -2.99611351930391
C         9.30556040085432   -4.29218723690365   -2.84406370036043
H         9.93836852850560   -3.46020095701047   -3.11527260863108
C         9.85666532982512   -5.44603865458338   -2.31621671417357
H        10.92740620237325   -5.51943735710138   -2.19715018433895
C         9.04063266636819   -6.49678837114160   -1.93171609361847
H         9.47630478946983   -7.39328695032722   -1.51689747894905
C         7.66699671608897   -6.39493465555798   -2.08023135598731
H         7.02933930640043   -7.21487407861768   -1.78611044695624
C         7.10261005663321   -5.25023721060130   -2.61498075849140
H         6.02985151902888   -5.17527563107138   -2.76173520554129
C         6.45754565965572   -3.05836714700591   -0.03283983601018
H         7.47727819562059   -2.99481975980939   -0.41493543571995
C         5.72048992293304   -1.87518353685282    0.03728138044808
H         6.19535905591798   -0.96825100138539   -0.33681447783407
C         4.64507425531247   -1.63207918822481    1.07551917849606
H         4.63873058796615   -0.57276412651500    1.34090912698664
H         4.89249701749797   -2.18850706361278    1.98071071043085
C         3.24393690065238   -2.02104724153842    0.56746734630141
H         2.59435647633028   -2.27575689867537    1.41243255166077
H         2.79896221950566   -1.15819866475336    0.06531254740932
C         3.25958034462337   -3.17076682595311   -0.41293867700864
H         2.41700190778232   -3.17088298486007   -1.10446447646812
C         3.96354027774739   -4.34349715314965   -0.25292405914967
H         3.65541816339849   -5.20128834310022   -0.85141667986859
C         4.76772374311662   -4.68038972063974    0.98369582969212
H         4.72561086251257   -5.75850744747235    1.15132503282735
H         4.30406199967737   -4.20295008985041    1.84830829193325
C         6.24458274479717   -4.25705735494450    0.86300492165217
H         6.65512111834841   -4.04434968387325    1.85676686671179
H         6.82124639895002   -5.08733547522517    0.44723485698806
Cl        3.86423359549283   -3.69265545887068   -3.45931296640624
N         7.35818002217757   -3.01185520986996   -3.50387063167950
O         6.05544850332710   -1.27010159405902   -3.63974591251577
Rh        5.05084547044306   -3.04585307265384   -1.61517199854510

