45
CSD_code = AGULIX | q = 0 | S = 0 | Stoichiometry = C18H15N4O3S4V | MND = 6
V         2.60659745174688    5.34571856401397   10.15496518652709
S         1.30600638778105    3.67409586268279    8.93954732948612
S         0.97117804853752    3.52009979253750    6.02325948796113
S        -1.96237502963963    6.55389543514504    9.45112260615985
S        -1.29867847770148    8.00130766690588    6.84640836737869
O         3.88937859246720    4.52963081485809   10.04413642532732
O         3.04706173290187    6.94916322432333   10.60881537431241
O         1.72946537812230    4.82515363284332   11.49316232094609
N         2.94529758298395    5.96726979425215    8.25629817314771
N         2.40226246217543    5.36481392793564    7.19327364874275
N         0.55906284305342    6.38966285624078    9.77921753862191
N         0.41806753905710    7.06081105313842    8.64993137871419
C         4.04990708132538    7.69769334756692   10.28219759663526
C         4.66436767748403    8.56759120846968   11.19747933269201
H         4.30089531385367    8.57857671140996   12.21516009950445
C         5.71689647426507    9.36440705802356   10.80498802743426
H         6.18976883237048   10.01481515598659   11.52569131027954
C         6.17531567556302    9.34192647898383    9.48927938252089
H         6.99951380646652    9.97350843888196    9.19624309797302
C         5.57375791775567    8.51617503994680    8.56741372252115
H         5.92093832885025    8.49610421097541    7.54449886166466
C         4.51535221847674    7.67550795476948    8.93791627200645
C         3.85272143937568    6.85021802875717    7.98268762370964
H         4.11114774154445    6.98274015456218    6.92990973700876
C         1.66270784690251    4.32089933145981    7.40343563519447
C         1.76321395520525    4.42229483098318    4.65601438867176
H         1.48621632331207    3.90139513959606    3.74583373075254
H         2.83734998992532    4.40220535482604    4.80190867024471
H         1.40019520995217    5.44393923001929    4.63571246629316
C         0.58518046206782    4.65301402484631   12.06749072994086
C         0.48545399042301    3.85768264265923   13.22424244962896
H         1.39627148094208    3.41508149201294   13.60259489233953
C        -0.72506148095640    3.65442911850326   13.84666482294828
H        -0.77351855082778    3.04007347470111   14.73319213200188
C        -1.88638926490933    4.22819270463211   13.33781009535809
H        -2.83310180438568    4.06207748439598   13.82745520581201
C        -1.82467017376653    5.00596552983911   12.20266924147548
H        -2.72231948869053    5.45232403362020   11.79752338116248
C        -0.61003624778959    5.23935579322390   11.55484270717149
C        -0.54542923449148    6.02860720887042   10.35913268589514
C        -0.81860680670101    7.23039857349290    8.30863213340853
C         0.35078638593321    8.31573566101852    6.15554464225814
H         0.19903743625136    8.65082097508843    5.13481062888822
H         0.92483936279486    7.39443145575104    6.18795361890268
H         0.84297358999192    9.08398952725694    6.74323284038473

