99
CSD_code = AGULUJ | q = 0 | S = 0 | Stoichiometry = C30H60Cl2NOP2ReSi2 | MND = 5
Re        2.86051178432374    3.72692377342253    4.56034557535230
Cl        1.42423139695947    2.35189283053045    3.38346125908274
Cl        0.96403554004185    4.45019759515374    5.68308018060951
P         4.11197844316734    2.93744613115273    2.63267892170708
P         3.68286593018435    5.88205141964162    5.32260728505872
Si        1.93703328952228    4.91999308801275    1.30468829234306
Si        1.19088883355516    6.74051998318409    3.65873114178031
O         1.98264500349383    5.51911276957265    2.84036415570522
N         3.77158738624572    2.86417249102049    5.74585419848417
C         2.45699220791216    6.26992788313673    0.06623111642205
C         0.19225810029225    4.32059097259877    0.84929809884063
C         3.27837447551922    3.54474228735755    1.11185365754619
C         5.86512546754663    3.54780756990710    2.43745681015131
C         6.65546078518453    3.17158453378175    3.69056257276365
C         8.02553245736233    3.84371403421631    3.67742125846642
C         8.79610127531278    3.44289851713750    2.42202534286136
C         8.00014028886475    3.79155837777827    1.16727103345744
C         6.62978853915679    3.11365074570660    1.18778564677344
C         4.35305481544281    1.08347801048210    2.48948374312392
C         4.18905630349572    0.43803955139176    3.86770442298807
C         4.56569593432830   -1.03802044195785    3.81211088605893
C         3.68683774929370   -1.75967047246811    2.79594218810057
C         3.83779644580778   -1.11796377663318    1.42118747177942
C         3.47610291398159    0.36651632016631    1.46526690322066
C         1.21999031023959    8.30767261521470    2.56846521815964
C        -0.66105343192375    6.39344299019996    3.92989029374301
C         2.34342483877469    7.12181818006203    5.15719729329196
C         5.13665686638842    6.70090153181491    4.48040897580824
C         4.78466829838577    7.05230823564227    3.03758145449181
C         6.00830184813206    7.56899053459331    2.28631248104659
C         6.56558563970706    8.80467278878601    2.98473279812968
C         6.90463363847515    8.47760152851566    4.43508641389705
C         5.68064480486918    7.94661734532824    5.18250614011867
C         4.17190219092673    5.91523298950623    7.11431438272856
C         5.46166447709773    5.11269300532827    7.29267471415090
C         5.89615196717354    5.08766887005967    8.75588887507682
C         4.79554678922139    4.49930390547232    9.62935726642803
C         3.51410291054199    5.30577567222137    9.45994775993587
C         3.08386709656637    5.30569757865588    7.99654226765913
H         3.38523753955040    6.76830970378423    0.32573663401395
H         2.58435540032434    5.82725330185848   -0.91584452215261
H         1.68904849177196    7.02862928341732   -0.02127378249606
H        -0.52031271915290    5.13683657890497    0.93340316483589
H         0.16718727282905    3.96453595575244   -0.17615690444542
H        -0.15298135941571    3.51242522499079    1.48728784896434
H         4.04556501754874    3.87853582125746    0.41270799660511
H         2.77258735796533    2.69154483292305    0.66359158478819
H         5.77452925551123    4.63842077812966    2.40561787707068
H         6.07942070494237    3.45642685293664    4.57715846644937
H         6.79549275068445    2.08994112184944    3.72369857609988
H         7.90663650418030    4.92987638930067    3.69470261169778
H         8.58756543846653    3.55699830117182    4.56766614435353
H         9.76369395746121    3.94850555332859    2.39775884297487
H         8.98284503575978    2.36710578226905    2.44268872854417
H         7.86944384683827    4.87502133231013    1.10794208469095
H         8.55158335868466    3.47594554406964    0.27878685385843
H         6.77875106502722    2.03267302441637    1.18303144463574
H         6.08324619201805    3.37665010690971    0.27902855096145
H         5.39757847689699    0.95485159558229    2.18207277878679
H         4.79790645244657    0.97028912295051    4.60321221774828
H         3.15192682833331    0.53225719925764    4.19274221426060
H         5.61615886196045   -1.14437757271616    3.52727228422950
H         4.43946371826140   -1.48308286250445    4.79965403254166
H         3.95679248709766   -2.81667736219734    2.74362072045874
H         2.64480199286300   -1.69205152121570    3.11284612604311
H         4.87162966041117   -1.22870087076766    1.08157389508180
H         3.19451542874277   -1.62527233779538    0.69872097378233
H         2.42619687109595    0.47506002348220    1.74065423507235
H         3.62592366188152    0.78896245976568    0.46759221574385
H         2.18289473342250    8.55207275396824    2.13501571616750
H         0.51408688939063    8.20551607999864    1.75177353694770
H         0.89854102865865    9.15719453619445    3.16133936220538
H        -0.95782976116437    6.59999984696451    4.95309808563476
H        -1.25903895191197    7.01997243830051    3.27423074213613
H        -0.91461047988465    5.35625113260990    3.73463302622996
H         2.78622409661640    8.11563028978479    5.08714826066963
H         1.75611224766907    7.08076919297323    6.07261131262580
H         5.91878363881009    5.93263015700086    4.47257247709711
H         4.37041624393064    6.17672897686851    2.53371476478110
H         4.01811012299060    7.82849046624022    3.03331263985764
H         6.77987936816633    6.79551661729397    2.25617854832386
H         5.73932417283223    7.81167270512832    1.25523214880017
H         7.45727454068126    9.16031627020151    2.46455013777812
H         5.82176236226133    9.60452446119936    2.95644548775024
H         7.69598012854225    7.72450501930449    4.46113080366381
H         7.27987191652958    9.37074750352139    4.93893939514823
H         4.91615037998004    8.72636797198240    5.21123735525304
H         5.97082348580230    7.72064263090103    6.20789600251973
H         4.31761576287291    6.96574718011205    7.39842427983404
H         5.25598063080492    4.09436118253777    6.94727429014270
H         6.26996569797574    5.52490450797836    6.68675764569794
H         6.80814440155597    4.49600849193654    8.85352955095351
H         6.12005166621200    6.10538806564259    9.08872612890128
H         4.61025697226458    3.46890088616627    9.32405752363945
H         5.10658040119030    4.49832806104224   10.67612419094837
H         2.71890118507211    4.87603781425881   10.07064615790225
H         3.67928571874258    6.33297724689903    9.79766631465298
H         2.14652851140937    5.85410170502979    7.89063497555042
H         2.91405972604182    4.27634047890723    7.66708674570502

