75
CSD_code = AGUNEX | q = 0 | S = 0 | Stoichiometry = C37H29O5P3W | MND = 6
W         4.42463548460026    9.30816312799502    1.11573174081490
P         5.29213613183968   10.35203963157645    3.14763161517558
P         4.95577562717065   12.40378827589175    5.39077390150301
P         6.51796159409768   12.46329586073809    1.49721457704957
O         3.32155535848345    7.97359269018197   -1.49431096094276
O         7.15873317834050    9.84633251414702   -0.33115376985334
O         3.28930216475803   12.07699029090275    0.17605184554040
O         1.65460740281897    8.84251312342676    2.51466548557336
O         5.54770302028495    6.59750530522184    2.23700904896478
C         3.72534096920649    8.45936274080614   -0.54201153057220
C         6.16551240821532    9.65260607825324    0.19759368176876
C         3.72258685429328   11.07196663698182    0.50508316872861
C         2.67406698338103    8.99682128564510    2.01800383906604
C         5.13549281588682    7.56860638266589    1.79986418247821
C         5.63588086107954    9.25989525213289    4.55942476847950
C         6.88744569197612    9.09765034550825    5.13967834036196
C         7.05697573521473    8.19469075800409    6.17574506762045
C         5.98614820622105    7.45024229372421    6.63699013769717
C         4.73674721181258    7.60043976914389    6.05573938926193
C         4.56631881287453    8.49285421877167    5.01748955345528
C         4.17236008249013   11.59377015309367    3.90658219269185
C         4.31514863587280   11.29214764896047    6.70757830400560
C         5.23170245908170   10.73733099336993    7.59150211561421
C         4.80712536143726    9.89068293857737    8.59922543069662
C         3.46112375352962    9.59930155081104    8.73365093370054
C         2.53966415311566   10.16849146404207    7.86900406198742
C         2.96126316208528   11.01669801037975    6.86331967679243
C         3.79961151956071   13.79668162939957    5.67575278694713
C         4.14853443649402   14.63327717160157    6.73351073990096
C         3.38284117840483   15.73987872468393    7.04117959201455
C         2.25808677958830   16.03012562805196    6.28566259901935
C         1.90653423145347   15.20572615551797    5.23162187489017
C         2.67154068298788   14.09387953123125    4.92292635315885
C         6.83806752898423   11.30365131977114    2.92458129145270
C         5.96695226639311   13.94942048982399    2.42925050072449
C         6.66411657402629   14.46290958808659    3.51930073620333
C         6.21095841462372   15.60177674272704    4.15900443574255
C         5.06345951519742   16.24129893411623    3.71902381122146
C         4.37002472086228   15.74202785735371    2.63077902000046
C         4.82099665610533   14.60236702493493    1.98774669044365
C         8.23109460622872   12.99453629220615    1.12244474188777
C         8.49170024642163   14.33321887148299    0.83838197001152
C         9.75795961344635   14.73608785248859    0.45817400364475
C        10.77798745849856   13.80727793416159    0.33707513877447
C        10.51906214951319   12.46958812724907    0.58276862471229
C         9.25298608799491   12.06325785380348    0.96215459897500
H         7.73383669521183    9.66983266199897    4.78841182762328
H         8.03292993755147    8.07117080388793    6.62253736725774
H         6.12466630825852    6.74599869609128    7.44365341467577
H         3.90034604256913    7.01561422693140    6.40842854691196
H         3.59721463436764    8.60018233391406    4.54590503465429
H         4.00359804353498   12.35221133173714    3.13439640510527
H         3.22374485024502   11.10427793141694    4.15153766236872
H         6.28204380064777   10.96844608387588    7.47941227868252
H         5.52641482211737    9.45854444763151    9.27933299520314
H         3.12643466525697    8.93539213371455    9.51704506795845
H         1.48705845900452    9.95299132362763    7.98327352420812
H         2.23422396962583   11.47449563537111    6.20592465406714
H         5.03211903737911   14.40019802138165    7.31394337404112
H         3.66286338208950   16.38009118488334    7.86512820888265
H         1.65812224518545   16.89768593222728    6.51783700629591
H         1.02919322353716   15.42863891702479    4.64152418813205
H         2.37649559328004   13.47101300826236    4.09183333459637
H         7.14324262539643   11.82924488846426    3.83456987440541
H         7.60502646649214   10.58558799571954    2.61604450891710
H         7.58144873532548   13.99423957711491    3.84855237506240
H         6.75812619745822   15.99625895279031    5.00264626129501
H         4.71179373206022   17.12810369155876    4.22487130652004
H         3.47854912370188   16.24154766620280    2.28088941307391
H         4.28638613185789   14.21353338590672    1.13151199275649
H         7.69800263756993   15.06273353688523    0.92109116237083
H         9.94779141695481   15.77932264588236    0.25119057502612
H        11.76737457016380   14.12285939822950    0.04088534402281
H        11.30512863184614   11.73681718743847    0.47112419144467
H         9.06489523436462   11.01109933017191    1.12138179701977

