62
CSD_code = AGUVUT | q = 0 | S = 0 | Stoichiometry = C28H30ClO2Y | MND = 13
Y         8.40418070825956    9.38045359933473    3.37823479399706
Cl        8.77495696846148    7.02895000428882    3.84330445592342
O         6.41379706812317    8.50955603278344    2.19080079091641
O        10.57562647510792    9.76342275373274    4.37686356876853
C         8.88519055113197    9.41271770057583    1.11457554107245
C         8.62403239669335   10.83124653590755    1.21835129467289
H         7.67747594531015   11.30776161388776    0.99109926990722
C         9.80995247988856   11.51053848459928    1.46248099264019
H         9.91061985603544   12.57623369424681    1.57840513938492
C        10.87302360759529   10.57157733829936    1.48192145332246
C        12.25304963447463   10.72048935849837    1.64466766285549
H        12.67540127538155   11.70049822253820    1.82368342421529
C        13.06238579786471    9.61144858137285    1.54966619879388
H        14.13298872249215    9.71448427110927    1.66029620714565
C        12.52332793580506    8.34265524023044    1.30308924670000
H        13.18954031368533    7.49532640512002    1.22528223254704
C        11.16612845834766    8.15856687529935    1.15631321650133
H        10.76584049244098    7.17054248916351    0.97203866156299
C        10.31807626658960    9.26812993420760    1.25045167142398
C         8.01282696767461    8.42289528482435    0.36174735698993
H         8.10084872787825    8.59840224070270   -0.71772327997414
H         8.36452698576735    7.40725536547987    0.57042285967414
C         6.53069576544644    8.52637718891977    0.75186484676367
H         6.12438096165052    9.48525092033593    0.40155733332510
C         5.70875748643737    7.33906521057095    0.23765279585837
H         4.68659185636754    7.64896863335191    0.01679336437328
H         6.14420424262679    6.90528033515437   -0.65939263851185
C         5.72392940595047    6.38727523078699    1.43045927142639
H         6.66440538191584    5.83855184550608    1.47829330347433
H         4.89797802280504    5.68076139422984    1.42406884421094
C         5.64427220020940    7.36605847317383    2.59273465715696
H         4.60753694299724    7.68469564332567    2.76989083428967
H         6.07475642897166    6.96759273914627    3.51438817212460
C         8.48672439177207   11.08157908457026    5.50141498605150
C         7.77906711780032    9.90844208128646    5.82416150124760
H         8.03398135249059    9.23038511773626    6.63112900421567
C         6.59708903046585    9.82836610358037    5.04506234783069
H         5.77130396654750    9.15182216296068    5.22588089617599
C         6.54881338279214   11.00058014075497    4.22766983909910
C         5.58145719166162   11.50874274031529    3.34250684801952
H         4.66790734685487   10.95602845526381    3.16275293138533
C         5.80031535522262   12.72288987626029    2.73841343223582
H         5.06052324477908   13.12816572037471    2.06253216364473
C         6.96310048424745   13.46687268307651    2.99530167475791
H         7.08991073588483   14.42164724705156    2.50578093028375
C         7.92539591877418   13.01134096086720    3.86273210698072
H         8.80156737041765   13.60994765148839    4.07498806313219
C         7.74565532296656   11.77268610219255    4.49986232888131
C         9.85536862010943   11.43573839872399    6.00198739649583
H         9.93593505699763   12.50567155280282    6.20701242340671
H        10.05667994840142   10.88857887113291    6.92581567558199
C        10.90650028118023   11.05413172350887    4.93458831836339
H        10.85738170323120   11.77712599460957    4.11034453883321
C        12.31984231094598   10.91430676089437    5.49759190813419
H        13.05489157689293   11.11308668416543    4.71727793136806
H        12.49404340501844   11.58981388994763    6.33229398856616
C        12.36832811335221    9.44202364844645    5.89701592010081
H        11.88544738939832    9.28851364884514    6.86253303842156
H        13.38128702229726    9.05102472077104    5.94656529211717
C        11.56090030758189    8.79359924220823    4.77998903670583
H        12.19465899043419    8.57045272968926    3.91312831612622
H        11.04291673108936    7.88140636577303    5.08878361830576

