117
CSD_code = AGUYUW | q = 0 | S = 0 | Stoichiometry = C50H28Cl8FeN12O18 | MND = 6
Fe        9.54331421181771    2.05768137426472   12.24892793624137
Cl       14.39743828476286    1.61518674434891   10.28497230675965
Cl       11.73050048758770    6.04899476967575    8.90978138498513
Cl        8.55874522008620   -2.79990782918498   10.10926540671380
Cl        7.61517312764494    1.55669356491402    7.09477254143198
N        10.13461065295080    1.83501036403342   10.33733817410890
N        11.00636521707258    3.41443921131109   12.52963187528077
N        10.52780190718072   -0.08063076207831    7.21275493650512
N        12.33342348569521    2.25402617120598    7.38885610816472
N        14.19950110390627    5.12709682662814   11.76195274028240
N        13.50944466757254    5.11890630568007   14.62393973100168
O        10.55912676848184   -1.25057236404449    7.51730191948296
O        10.56607794587295    0.36791463883319    6.09370983170370
O        13.16535701663142    1.42411734877185    7.11530462630497
O        12.19639940153023    3.33434175444247    6.87249457667458
O        14.11585144950962    6.14500566548038   11.12669659889126
O        15.20996234271853    4.52629260627944   12.03648021382636
O        14.04397535116666    6.17819549128865   14.39973351724092
O        13.68489666335391    4.42271711135880   15.59780951804884
C         9.67758600231824    0.88529787614214    9.47823923685738
C        10.50013585117030    0.86264437592499    8.29499201471591
C        11.38468094133262    1.89698784130714    8.41597407903189
C        11.17512307445969    2.46385955513710    9.72344524711372
C        12.03509936407671    3.39632715981513   10.29527241069551
C        11.95689184020392    3.78878455143492   11.62885179680727
C        12.97372295978090    4.56440766445200   12.28550838516937
C        12.63575889226421    4.60593266060791   13.60980017109804
C        11.36611498115563    3.93648332491038   13.73183709007536
C         8.50216800179626    0.15143810665185    9.61245972554864
C        13.18554449387650    3.87775255869817    9.49303643948794
C        14.34441074491243    3.10641392183990    9.41593337557148
C        15.43363013316612    3.52205357303713    8.66921354392417
H        16.31894740027339    2.90950800835759    8.62696289312928
C        15.36151498887804    4.72296961447502    7.98546230344563
H        16.20440384947283    5.05054770372092    7.39863841302679
C        14.22418654859671    5.51032069648570    8.04709332993821
H        14.17130181789464    6.44706304616292    7.51775245595989
C        13.14378387711068    5.08784751159477    8.80149097065834
C         8.05949274303948   -0.70249589721152    8.49245969737068
C         8.03468579267417   -2.09188401227980    8.62715327903193
C         7.62630340141661   -2.90691960194435    7.58608824619459
H         7.62579914204868   -3.97707497704553    7.71385766762853
C         7.22180339782831   -2.33397204089149    6.39317948729562
H         6.89965469578946   -2.96479674227910    5.58052097807782
C         7.22400504504614   -0.95941628296377    6.23318849693130
H         6.90324857400932   -0.50941311239635    5.30783680691131
C         7.64386284977287   -0.15419790462884    7.27721818928310
O         8.11023117966823    3.63441503633349   11.80496868919592
H         8.30857655270638    4.54861689491343   12.04742430601610
C         7.06171660675124    3.67269480160445   10.83295746108177
H         6.10196467175242    3.75070776475917   11.36058394451358
H         7.09634305787960    2.72118752220949   10.30075403127582
C         7.23255293022794    4.82955940791966    9.85669815726249
H         7.23475097550647    5.77202881682381   10.41165704711396
H         6.37351816342263    4.84208746323246    9.18572496409768
C         8.51900317672606    4.69943187877731    9.05193725402823
H         8.65170093152163    5.56099785232191    8.40470665824535
H         8.48988330614173    3.80844001717581    8.43129292117746
H         9.37921220422790    4.63194713024847    9.71365659643233
N         8.95003028060419    2.28235649950803   14.15968074931940
C         9.40739793635942    3.23172999535407   15.01899171255591
C         8.58497970424811    3.25421678007190   16.20233343223230
N         8.55752108621985    4.19733774914869   17.28470920055724
O         8.52609796260471    5.36732201867083   16.98030959330345
O         8.51913341735392    3.74864444378901   18.40369412357557
C         7.70038125848538    2.21990301214830   16.08130449120938
N         6.75170850326176    1.86272830406087   17.10844214755473
O         5.91991321102168    2.69270820542276   17.38226621620299
O         6.88888486959626    0.78244338904676   17.62482876649142
C         7.90980034370991    1.65319468991812   14.77373881106920
C         7.04996271913300    0.72055662977152   14.20200745923890
C         7.12798918821678    0.32834988599877   12.86834496531482
N         8.07810673562660    0.70329113482740   11.96740120200380
O        10.97592475632160    0.48137155298123   12.69242938303070
H        10.77749236072307   -0.43294244871237   12.45020650393201
C        12.02412288075369    0.44365038283525   13.66458132657030
H        12.98383494230325    0.36567847489724   13.13689812436855
H        11.98919539178776    1.39530832448342   14.19650921636703
C        11.85267823181055   -0.71318028621742   14.64076187806110
H        11.85055198765165   -1.65569056931698   14.08584894850701
H        12.71165139756546   -0.72559429662973   15.31176309196411
C        10.56613845839828   -0.58297997918684   15.44543258136386
H        10.43327957451037   -1.44452567283195   16.09270145212939
H        10.59521691558161    0.30807988785820   16.06601511094682
H         9.70603894528795   -0.51544475650728   14.78360273221222
C         7.71882816417701    0.18055140573444   10.76536259051210
C         6.44933114324111   -0.48913304878442   10.88746739751964
N         5.57576780333922   -1.00236488154022    9.87337613556464
O         5.04144389166887   -2.06173736690234   10.09764972608879
O         5.40017287346660   -0.30628178789995    8.89946287065747
C         6.11136075350806   -0.44758632595269   12.21175347365844
N         4.88572528874210   -1.01062844939797   12.73521662864510
O         4.96963830900699   -2.02817147446515   13.37100451984980
O         3.87521545281733   -0.40968662815188   12.46122674610126
C         5.89958565952107    0.23904062912666   15.00428668136400
C         4.74075830449121    1.01042037653261   15.08145661724677
Cl        4.68774506523525    2.50157278759136   14.21230499118178
C         3.65151842628966    0.59477262605142   15.82811963120965
H         2.76620893514037    1.20732793366624   15.87035040769173
C         3.72363240317511   -0.60613096519476   16.51190014770295
H         2.88072482584897   -0.93370847715141   17.09869512478789
C         4.86095093946648   -1.39350977214650   16.45026139555358
H         4.91382804125067   -2.33024647514408   16.97961790808611
C         5.94133162529229   -0.97110463611743   15.69577771435026
Cl        7.35465867946604   -1.93220219594950   15.58762241132917
C        10.58300744263220    3.96532515643402   14.88487513359412
C        11.02592805115569    4.81907289886340   16.00492420201759
C        11.05084396945921    6.20845503935399   15.87031111124923
Cl       10.52670495772680    6.91654207916998   14.38826693531168
C        11.45913627221948    7.02342750877606   16.91145646519462
H        11.45974815726558    8.09358628558172   16.78371967238729
C        11.86361162203661    6.45039294405780   18.10432727124899
H        12.18583236511554    7.08115873071046   18.91699760279564
C        11.86142545691766    5.07582150759833   18.26420974441260
H        12.18210034641685    4.62576439485889   19.18956497856947
C        11.44152802436568    4.27067673984381   17.22013786262301
Cl       11.47009322396295    2.55977733081243   17.40253997634218

