57
CSD_code = AHABAN | q = 0 | S = 0 | Stoichiometry = C14H34Cl3NO2Si2Zr | MND = 6
C        -0.52801313119135    8.10929310794113    2.64459001428944
H         0.09053360653045    8.59334534522901    3.39399947233835
H        -1.42906581855839    7.76773761383886    3.14497975314177
H        -0.83252115944346    8.85210264806734    1.91151323146820
C         0.60894974763212    5.13746523688744    3.01159601135091
H         0.15229480955529    4.22552728487637    2.63710063749491
H         0.17758732969649    5.34080217808128    3.98768388984079
H         1.67208246640060    4.93710069744635    3.15890445493293
C        -0.95153300794066    6.05158482828712    0.51361338729743
H        -1.06631431114707    6.78243860558473   -0.27802979713274
H        -1.91758518966785    5.93039269273475    0.99170096456983
H        -0.69114299212967    5.10568446386821    0.05732625269569
C         2.89093044592729    8.44919723305366   -1.29052328505746
H         1.95613595847782    8.98678346817125   -1.42333218788156
H         3.28172926637720    8.23384818732534   -2.27951769199623
H         3.59746794296932    9.11056092058594   -0.80043302438000
C         1.64894164342170    5.67618775366898   -1.50663911648027
H         1.41125381875916    4.72282213503468   -1.04979116778077
H         2.23214728408362    5.47651880033459   -2.39894249174297
H         0.72190580002633    6.13854524679789   -1.81966827608294
C         4.31890894316634    5.89856610566594   -0.12384811367928
H         5.03607443570909    6.45917121511921    0.47292852954627
H         4.77140808740368    5.73506570416920   -1.09833144652351
H         4.19012848432435    4.92347348802381    0.34210818104467
C         2.51934056102606   10.54493076669550    3.86680906919502
H         3.46219326670184   11.09567970873183    3.72653352814395
H         2.52021832349677   10.00932786994676    4.82106473272093
C         1.31947237825333   11.47458597315480    3.68015287710704
H         1.49814373025835   12.46301760475489    4.09589494889422
H         0.44445831478917   11.04351883662438    4.16494621278731
C         1.13630024444123   11.49656624163961    2.15345874251320
H         0.09236436321780   11.35416681069252    1.88403350876285
H         1.47377788270003   12.43812021662773    1.72436720568945
C         2.00969310100216   10.32961050069588    1.65593739056850
H         1.49423999854543    9.63724158403207    0.98339040597491
H         2.92642235686992   10.69976042512887    1.17551599050457
C         5.04886500247006    7.35444373990612    5.49498276956657
H         5.86477384872302    6.68030943166187    5.19959834737799
H         4.15562889697162    6.77168312540507    5.72559445331604
C         5.48452250005212    8.28007645425892    6.63507985479941
H         6.19088385237318    7.78879414467245    7.29932818915372
H         4.61575208354641    8.58657847970711    7.21573801819863
C         6.10064025228259    9.48019531663430    5.89685886356420
H         5.61015389981545   10.40898927100184    6.18437120413756
H         7.16577663915161    9.58188458011643    6.09188208722465
C         5.84198488185539    9.15870532325360    4.41655948996930
H         5.57233447544570   10.02901898112879    3.81725354408327
H         6.72033153753521    8.67900273715554    3.96343373663975
Cl        1.95831878625249    7.47593607758243    4.77666290021852
Cl        4.22991816992642    5.54889397709247    3.06706193662399
Cl        4.85176435033834    8.81023375916452    1.54525119818425
N         1.87343921576477    7.14605688231601    1.19423654783518
O         2.36954469177266    9.58251536702495    2.82308872265889
O         4.74984863542177    8.23704854289661    4.40644698235876
Si        0.34353933380752    6.60920111359275    1.80217450668872
Si        2.63884785449712    6.80370248203165   -0.32409411018619
Zr        3.15510211023896    7.58668871386046    2.71039796345222

