68
CSD_code = AHAJOI | q = 0 | S = 0 | Stoichiometry = C31H32I2P2Pd | MND = 4
Pd        1.03685123639230    5.54546862552959    4.52244116554153
I         1.40434843335314    3.86766636947295    6.47500561846994
I         3.53053296847429    5.55722058709842    3.80254813486746
P         0.74335057650418    7.29144836847481    3.13746216300004
C         1.28390023544123    8.71982173203051    4.12453123498848
C         1.25697073769767   10.02053939766983    3.62853062770542
C         1.67446618981746   11.07115917337583    4.42412582785574
C         2.11486191649153   10.83584533394649    5.71711932053975
C         2.13763158572531    9.54568556869371    6.22020475791559
C         1.72381743508275    8.49077786502109    5.42789195399946
C         1.65698999234537    7.36280159122900    1.56941305311119
C         1.32762342587891    6.39795609915106    0.61992225760130
C         2.01608213000516    6.33299873305039   -0.57507158426098
C         3.04479745487777    7.22683593701955   -0.82578911693926
C         3.39137128358787    8.17046052728759    0.12609288587140
C         2.70843225156319    8.23729726088976    1.32731784937368
C        -0.92830009798836    7.79044816734287    2.50570828678743
C        -2.13403238057431    7.48196561319753    3.40171413261710
C        -3.39741098432619    8.01106217649580    2.67621648261555
C        -4.65761650760613    7.81915854321979    3.45999298511403
C        -5.58806093575980    6.93110703573632    3.16140592504350
C        -1.96284737442784    8.17779913829786    4.74924459787212
C        -2.28067745059996    5.96395139531762    3.57701202406956
P        -1.14974192437719    5.19603759067267    4.81867055196278
C        -1.27687387111403    3.45072323647531    4.32088536662688
C        -0.42346601933120    3.08866987780740    3.27385084806434
C        -0.37088279036646    1.77997912568493    2.83861060655582
C        -1.15782591731248    0.81873183810262    3.45603699920660
C        -1.98171269873696    1.16802933557309    4.51125827588825
C        -2.04266068717134    2.48033448911052    4.95087642597001
C        -2.01813093863012    5.43614392408585    6.39147913631648
C        -3.35725172656535    5.09116248267222    6.54899401966532
C        -3.98401743432903    5.31196375998273    7.76144264469453
C        -3.28819206018927    5.88517447889846    8.81399858077160
C        -1.96300503370268    6.25341526320830    8.65221471679448
C        -1.33119505731798    6.03325472726487    7.44303096810628
H         0.92114004462155   10.20943014406568    2.61718680740785
H         1.66034978073817   12.07768600493521    4.03214595061234
H         2.44362090613994   11.66017422369375    6.33179429786848
H         2.48359071408120    9.35976201247198    7.22584952722978
H         1.75860308192301    7.46768849304265    5.83482964689371
H         0.54231577321617    5.67884882160317    0.83384078523285
H         1.76130781716661    5.57822177863404   -1.30445354824528
H         3.58923310277693    7.17325677441735   -1.75639337495559
H         4.20985112424942    8.84987710974064   -0.05814345652282
H         3.01154909625146    8.94842417519138    2.08209724269939
H        -1.05700696794784    7.29325571110930    1.53726005046512
H        -0.87546906295202    8.86785984533357    2.31389422620684
H        -3.48822757528718    7.49933923474591    1.71473402661180
H        -3.26134185086735    9.07846898241983    2.48227929835647
H        -4.78200450348042    8.46355906438618    4.31958002199264
H        -6.48323043998394    6.82253992227812    3.74968793252567
H        -5.50084424800500    6.28067844702776    2.30538240239349
H        -1.91778494190697    9.25827725399927    4.62073580992898
H        -2.78295451974148    7.93733228413657    5.42215839683848
H        -1.02948804627572    7.85463716403811    5.22052330586962
H        -2.09635583663242    5.46022658861808    2.61895612289716
H        -3.30532897391109    5.72754502677398    3.88321027416749
H         0.23213444244439    3.84253623065001    2.80861755566248
H         0.29712166078555    1.50321334252162    2.03628404250886
H        -1.10774653072077   -0.20807650675621    3.12664844505817
H        -2.57077933896242    0.41308356703560    5.01033675864265
H        -2.65499386943031    2.73612462663751    5.80297161658097
H        -3.91331216348349    4.65626215378784    5.72927530505687
H        -5.02094407777163    5.03520060406148    7.88494471798505
H        -3.78286370307487    6.04894424479990    9.75958062297919
H        -1.42095119886002    6.70802289195965    9.46734325308798
H        -0.29281565790905    6.32260441353597    7.31285221158254

