78
CSD_code = AHAJEY | q = 0 | S = 0 | Stoichiometry = C34H38Cl2P2PdSi | MND = 4
Pd        6.68310449851049    3.40167034729783    4.06372308265761
Cl        6.30587851360587    4.99366212526890    5.65370520996687
Cl        8.81316779392431    2.95092422003440    4.75595312513076
P         4.69094222985624    3.94706392891327    3.25215890583990
C         3.20916338582188    3.63027938468483    4.24705199891289
C         3.41744649331571    3.17144184478489    5.54465995134480
C         2.33984374798106    2.90923119953786    6.37013023000683
C         1.04972741878906    3.10129329689874    5.90292758777723
C         0.83837294726983    3.54141067733486    4.60610738252442
C         1.91212584046232    3.79906576986151    3.77307252357359
C         4.74624699786963    5.72302470723891    2.87257176837772
C         3.65840358471570    6.58397439542718    2.90709707257815
C         3.83564548636726    7.92522791028422    2.61074844422392
C         5.09027655850862    8.40867362297976    2.28207608952481
C         6.18211023067083    7.55360233126740    2.25739642563852
C         6.01274335425467    6.21593377839891    2.55549985936472
P         7.14998779947947    1.74069450518769    2.66147881754116
C         7.09304079466107    0.17262333390141    3.57312556572899
C         6.76771423997067    0.23651581438463    4.92672954769393
C         6.69532614276530   -0.92168718076596    5.67841333705969
C         6.94308355818689   -2.14870179506172    5.08379939933162
C         7.25681169765006   -2.21830319425593    3.73594253769262
C         7.32870572725077   -1.06305568090666    2.97816277550342
C         8.76260059830412    1.86006435981633    1.84280616014644
C         8.98061232035475    3.05316773258624    1.15585383380014
C        10.19317980012068    3.29203412585638    0.54146142678439
C        11.20100822322989    2.34273042577397    0.61906200935640
C        10.99644448503629    1.16873204789803    1.32344179989506
C         9.78200247117512    0.92422940119268    1.94212510592145
C         4.31757830692532    3.26232906909676    1.57682554394247
C         4.56076520792085    1.75319621296308    1.40546939573470
C         6.05098597778703    1.45103754210954    1.18967943832943
C         4.03527416620902    0.97528249388860    2.60898524868825
C         3.79825292430778    1.29704706788348    0.13616936608815
C         2.37854593720913    1.57248648058125    0.23776726010101
C         1.20747675262455    1.83218353778708    0.35864094010782
Si       -0.60381486370059    2.20042286137060    0.55398371913489
C        -1.21783737983084    1.27088628416864    2.10049098655070
C        -0.82032901288146    4.08468395553037    0.76409960377551
C        -1.51392809799647    1.60837813991012   -1.01034184474480
H         4.43744378570408    3.03959074973160    5.90014017709483
H         2.50374722337896    2.55903702438907    7.37810087050253
H         0.20599794501163    2.90438882936188    6.54771370831919
H        -0.16889434684084    3.68539305183518    4.24250824746387
H         1.73571520807880    4.11842947663625    2.75565619897449
H         2.68281465430342    6.21651893359156    3.18897692710158
H         2.99037372157319    8.59686320911374    2.64782557420109
H         5.22308829359553    9.45745723827606    2.06144989116403
H         7.16432765817827    7.93716888341128    2.02373851387331
H         6.87867605090251    5.54036197538830    2.58712546842370
H         6.58851044982593    1.21282070203015    5.39447267031915
H         6.45038873017989   -0.86952857818526    6.72864144116623
H         6.89247277489078   -3.05344222410183    5.67118705866952
H         7.44830451989348   -3.17625956205213    3.27437641696107
H         7.57296086174934   -1.12266126580014    1.92566629912366
H         8.19181669146877    3.80217557463747    1.13567097178583
H        10.36226616370882    4.22011321903678    0.01505466819262
H        12.15358224257323    2.52937168439409    0.14577557200309
H        11.79219320196928    0.44274162857883    1.40418127970028
H         9.63895449167259    0.02361680751542    2.52064418851906
H         4.93956355141977    3.82169360898088    0.86741826286314
H         3.27071046719892    3.48412348780440    1.34648766270788
H         6.17367357334038    0.40491050529565    0.89112273505161
H         6.44075591024254    2.07385733832703    0.37676042720451
H         3.93985347246563    0.22228982693601   -0.00943851158159
H         4.19837872552262    1.81499007818498   -0.74102897344001
H        -2.23393663087430    1.55556778823960    2.35857463364848
H        -1.20937980199793    0.19719320012867    1.93866930531176
H        -0.58757913992534    1.47522679100860    2.96126593633445
H        -1.87037033819501    4.36239740350115    0.73903404296228
H        -0.41468688794768    4.43574990438775    1.70798896655137
H        -0.31992589515910    4.62929309256765   -0.03142038655200
H        -2.58590228306613    1.76389336932628   -0.92798591977303
H        -1.17069188540535    2.14264943458966   -1.89116014894618
H        -1.34741213197267    0.54961771342547   -1.18399858571937
H         2.96568794862013    1.13936493099452    2.72663956686730
H         4.21125939894593   -0.09172242583524    2.48104690570598
H         4.54547476629309    1.30108951326214    3.52046630564549

