69
CSD_code = AHAPIJ | q = 0 | S = 0 | Stoichiometry = C28H26N6NiO8 | MND = 6
C         5.87007976301728    6.21172091159729   11.55422622119183
H         6.63942168183885    5.46970365145221   11.38785576406954
C         5.70887823175177    7.27497863026609   10.65668005392661
H         6.35005597968916    7.35250658875181    9.79269790087441
C         4.73175296766923    8.20713619858204   10.90160902840510
H         4.57750905708803    9.04704334039742   10.23928834047618
C         3.91786673900073    8.06104601977829   12.03782965688524
C         4.15557959494804    6.94487689208231   12.87073493558253
C         2.88321417805155    8.98179448935347   12.36955496363031
H         2.72218089362632    9.82599114884202   11.71509919555881
C         2.12281987917993    8.80553751748881   13.47582608235706
H         1.34103076852525    9.50669857794342   13.72833995096759
C         3.33585767714539    6.74778858198895   14.03769407038452
C         2.32605027646522    7.68980622026263   14.33854968511983
C         1.55502781028588    7.47619531656249   15.49282542080448
H         0.77341908327548    8.17672020675393   15.74914847752680
C         1.81569064699062    6.37950793151626   16.27636870880235
H         1.25031109487795    6.18737717313967   17.17447148879909
C         2.83290042600392    5.49815288645700   15.89720266909685
H         3.06195723094941    4.62919176680195   16.49919157388086
C         6.59196486772398    4.35492038819463   16.27663463002424
C         7.81768926337503    1.29433719354286   17.12537901158905
C         6.01006202980147    2.95089595242042   16.27650009260649
C         6.49872362231115    1.72706717794886   16.68722064091536
C         4.42791933799610    1.51304613614715   15.95198198217656
C         3.15138242874825    0.86982076299935   15.54289349227942
H         2.99380543201102   -0.03223417343736   16.13999121117491
H         3.23514344428021    0.56682090685911   14.49421830452399
C         1.96120340784462    1.82167927238888   15.68025756047868
H         2.18317926319693    2.73149191874570   15.12090365179148
H         1.08641559429572    1.35364434094605   15.22711509181907
C         1.66802322289262    2.15072221521816   17.13852834890404
H         2.54184245786603    2.58525199020401   17.61944639834011
H         1.39210749892408    1.25103649000140   17.68590671833589
H         0.84509494568028    2.85755943181063   17.21044236912460
C         4.05228196375396    2.48695120100280   12.56340266167544
C         6.06349755481995   -0.09315016024467   11.57370532125529
C         5.51761808097193    2.22815087508015   12.68289724541710
C         6.32111053075316    1.18792990571082   12.27376578650417
C         7.52765875094287    2.71589182376351   13.33063307747816
C         8.71226694373545    3.38021153365655   13.92330235687496
H         8.65691320625703    3.30275765274936   15.01426631553602
H         9.61491476506350    2.85400808512578   13.60379792231812
C         8.79780349264608    4.86583804724501   13.55280155758919
H         7.82911526077391    5.33059757751382   13.74218471453033
H         9.03076004662138    4.96312505465093   12.48862161896580
C         9.85912603179693    5.56493693874225   14.38972323012956
H        10.83269499175049    5.09806026211128   14.25294520681913
H         9.59069983613361    5.50882420339901   15.44135238749689
H         9.93488730980299    6.61208013088472   14.10761904029163
N         3.55634997587556    5.67202008695848   14.81294794701400
N         5.12559971712964    6.05022880265585   12.62199254913673
N         6.28163161481871    3.15645849047618   13.33359965149656
N         7.58276815359008    1.52712059414367   12.69394940910331
H         8.39221795325662    0.94625751729155   12.52953088214089
N         4.73224796020255    2.78896730983324   15.82216388158774
N         5.46546008154293    0.83585472328516   16.48655085395688
H         5.51603531237201   -0.14921943823619   16.69537485945569
Ni        4.92105834649337    4.35919151002808   14.21086513024906
O         8.85458628759900    1.86910545442878   16.92514801545328
O         7.76195117539798    0.09526550069115   17.74817281554640
H         8.65259278624152   -0.16441962624823   18.02946206075151
O         7.41503071109533    4.68206326494353   17.10908484127331
O         6.11527685335171    5.11215499131820   15.36725838219373
O         4.82498979567440   -0.32402973812553   11.20813147614458
H         4.17189372260264    0.42735302550455   11.44265303863166
O         6.97758590586794   -0.86413172441581   11.38445712948744
O         3.34472678782891    1.66540288740520   11.96096853138484
O         3.64898729590991    3.54490918264112   13.11235640967417

