68
CSD_code = AHASIM | q = 0 | S = 0 | Stoichiometry = C23H39O3P2Rh | MND = 4
Rh        2.66479740240042    2.46224798815986    2.94511702581823
P         1.91400050191994    0.36912609885281    3.34427545680680
P         3.84485398089722    4.36258011802379    3.26289697797471
O         2.57447758599276   -0.10791801489085    4.75221100070797
O         4.76995553200587    4.12754022511629    4.58019182208976
O         1.16979164541564    3.13057422472967    0.42345078766784
C         1.74790511632128    2.87283796373600    1.39090176808458
C         3.65027842089927    2.01971744578863    4.62910391011000
C         3.47342345524346    0.80432747399407    5.29341960399737
C         4.14779555907549    0.48011447720320    6.45884082481962
H         3.97661287553949   -0.47392018076392    6.93405725312132
C         5.03727049057022    1.39695324058269    6.99490399631245
H         5.56968006305884    1.15790833570166    7.90284840591976
C         5.24949914890948    2.61785854006465    6.37571530500992
H         5.94037605804113    3.33856125863804    6.78632414023027
C         4.55783852375330    2.90694748689911    5.21116838888187
C         2.58689034551461   -0.96897524133746    2.20233324419008
C         4.09750691063847   -0.71608361534302    2.25629837573171
H         4.50106238702461   -0.97604806205783    3.23351918244189
H         4.30360756549813    0.34551379189002    2.06923036994385
H         4.61491921820588   -1.30769979796895    1.50234667741975
C         2.27398773479421   -2.38627499731748    2.66421330201792
H         1.24037441236413   -2.64926969181182    2.45152791000091
H         2.45291154953104   -2.48593931012806    3.73299041682987
H         2.91441468043339   -3.09641437325699    2.14129950701735
C         2.10289116213352   -0.72763131413255    0.77675624164604
H         2.64270758793185   -1.37427537685130    0.08568439476474
H         2.28448906385871    0.30830591908175    0.49060842780835
H         1.04147258776330   -0.93259079280000    0.67068430132778
C         0.09755038946029    0.14561826306782    3.78307064464376
C        -0.17887835143485    1.40807175302460    4.60805673421556
H         0.05936944700580    2.30088237496565    4.01811514406286
H         0.43399004324138    1.41483466211075    5.50985844615423
H        -1.22588448346151    1.45776810617578    4.90446427014091
C        -0.19126323961412   -1.08870101155687    4.63038912965284
H        -1.19812080138329   -1.02065496226287    5.04183217582484
H         0.51133425223503   -1.15807992020570    5.45740867072515
H        -0.12894691168538   -2.00083003028721    4.04434458742815
C        -0.76266212637818    0.16417653275896    2.52528814559997
H        -0.69888479167305   -0.78082558551031    1.99079433052859
H        -0.44664001706894    0.96651914918919    1.85967219494863
H        -1.80700444675218    0.32918073588446    2.78856239376394
C         5.19927054461198    4.77558469054021    2.02275699016030
C         6.32059044270197    5.63893494979770    2.59008310976187
H         7.16871773586090    5.63086288798905    1.90574887312119
H         6.65311712655946    5.25178259652839    3.55034001822455
H         6.00505404859688    6.66977798545203    2.72173751208521
C         5.74546624928179    3.38282603903700    1.68668752868324
H         4.93726157916943    2.74499788276769    1.30953229969329
H         6.16999930727442    2.91568991265037    2.57579927838153
H         6.52315382491811    3.44277727323130    0.92631299317821
C         4.60284250175518    5.40095778481879    0.76746476235193
H         5.32391738435726    5.36277846294080   -0.04850863420638
H         4.34145273571875    6.44359669076857    0.93283053157096
H         3.70908712160353    4.85918911256167    0.46010789260601
C         2.85409638144121    5.85970223051780    3.83132765096620
C         2.04254558932824    5.28720876427186    4.99877583418171
H         2.68835174333597    5.05354892318818    5.84371474118484
H         1.53854090624923    4.36424222452123    4.68412954902772
H         1.28755531085080    5.99893759140652    5.32983088315446
C         3.71628443126704    7.02102831281927    4.30913501703677
H         4.14691685568284    7.56162496136204    3.46944939720676
H         4.51989523500441    6.66054026551702    4.94825763700821
H         3.10960113735678    7.72169057679788    4.88254691344921
C         1.88984218360592    6.29664399432959    2.73407905621332
H         1.17975376144707    7.02205644927637    3.12990219773122
H         1.33155606629497    5.43785580351088    2.36186019782090
H         2.41067926749109    6.75662974625779    1.89912188302313

