103
CSD_code = AHATUY | q = 1 | S = 0 | Stoichiometry = C38H59ClN4Ta(1+) | MND = 10
Ta        1.57359533237597    4.16699743822978    3.39069496095074
Cl        2.37127562020368    1.92211366415075    3.79116793025126
N         4.80817425963099    4.40340500409379    3.09029466517529
N         1.77555726846284    2.82052876632732    0.41924524662276
N        -1.13825400339357    2.40881897511332    3.92326282548473
N         2.23981441576787    4.11938485957511    6.58098273352146
C         1.21616681692837    6.22076905902069    1.91916033317043
C        -0.03516175353529    5.81142809840844    2.45539243379501
C        -0.01883632679778    6.08331111305855    3.85200474936025
C         1.23754624620925    6.66287554348560    4.17102019328282
C         1.99855302274083    6.74653815607256    2.97880415614242
C         1.56508994800890    6.33089924494655    0.47055515240842
H         0.91561937928134    5.71061898880752   -0.14227999043861
H         2.59898467449450    6.03743210107959    0.29022917150352
H         1.45158567358454    7.36524922891480    0.14119559779946
C        -1.23408136361734    5.43043731887005    1.64719815252736
H        -1.96279363065506    4.89279500450021    2.25024252976780
H        -0.95695257043588    4.79895882068936    0.80404487641907
H        -1.71830422328634    6.32553506493738    1.25243484293063
C        -1.18665302091628    6.01696681969881    4.78291751892790
H        -1.95850066136276    5.35221049053837    4.40251492506523
H        -1.62558686643286    7.00924161284629    4.90098058268099
H        -0.88532963064430    5.66640728669906    5.76975411465376
C         1.60888871739767    7.29679224620941    5.47125795359964
H         1.00592324344128    6.90787981331996    6.28814267372573
H         1.44247655639075    8.37431397307542    5.41436018383800
H         2.66054904338817    7.13732043772822    5.70610187888494
C         3.28743471426681    7.48374731193465    2.82567371907590
H         3.88773474252367    7.42128844929986    3.73139436087140
H         3.08459201619766    8.53941306829738    2.63304732639736
H         3.86811007112670    7.09887737236952    1.98976099311800
C         3.64814634806274    4.46526086580064    3.13660279084027
C         6.18136914821259    4.32006666183966    3.35655389352683
H         6.71322123673578    4.47282503655639    2.40915067367008
C         6.57656321542408    5.40917361046728    4.36362077280055
H         7.65945836775419    5.37415488611144    4.49004150729582
H         6.31474939647174    6.39171227220067    3.96524538778748
C         5.89303480805110    5.17839622844231    5.70839529391989
H         4.80829388305936    5.25031189946496    5.58510751511983
H         6.20692173711812    5.95211800478731    6.41096155445572
C         6.24852004782102    3.79793790867652    6.25271636125259
H         7.32687980289893    3.73978245031621    6.41508993542006
H         5.76013959006673    3.64049242167100    7.21572579720609
C         5.82336077492302    2.71233455518591    5.26800644643485
H         6.09999417587713    1.72988837709842    5.65238944581534
H         4.73730263849791    2.72636000917579    5.13928666955102
C         6.49298425741919    2.92338115865689    3.91299723706033
H         6.15115026936921    2.16345319437152    3.20837885526703
H         7.57582654942085    2.83673478741947    4.01430463337797
C         1.55622806882247    3.38066395840611    1.41116396366279
C         2.21634788888073    2.12497244034660   -0.71282186946084
H         1.71575987521541    2.56888591407284   -1.58291475520491
C         1.83435568017780    0.64408596777104   -0.59122387536101
H         0.75565817323594    0.55424191298802   -0.44807069986885
H         2.09438784437999    0.15290633684014   -1.53039528304663
C         2.57784475616637   -0.01924002819064    0.56504983359174
H         2.31793418540781   -1.07771445813217    0.59895623400125
H         2.27102029909003    0.43313105849723    1.51086810711965
C         4.08589166475078    0.14125120066995    0.39980849576668
H         4.41289715972675   -0.36021137267008   -0.51377550795813
H         4.59602617924328   -0.32578777973218    1.24261442279612
C         4.45217306592128    1.62069595169199    0.33067683365650
H         4.16013723041928    2.10647131149598    1.26647314837939
H         5.53042965842722    1.73566951367183    0.20812721873416
C         3.73734053006698    2.28995345814013   -0.84007842633285
H         3.98876384217551    3.35197396540413   -0.88390659832260
H         4.04989976056532    1.82744209078179   -1.77747105759618
C        -0.25005433621994    3.14119450465596    3.77180936132838
C        -2.21830200691280    1.55451278217633    4.17413802361101
H        -2.15125951545809    0.72879939099245    3.45413715106394
C        -2.12536761821368    0.99933931587616    5.59933475859487
H        -1.17763420574514    0.47168199268252    5.72249934676523
H        -2.15032987623327    1.83164683933502    6.30624802255608
C        -3.30045166265252    0.06345621922445    5.86529569257356
H        -3.23769580141839   -0.31567616499860    6.88600920542218
H        -3.24607970889019   -0.79142540629247    5.18811693248449
C        -4.62406646580999    0.79484765441601    5.66050786616665
H        -5.45454251649863    0.11005003732734    5.83309357296545
H        -4.70661352005184    1.60839713885641    6.38452094512327
C        -4.70957049794871    1.36122171394102    4.24623858820821
H        -4.69419967173840    0.54278275085908    3.52341289168415
H        -5.64713182646470    1.90305191782264    4.11690567793640
C        -3.54046922704711    2.30288923176542    3.97162572443521
H        -3.58142248787583    3.14956272113428    4.66155261328199
H        -3.59684104760102    2.68799109694305    2.95090976564833
C         1.93953861968084    4.25514234280503    5.46644221905013
C         2.40423733134095    3.83086993984925    7.94134664775431
H         3.21919229171837    4.46473109518698    8.31444130427371
C         2.78094118648948    2.35041161256089    8.09465969530577
H         3.66793152630756    2.13377336570263    7.49725469964992
H         3.02037822835895    2.17209448880529    9.14416721321352
C         1.63076690076236    1.44551417516140    7.66282745852026
H         1.91634951300861    0.40509539959551    7.82000836402108
H         1.44383000730188    1.58115916817712    6.59384559631534
C         0.37006433180008    1.76867052690446    8.45877946322700
H        -0.44435919211392    1.11292360440988    8.14955826802985
H         0.55403286174873    1.59167567228016    9.52056124890296
C        -0.02355003423399    3.22788168554732    8.24991494450103
H        -0.23430694653658    3.39746019969492    7.18973839855107
H        -0.92567252295246    3.46073904684201    8.81794106165682
C         1.10725735900713    4.14946558385407    8.69802290026665
H         1.29501711510477    4.01067425926560    9.76353740863240
H         0.83515359493015    5.19526299390523    8.53768522124423

