20
CSD_code = AHAVAH | q = 0 | S = 0 | Stoichiometry = C3H9F6PW | MND = 7
C         0.21949030018481    0.00015038068845    4.48437134161310
H        -0.47977108808622    0.00001799017556    3.64979616236813
H         0.05326558120449    0.88425395143294    5.10021741206882
C         1.97931747573681    1.44243520080495    2.75701114333960
H         2.93670127139286    1.48209908085061    2.24191987937046
H         1.87600437407651    2.35036920245533    3.34991434929758
H         1.17415508684120    1.38317581952914    2.02758736985262
F         4.33270441206541    1.32037975638428    5.01390595896470
F         2.26428163697847    1.52970387803821    6.20071846902499
F         2.94419097902793   -0.00049301313101    7.87380554108717
F         5.11751071497884   -0.00003864673964    6.89003829038424
P         1.95844421797779    0.00010470803230    3.88785934661401
W         3.43866886712501   -0.00009980691148    6.06266792077058
H         0.05331616953491   -0.88379490839976    5.10045980302728
C         1.97931716754424   -1.44247049442060    2.75732749244462
H         2.93670913092987   -1.48226394128161    2.24225323495262
H         1.87598357395859   -2.35026925276215    3.35044126910036
H         1.17415851080814   -1.38335278090678    2.02788542736014
F         4.33326859129779   -1.31984979476069    5.01348117411414
F         2.26438302642252   -1.53005732907810    6.20013841424495

