69
CSD_code = AHAWOV | q = 0 | S = 0 | Stoichiometry = C30H35ClNPPd | MND = 4
Pd        7.30078168323198   -1.89106409718603   24.27328784056503
Cl        7.04718282986179   -3.02269553675692   26.21524693873015
P         7.23057307783800   -0.39780996036198   22.62335544542800
N         8.77654819822545   -0.48283740620553   25.17770837211076
C         8.49441865586775   -0.29229388095237   21.32115457813419
C         8.85821821613954   -1.50632444256073   20.74050713893626
H         8.37834283247339   -2.41477308456452   21.08808032316465
C         9.81863394422962   -1.54322197185798   19.74825282531997
H        10.09546674447657   -2.48468074528802   19.29726343355828
C        10.43297010969741   -0.36864321668880   19.34006742489231
H        11.18762235225195   -0.39456747602920   18.56805805156221
C        10.08566102827280    0.83721168101243   19.92626864484894
H        10.57015544111561    1.74991418304090   19.61098487655181
C         9.11901267402452    0.88076567423632   20.91677509068523
H         8.85142182007112    1.82347230285915   21.37353644106833
C         5.65858200367527   -0.42945119122107   21.70861602874660
C         5.52800737245861   -0.32104578022030   20.33053495470312
H         6.40565120653630   -0.19536183551918   19.71091416692917
C         4.26858049472105   -0.37930673904338   19.75649188324020
H         4.16518075694413   -0.29917201733751   18.68410130940528
C         3.14591680692467   -0.54062578371459   20.55065168269214
H         2.16758633625544   -0.58610314995029   20.09559966788555
C         3.27488332294571   -0.65508514386446   21.92755308742133
H         2.39811587848141   -0.79149853861932   22.54301536915779
C         4.52787540448668   -0.60717212875808   22.50489283701036
H         4.65872373524206   -0.72511008176925   23.58116734725466
C         7.17560875812676    1.29926539860788   23.31466466280687
C         7.81858373418655    1.65657314521841   24.51364864609257
C         7.69589057922159    2.97198330138214   24.97322840777467
H         8.18736277195474    3.24951302950549   25.89526458869123
C         6.95850268419454    3.91427000365007   24.28605897355607
H         6.87161417261793    4.91923597888447   24.67060105420198
C         6.34029657241061    3.56306015374044   23.09714283494671
H         5.77043318645155    4.29231114281686   22.54108374601492
C         6.45507099086345    2.26924007870880   22.62231381178438
H         5.97165135552371    2.00202261494729   21.69293086933483
C         8.66958309961225    0.77461577499750   25.30036034759881
H         9.28474711294507    1.29942767611192   26.04537562434123
C         9.76827877523682   -1.18721374095379   25.93845253762237
H         9.27390214116794   -2.02861660514312   26.43696609475099
H        10.22798900190861   -0.52950619435028   26.69399844162553
C        10.87650409242695   -1.70369226035780   24.99601675012931
H        11.29334750216376   -0.81086490713086   24.50512015408567
C        12.02529446058904   -2.34098200214893   25.77503987605551
H        12.35534143945695   -1.69361512606733   26.58993189066702
C        11.81995462192995   -3.84022385041015   26.10959574556321
C        12.30311899854624   -4.10077391728231   24.66528659496303
H        12.86892848017508   -5.01467362700150   24.47794471111696
C        11.16302930395435   -3.94345982368918   23.66719151021317
H        10.50938512018505   -4.81472177367107   23.72582374873097
H        11.59150140488062   -3.92803700852585   22.66137356082602
C        10.34069596813925   -2.65317133496988   23.89653519171546
H        10.29738200247908   -2.09576399156642   22.95554076634956
H         9.29860382297107   -2.94152972009398   24.14706461654064
C        13.06893950980279   -2.77346163897092   24.73096426455729
H        14.07606656168152   -2.86585213329240   25.12779255862785
H        13.10278079044468   -2.19051980949113   23.81191248959901
C        10.46539733969636   -4.38423448960233   26.53919381835583
H         9.65071626559948   -4.13135426818266   25.87283971554389
H        10.21341040178862   -4.01712782945689   27.53212869663370
H        10.52226058360569   -5.47062655027732   26.59217977755783
C        12.84153010913569   -4.30928354079270   27.14730781262657
H        12.56693973825386   -3.93480564237519   28.13172971260879
H        13.84796715434165   -3.96811915945626   26.92428340040412
H        12.85426790461025   -5.39666866301107   27.18951051046664
C         6.12248970996432   -3.33577256166068   23.41594536396699
H         5.92748993681926   -3.15442828740879   22.35210476290545
H         5.16596736256030   -3.42642101416392   23.94093686102871
H         6.67246155091102   -4.27941645956870   23.53032873720531

