39
CSD_code = AHAZUF | q = 0 | S = 0 | Stoichiometry = C18H15CrNO4 | MND = 9
Cr        6.20208502286567    8.52179641796167    6.72346565083761
C         5.15985098155680    7.68507361327969    8.55658583341728
C         4.17225176176274    8.35675740938370    7.76933236714783
C         3.98041881298945    7.97505236839284    6.43731586698661
C         4.76864637942221    6.97688265295351    5.84444761496173
C         5.69902556752171    6.27417547614811    6.61856646633359
C         5.91425809460079    6.65005137932033    7.94429888027593
C         5.43043493350589    8.12582040111638    9.89522301562782
C         6.70911105832879    8.42035678786326   11.88343887999668
C         7.91755023116600    9.25252821176464   11.51652443474128
C         7.86972589463351   10.12314985109136   10.43407196100568
C         8.98725721064117   10.85178879169750   10.07061001145385
C        10.16298595590932   10.72256961316666   10.78989229675249
C        10.21604502850427    9.86057303411737   11.87140879162297
C         9.10086019881171    9.12315100269347   12.22945142661105
C         3.26648925338673    9.39435324039160    8.37170409364181
C         6.28672350933272   10.31114626325480    7.03360905749748
C         7.97112842912592    8.64934810945524    7.15577504649594
C         6.82117506064468    9.06291823926557    5.09646432124221
O         6.98129384937099    6.56701248662380   10.52780547471306
O         6.40954080518933   11.44773000449423    7.21763154238892
O         9.08732971998284    8.81627019340194    7.39107231070902
O         7.25832304543533    9.46489872047111    4.10601796850598
N         6.32842886816672    7.62871026122126   10.70952194021585
H         3.18708095908228    8.43829236475652    5.86163035371947
H         4.56557338767404    6.67072384296727    4.82481151302139
H         6.23577687455084    5.43177268285014    6.20058151264293
H         6.60496686803083    6.08690545088685    8.55994674190635
H         4.91053793768775    8.99839290735429   10.25631842957794
H         5.87493970585134    9.05270765332218   12.19581926741044
H         6.96687669876201    7.72131554215163   12.68154151808633
H         6.96444377941740   10.22953671594447    9.85361546955290
H         8.93508406139641   11.51115969142581    9.21813821105150
H        11.03735930036715   11.28676781958654   10.50331302137750
H        11.13137919620869    9.75155851215845   12.43391238838569
H         9.15221440350684    8.44017686362042   13.06489409389728
H         2.53141055923203    9.72605215091372    7.64136694264212
H         3.82977197259693   10.26959272810026    8.69565720528651
H         2.73364462278253    8.98993054442840    9.23321807825585

