65
CSD_code = AHAZUE | q = 1 | S = 0 | Stoichiometry = C27H33CuNS3(1+) | MND = 4
Cu        0.03555110687198   -2.17821109990761   10.13396503296411
N        -0.04083496549088   -3.90135247291168   11.48264431977548
S         0.43212439204447   -3.58383481945663    8.34534284299091
S         1.54352819607247   -1.15729551802941   11.56414389917845
S        -2.24402172724860   -1.76160019581567   10.63576494312621
C        -0.22220846662107   -5.09460056647838   10.65211637223663
H        -1.27540399089932   -5.15427072791747   10.37739325119491
H         0.02776478819461   -6.00485259963061   11.21608806501497
C         0.60312058245780   -5.09168663052212    9.36826442407955
H         0.30451513338436   -5.93223903392672    8.74131518111039
H         1.67158164909538   -5.17270033604048    9.56306727136460
C        -1.26544141013918   -3.79189474281316    7.66304548245986
H        -1.97824076596659   -3.70130359146094    8.48140689410236
H        -1.37750837521962   -2.93781502920218    6.99536441593801
C         1.24781285569641   -3.91805366353860   12.17952188658636
H         2.00387265372237   -4.24655100023968   11.46445542179374
H         1.23401782010070   -4.63939323350697   13.00999688998204
C         1.67083173244586   -2.56185642677840   12.74095383227395
H         2.70687253906109   -2.61051618819070   13.07271292296946
H         1.06115243732884   -2.26433014772795   13.59289886278794
C         3.11212338386133   -1.32245760054905   10.60802765082216
H         3.91891373210397   -1.08442646779085   11.30106510710577
H         3.18753955001026   -2.35367574467246   10.26744486056712
C        -1.16416695514219   -3.69988731530472   12.40212386846263
H        -0.87029656226599   -2.94398989349744   13.13032605553226
H        -1.39193098146983   -4.62541093212273   12.95041733484158
C        -2.44462307702963   -3.22277591086419   11.72169503943413
H        -3.17961857943047   -2.95093879728509   12.47961469165032
H        -2.88363882986148   -3.98605316237442   11.08107140548920
C        -2.07247688988123   -0.40815969980588   11.87240114754523
H        -1.09684276089365   -0.49961499468895   12.34885811319242
H        -2.08956907052146    0.49473088596182   11.26196318479408
C        -1.39015536711668   -5.08636603002248    6.92990601699469
C        -2.15989044717015   -6.12285287135996    7.44386391106574
H        -2.70067735598460   -5.98608843877302    8.37069118556508
C        -2.26180210674557   -7.32282699281510    6.76082030863955
H        -2.86916396182777   -8.11867007196744    7.16393809176673
C        -1.58663452593565   -7.49987873663644    5.56547572772078
H        -1.66601651663657   -8.43547149037290    5.03430011273827
C        -0.81058596167968   -6.47299688043928    5.05140398274130
H        -0.28501112333173   -6.60675119354408    4.11864307229653
C        -0.71061465074919   -5.27344721967950    5.73065703001426
H        -0.10425340026050   -4.47185428651750    5.33528152591031
C         3.06166679789717   -0.36365427995907    9.46235956601737
C         2.70683318695675   -0.80087909431250    8.19253221974016
H         2.50071375468902   -1.84779802996510    8.02041176591565
C         2.63736988680122    0.09666233537157    7.14157313809709
H         2.37041365675423   -0.25367905373481    6.15635827109936
C         2.91398302018456    1.43661173576440    7.35263775359936
H         2.86099490413963    2.13526782353960    6.53211642259802
C         3.26288991412840    1.87874418316737    8.61835312494567
H         3.48168012356918    2.92190019580368    8.78635239657134
C         3.33388511138812    0.98391490529145    9.67006735712740
H         3.60374324585185    1.32840902628312   10.65761247486579
C        -3.19254944104365   -0.42777404421086   12.85930771553686
C        -2.95289634664068   -0.73523586818787   14.19316102345828
H        -1.94431316790552   -0.93930464869665   14.52625853143657
C        -3.99544689966581   -0.75590484773492   15.10377464759389
H        -3.79804892611358   -0.98823017220433   16.13907727678923
C        -5.28656218042160   -0.48257847593061   14.68582964678986
H        -6.09853561158809   -0.49960012655652   15.39591171788799
C        -5.53368011239308   -0.18391141413273   13.35519984727026
H        -6.53795932287513    0.03518085407778   13.02737805501658
C        -4.49299601491794   -0.15771210888364   12.44575294163121
H        -4.68117930573242    0.07409297443652   11.40772246918803

