65
CSD_code = AHEBAQ | q = 1 | S = 0 | Stoichiometry = C27H33AgNS3(1+) | MND = 4
Ag        1.69449283154899    2.82533839710903    5.51748223022321
S         1.24517747891108    1.96426755692768    2.99900922624269
S         4.28488475494866    3.43403869782694    5.96869102171636
S         0.01616263231506    4.80706086516616    6.25749446262616
N         2.26741177425169    4.94763541405964    3.88287132514230
C         1.94916475576159    4.56592886822811    2.50436598931745
H         2.80832983003122    4.04748303793878    2.07277203492353
H         1.75411542086113    5.45656014730981    1.88934685263824
C         0.75096197443172    3.63199582738356    2.42876911365447
H         0.41501575478149    3.53441116718679    1.39629692221604
H        -0.07007387087379    3.97432831226290    3.05874062970510
C        -0.40547206261860    1.18705238561644    3.17900636766351
H        -0.94002309493332    1.36474722649488    2.24648422421300
H        -0.18729732349913    0.12419898642700    3.27697604769682
C         3.69275554427571    5.26135943816853    4.01456619760440
H         3.83136936420340    5.92990369229223    4.86728959514563
H         4.06054101125050    5.78314826849306    3.11896148747520
C         4.53529348993755    4.01731896698954    4.25178959901787
H         5.59368726238980    4.25418843865844    4.14170761737608
H         4.26112498726414    3.20655114715095    3.57659687598342
C         5.07256260281567    1.78208348984465    5.86197206937307
H         6.06489226419380    1.93376906661885    5.43856177842847
H         5.16385794285927    1.46623473486514    6.90056155715432
C         1.44866191510223    6.08780962198332    4.30347146275867
H         0.47298899861204    6.02271984450365    3.81655569143453
H         1.91300297679271    7.03535890390147    3.99352757595715
C         1.22225487487533    6.10856745469572    5.80750281125798
H         0.79378207145569    7.06435211092054    6.10960776481543
H         2.14350179583086    5.92027687800512    6.35905559324171
C         0.22558433834020    4.79543304162854    8.07863745875154
H         0.13077339906800    5.82811160159305    8.41259938492691
H        -0.62463340958504    4.21677622427764    8.43798343457290
C        -1.14638669058137    1.70824596803346    4.36434479703835
C        -2.18086132301952    2.62352031662715    4.20976105213338
H        -2.45842732164952    2.95769525074966    3.22013130162759
C        -2.88445482532168    3.08084601922558    5.31079135967915
H        -3.68944361391868    3.78620206252950    5.17641766254762
C        -2.57218282548259    2.61757910273720    6.57655068958962
H        -3.14204577876755    2.95286177092863    7.42939309477045
C        -1.54241663797247    1.70540236994400    6.74253635569080
H        -1.33275905640513    1.30559235915010    7.72410729481681
C        -0.81362642150477    1.26780508899869    5.64688232371371
H        -0.05768615220035    0.49925871022242    5.76937603760545
C         4.25744767368202    0.82145407678292    5.06311333917823
C         4.62065393843204    0.49370802787559    3.76208656979735
H         5.50791102243468    0.93095474118144    3.32646317778282
C         3.87628796042048   -0.41814623662168    3.03357987188865
H         4.17259467772771   -0.66838970333063    2.02696536348216
C         2.76879356835176   -1.02256295084577    3.60160306294244
H         2.20688748250400   -1.75388930449702    3.04148856790943
C         2.39731706543946   -0.70285259437023    4.89768043110073
H         1.56338269000913   -1.21275612438878    5.35779003577305
C         3.12187582712170    0.23196726986086    5.62163951232510
H         2.87312294683448    0.42716332916675    6.65986842548971
C         1.52212546127081    4.18375888900855    8.49148528743504
C         1.68059740260474    2.79680866859766    8.46812228968344
H         0.83550734416604    2.16625349887387    8.21221727077439
C         2.86615701615237    2.22552181825711    8.90534349565738
H         2.95950252781446    1.15043086557457    8.95684046947967
C         3.91498999541572    3.02862217825389    9.32384230497261
H         4.83438031999740    2.58257451382461    9.67043994465890
C         3.77253775051826    4.40489052149206    9.32025407132268
H         4.58416585813490    5.03362879624006    9.65127700543318
C         2.58084598771234    4.97956978711182    8.91270643258832
H         2.46355384447826    6.05327109827459    8.94944669785720

