94
CSD_code = AHEDEW | q = 0 | S = 0 | Stoichiometry = C35H40BN8O7ReS2 | MND = 6
Re        2.79612811725361    6.93341834078695    0.58651462539368
S         3.47074161773776    8.67199896314400    2.30698862483929
O         2.41183431035678    9.25809123995123   -1.41386281398249
N         6.09555712637981    8.17598901904763    1.60593540858773
N         5.74862062764365    9.80699294026315    3.04000037551844
C         2.52069517632396    8.37526294964816   -0.68964048344950
C         5.14816476080723    8.84751760722174    2.29373120660627
O        11.65192494465613   12.89958425755641   -0.74616528265568
N        10.52805725987423   13.20569858075219    1.69825750304096
C         7.29894062764517    8.74058988835957    1.91518443125466
H         8.20779956738123    8.35307399717455    1.50347624536608
N         9.15762912632928   11.03647110879971    2.85630990691229
C        10.32045874971940   13.18363056537161    3.12732419314365
H         9.40149408430990   13.71696666168110    3.42272877433548
H        11.17489263797306   13.64025373851929    3.62762452367642
O         7.94376764722118   10.78100956790102    4.74065202237067
C         8.08564929119285   10.58545884673880    3.54227150345522
C         7.10517419306642    9.76551080897557    2.79227925347398
C        11.78690038083886   14.13222657477111   -0.15608209063051
B         5.95201125525869    6.93332164117064    0.70766768903751
H         4.83182728887308    6.93334350789695    0.17555078328212
H         6.79996502533031    6.93332954286852   -0.12047802383648
C         5.05910652555996   10.71920410859973    3.90874573961747
H         5.75548774925223   11.07686941618551    4.66445188424727
H         4.22950526933342   10.19780849275565    4.38582892984660
H         4.65731497344052   11.56029440015055    3.33879949652812
C        12.03789086550179   16.55524410900456    1.18835851190526
H        12.13240260191030   17.49105195551666    1.71767215805187
C        12.48213111516161   15.18584900523481   -0.72417429976345
H        12.94744319086076   15.07458271033612   -1.69061973023091
C        11.18075269697700   14.29242188142553    1.11029094347259
C         9.41662076465998   12.59480801401446    1.00617181703926
H         9.57716293910321   12.65174779833335   -0.06777793434205
H         8.47267648412850   13.11199672005318    1.25372127891889
C        10.21593062905315   11.72219145076444    3.56998772074445
H        11.16132280122658   11.21444345614518    3.35248105286564
H         9.99836111806717   11.65759658348971    4.63696357316219
C        12.29340018323534   12.66989328665932   -1.97567897197590
H        12.08101013463341   11.63136034867021   -2.22682239091134
H        13.37648892571606   12.80781936448925   -1.89836519649489
H        11.89988926631912   13.31790573849109   -2.76592783703796
C         9.29810732733634   11.12395315427062    1.42187066848332
H         8.43841850147907   10.67495271689193    0.92723174239108
H        10.21022813169636   10.59846522612726    1.12000988436007
C        12.61175066719157   16.39416598175415   -0.05472507879742
H        13.16582339335040   17.19850044062464   -0.51341688773845
C        11.32411187266593   15.51397632535545    1.75833384190869
H        10.86297391546324   15.66199793612739    2.72219932057681
O        -0.10948454254797    6.93418011435912    1.61440184544950
C         0.94355910456085    6.93344204558807    1.17336847676047
N         6.09554988200121    5.69063311308315    1.60590849033901
C         5.14812426872464    5.01908385265704    2.29364082313457
S         3.47071375489876    5.19472102879098    2.30688622331720
C         2.52051963156393    5.49176511532331   -0.68971052501112
O         2.41195158651586    4.60944973919544   -1.41465660322111
N         5.74855342899444    4.05954625872925    3.03986449509371
C         7.10510827644354    4.10099455770293    2.79213826320901
C         7.29891418092167    5.12596021955986    1.91510637269551
H         8.20779275445645    5.51344731365373    1.50341546314753
C         8.08559385756373    3.28104395848679    3.54212554313042
N         9.15754993110435    2.83000666289419    2.85614189344479
C        10.21596359115166    2.14447030002326    3.56983132979553
C        10.32062739917562    0.68299041517723    3.12734136357671
N        10.52813773917113    0.66077631228134    1.69826220107277
C        11.18094435984676   -0.42592831318748    1.11038360301562
C        11.78692966558626   -0.26585452183303   -0.15608522738648
O        11.65167936146806    0.96664787373873   -0.74640298416247
C        12.29293591943159    1.19616736772055   -1.97606570251647
H        12.08023011467044    2.23456926098900   -2.22748547669692
H        13.37607361380434    1.05856171136442   -1.89884556868105
H        11.89950583010166    0.54781744633910   -2.76607870069282
C        12.48228656074185   -1.31946200809674   -0.72405478324015
H        12.94750733506921   -1.20828076599289   -1.69055263047728
C        12.61216293133089   -2.52765167360419   -0.05442645245437
C        12.03844838747098   -2.68861206971209    1.18873849301739
H        12.13314858234561   -3.62431711858231    1.71820007188030
C        11.32457279370527   -1.64735511367964    1.75861107468814
H        10.86356711636065   -1.79528671904035    2.72255300658878
H        13.16631466457208   -3.33197214401900   -0.51304803748536
C         9.41655667238648    1.27143031877292    1.00619665237534
H         9.57700204296456    1.21435722046979   -0.06776091985925
H         8.47270833446618    0.75414728653946    1.25391529266990
C         9.29787795814784    2.74233228481769    1.42169892909237
H         8.43805018468163    3.19113638278744    0.92711698939552
H        10.20987390324520    3.26791703643210    1.11963208539206
H         9.40173954691130    0.14958507706757    3.42285747787755
H        11.17513953735863    0.22652719605496    3.62765339880452
H        11.16129213551239    2.65228542040108    3.35220361753828
H         9.99845366975316    2.20917287790323    4.63681332608753
O         7.94375333568686    3.08554027153422    4.74051861362450
C         5.05906526146364    3.14712248500916    3.90842401091160
H         5.75545700491022    2.78940924244938    4.66411544938543
H         4.22938252160633    3.66836185653800    4.38555321901591
H         4.65741995020579    2.30607985325373    3.33827690377780

