51
CSD_code = AHEHIG | q = 0 | S = 0 | Stoichiometry = C22H20Cl2N5SY | MND = 7
Y         6.86447259732161    4.98388982857474   11.61834532983739
Cl        5.43822261821422    3.61476786274880   13.22062115987883
Cl        8.31817825427870    6.05265519436650    9.82391725190758
S         7.53631521262426    6.93942160539246   13.59290736663761
N         5.50773799562902    8.68318083810659   13.15467986884243
H         5.80756866131926    9.32048304620882   13.87251553369640
N         5.52718161217845    6.86752018144294   11.84927176153299
N         8.92239491254087    4.15277287222541   12.76166695067852
N         5.19871334365169    4.43946752499104    9.80828441860481
N         7.51838677237605    2.75008659542824   10.57543861582964
C         6.14229422492277    7.52194443275617   12.84317881618217
C        10.11300167067862    4.65395169255653   12.42238438459407
H        10.17005450720981    5.14344934388884   11.45587389907152
C         4.41861775019528    8.79808218963460   12.32362503299422
C         4.44178427341704    7.64633102890196   11.50438363468668
C         4.05515176509104    3.81661211420740   10.09982883502323
H         3.95845116318935    3.44277595984982   11.11334850105582
C         3.45651968538456    7.46233283003363   10.54298805889961
H         3.45566235684677    6.59027020750339    9.90759441935668
C         8.81955791886947    3.54032841333295   13.94425658158349
H         7.84246035272958    3.14057820867655   14.19417135149302
C         8.33769118381542    0.30828162003909    9.52135093612578
H         8.65700448670992   -0.63956434572452    9.11321413951972
C         3.43822422351353    9.76436090149488   12.20398500957090
H         3.43299822974535   10.63859847781017   12.83667351286899
C         9.87984804319125    3.41891061590043   14.82618979579440
H         9.73883970503230    2.92251028585127   15.77336334047304
C         7.06736990428269    1.59840230303133   11.07577312383885
H         6.37355216149246    1.68033674103321   11.90545167181693
C        11.10849611103431    3.95347955672200   14.47367635986531
H        11.95336205588884    3.88681567192901   15.14324778608463
C        11.22586280550683    4.57796940232870   13.24265721009549
H        12.16130659385449    5.00904010779158   12.92264061194507
C         7.44848412814458    0.36097142688043   10.58269594160947
H         7.05473955168137   -0.54068754679111   11.02501546866518
C         3.03129596003639    3.65174643588934    9.18076094936962
H         2.12302224400432    3.14678092460286    9.46981349237390
C         8.80689403755837    1.50168484087319    8.99626786913217
H         9.49962039244118    1.51239023176535    8.16946314212143
C         3.19552527866089    4.15283309647048    7.89907171054143
H         2.41443186918554    4.04911488065219    7.16020000414986
C         8.37246527052602    2.69415851044816    9.55198000849592
H         8.71734701133857    3.64838404514364    9.16853781738042
C         5.35525949911973    4.91380286445382    8.57080759931946
H         6.29560355986763    5.41364267400891    8.36530719285221
C         2.47785565572655    8.43227477039817   10.42737196093610
H         1.70136540055331    8.31030138798944    9.68662135937184
C         2.46567828591100    9.56213536579733   11.23989732758263
H         1.68260076028794   10.29460818895386   11.11565937457129
C         4.38465484682230    4.79361186725664    7.58925384173503
H         4.55857309540041    5.20080272617030    6.60566966940977

