83
CSD_code = AHICEB | q = 0 | S = 0 | Stoichiometry = C45H29IrN6O2 | MND = 6
Ir        2.36360054233124    1.05291061114461    4.34982876571604
N         4.39494131301980    0.88099859638100    4.28991941856241
C         5.32862674674040    1.84180775534593    4.50563609579254
C         5.09709869537058    2.90277301756984    5.39851971536867
H         4.15578255978557    2.93920216052179    5.92478546960450
C         6.07546541385700    3.83175824313538    5.63416628813056
H         5.89279521386521    4.63870441667945    6.32835836819444
C         7.32080639211208    3.74063072642485    4.99602887816358
H         8.07348241269774    4.48856502615707    5.19460381482680
C         7.58510840408398    2.70807093114957    4.13767872304495
H         8.53708369983753    2.60652170124519    3.64165872538689
C         6.59939919681566    1.74019185640464    3.87236245011594
N         6.83732285955168    0.77545515224268    2.96622501782444
C         5.93355274278368   -0.14952460225028    2.78092698717513
C         4.72950060477113   -0.18379200393079    3.55505277007957
C         3.78868584449298   -1.28726331369134    3.63801451811302
C         4.09685790579277   -2.61406876062086    3.33212632012419
H         5.07788035373108   -2.87709130119654    2.96687778615733
C         3.14408894702097   -3.59385368322963    3.51735351620769
H         3.37766736899635   -4.62190619368158    3.28355627233883
C         1.88929569886453   -3.26061368663366    4.00810184208653
H         1.14621219682105   -4.03255039019424    4.14857291928815
C         1.58629981956494   -1.94840324849246    4.33252152462451
H         0.60790337709051   -1.71702824963535    4.73077743124283
C         2.52874332858611   -0.94019253957485    4.17269865639461
C         6.13824673271759   -1.05918398072146    1.64679703754745
C         7.38199189313955   -1.63661251711280    1.41449733741259
H         8.18750422530627   -1.44658901360707    2.10741873796813
C         7.57037053453119   -2.45243103865008    0.31405640407169
H         8.53376063795252   -2.90957611482837    0.14220770183456
C         6.52862387432562   -2.67690777769125   -0.57091026220016
H         6.67892827365242   -3.31179674903608   -1.43168883316143
C         5.29747997406258   -2.07620320034834   -0.35932201593688
H         4.49186988991554   -2.23381722730719   -1.06068414379865
C         5.09684632082508   -1.27034880416575    0.74455886321240
H         4.14781657337576   -0.78086663031418    0.90264569917735
N         0.34533830188049    1.17102265851099    4.32947251088116
C        -0.45963249312648    1.03214867952690    3.24243262601981
C         0.00677334185929    0.47951466264725    2.03659005391092
H         1.04286089843285    0.19443167384309    1.95717353557288
C        -0.85243299975003    0.29993765730978    0.98514387907527
H        -0.48541032724222   -0.13011052376288    0.06581970550056
C        -2.20442488880307    0.65924662790730    1.08571128743132
H        -2.85936020625360    0.50801492372410    0.24083839076666
C        -2.69117854219427    1.19639764989106    2.24600294124158
H        -3.72521144025932    1.48151207767335    2.35743826384474
C        -1.83365059570057    1.39533664961966    3.34311758956810
N        -2.30977395572694    1.98154296402315    4.45505372355537
C        -1.52849970723223    2.09390134411548    5.49784111575296
C        -0.19730451084119    1.57217413788845    5.49214145375307
C         0.66278065648167    1.36748750791636    6.64518493875731
C         0.23818019670260    1.39931298356395    7.97621357571158
H        -0.78910623764343    1.62085426586121    8.21831976277628
C         1.13206090552804    1.12031110449496    8.98802928472635
H         0.80331947822447    1.14543270702463   10.01621768622362
C         2.44717512003553    0.79463785155176    8.68487451990227
H         3.14385119557444    0.57741690968610    9.48169878858337
C         2.86405581993335    0.72321291671819    7.36697515948845
H         3.88405580498063    0.43618622674682    7.15307102882037
C         1.98907373168808    0.99319708738092    6.31877724308722
C        -2.09438846605174    2.86701923774251    6.61634998635522
C        -3.39319123686877    2.60631484328125    7.04189109555102
H        -3.94324962234426    1.80245431774374    6.57775890356027
C        -3.96038658397732    3.36232482386960    8.05116882862594
H        -4.96430259177903    3.14578321779129    8.38464683583597
C        -3.24636353402550    4.39886890136755    8.62881770192763
H        -3.69047413012100    4.99065401790939    9.41516308678156
C        -1.96313899573072    4.68198393809895    8.18914719855859
H        -1.40988677037956    5.49981376175923    8.62659619134930
C        -1.38789570167080    3.92220079705308    7.18862063290619
H        -0.39147304909338    4.15040346935105    6.84075677840353
N         2.30260164088437    3.24593153702373    4.11004016520068
C         1.95712868146589    4.17635708924030    4.99837115667412
H         1.75658029117470    3.83965540196052    6.00708967381359
C         1.86846121488043    5.50991411545006    4.63855480321081
H         1.56995208986217    6.26845930584958    5.34854691283130
N         2.14642083113966    5.92591206336897    3.41012631942237
C         2.50742214211042    5.00424580633238    2.53823437047693
H         2.74933029856112    5.31971173375479    1.53344372235918
C         2.57681446005033    3.65164373500872    2.87115256534861
C         2.95738492167402    2.59167138200107    1.81532866288529
O         2.81367855498771    1.39938656245382    2.18981315518029
O         3.34829544031714    2.99520003021703    0.73381338708964

