87
CSD_code = AHIDAX | q = 0 | S = 0 | Stoichiometry = C42H38N2O2P2Ru | MND = 6
C         5.80091773666045    9.32712629930140    1.49291475260012
C         6.51154615121029   10.55374111283285    1.35190163331489
C         7.82087176598222   10.59947487017543    0.88178899551308
H         8.32494399967949   11.55560904497990    0.81447125784119
C         8.45902515065429    9.43899327015238    0.50172392787538
H         9.47238309645385    9.46624352650922    0.13025605193174
C         7.77954522345103    8.22542662752978    0.60327382124228
H         8.27815004880139    7.31380828566165    0.30253616644740
C         6.49475825375019    8.16051588730569    1.08080285571013
H         5.98054566068131    7.21426869677706    1.16758874492636
C         5.40628924087391   13.02301098982670    0.32836136395827
C         4.93221401025870   14.32686004570184    0.45043556170535
H         4.76045996293727   14.73754210560051    1.43690862671343
C         4.68158803716126   15.08683127830494   -0.67524057435995
H         4.31567126495368   16.09808854507588   -0.57221151020291
C         4.88910176234164   14.54669440059241   -1.93498945996086
H         4.68963568235555   15.13898512735501   -2.81618983763224
C         5.35081990924874   13.24712692275020   -2.06387885981050
H         5.51356349339913   12.82721265543786   -3.04675618658732
C         5.60662373365123   12.48467638690013   -0.93788589847421
H         5.97053951818659   11.46987048539954   -1.03030167021510
C         6.71786190230952   12.97597484508654    2.85228291944431
C         7.58998980783712   13.92178270432080    2.32435701504001
H         7.56788639541499   14.14688184058286    1.26710829284867
C         8.47926442677526   14.57891965386962    3.15623127020403
H         9.15571029133904   15.31392865368898    2.74391736799093
C         8.50662874765823   14.29815198556321    4.51246120179879
H         9.20187807311924   14.81664722070298    5.15657448100413
C         7.64268557139619   13.35231825848287    5.04166139873742
H         7.66212062620100   13.13314687148632    6.09979375239970
C         6.75367643580061   12.69320971203622    4.21444729665489
H         6.06616418178203   11.95766637074498    4.61114201506843
C         0.73244621400085   10.58790871329155    3.18099463420980
C         0.69567328049824   11.99713906894423    3.38294535480137
C        -0.46982284954568   12.66335770748117    3.75102636801476
H        -0.44701584842429   13.73944322304956    3.87243742600683
C        -1.63187696932127   11.95339594697061    3.95980487763972
H        -2.54036921755689   12.46004682796307    4.24893794480979
C        -1.62169237953582   10.56892054419991    3.79184908297136
H        -2.53317029373265   10.01041960178543    3.95751037033765
C        -0.48450387204156    9.89882644197438    3.41620900976408
H        -0.48897485149461    8.82718023858627    3.27959601171875
C         1.85548700173240   14.29962967274137    2.16240156184687
C         1.68007743881131   14.13522349388136    0.79127707284923
H         1.84522764335624   13.15642207684937    0.35729543930807
C         1.30985176459160   15.20651618435254    0.00207653562652
H         1.17761948256899   15.07476007395149   -1.06213079573890
C         1.11270236254621   16.45219225023837    0.57759160577268
H         0.82540083874424   17.29272005963882   -0.03733637756004
C         1.28183167675718   16.61962924507510    1.94197765796911
H         1.12319576545010   17.59005546631326    2.39035651293518
C         1.65006239660838   15.54841881785546    2.73716350799774
H         1.77967139957187   15.68174513388988    3.80218143152324
C         2.79567941029816   13.46967274533527    4.73035188522251
C         3.91982880406231   14.29105626650784    4.77935750546350
H         4.39320480699023   14.59346616487864    3.85411248402098
C         4.42832768804040   14.70749459849802    5.99400250598547
H         5.30088965360013   15.34401546088107    6.02379464984382
C         3.82427312335557   14.29787810574269    7.17321648433139
H         4.22261665699077   14.62027380750284    8.12460161641310
C         2.71305257068935   13.47130254481877    7.13174769696815
H         2.24535610704107   13.15001607058344    8.05190646500098
C         2.20096632332632   13.05253642163500    5.91576663943671
H         1.33717757715013   12.40223657366606    5.87646613992131
C         4.03617705522087   10.20271552594466    5.29461492835877
C         4.17914841642269    9.73227616570011    6.64798094228817
H         4.47972923513691    8.68086137219796    6.62573876243695
H         3.20447130619385    9.80069950286860    7.14062665329000
C         5.21656851930817   10.56925249263573    7.40323337841793
H         5.29411563070136   10.22044523904518    8.43003835799722
H         4.92565883584417   11.61790097441944    7.40797581650721
H         6.19249710447299   10.48110586193126    6.93117242776941
C         2.90677828414314   10.52115632911469   -0.41768319375191
C         2.75922018677107    9.92319899391788   -1.71776535383687
H         2.92343649677571   10.68854770415325   -2.48335021084242
H         1.73819632361330    9.54321755634998   -1.81820375711848
C         3.76821829198322    8.77984925453134   -1.87029141838846
H         3.63630561180883    8.29341048507473   -2.83373251352308
H         3.62556841049703    8.04706029678674   -1.08009536801817
H         4.78639888769542    9.15611149966442   -1.80129401459654
Ru        3.57702685896916   11.05378050294524    2.44731916218089
N         3.98547065104313   10.69280029566862    4.25222675144790
N         3.09035269575272   11.00638739230785    0.61134220604997
O         4.60995199099495    9.24486571783313    1.95958086639663
O         1.78143819310508    9.95143944413904    2.80844148892744
P         5.56539844941601   12.00555668978794    1.83106571325856
P         2.27511869663218   12.80852647301156    3.11428229553401

