79
CSD_code = AHIDEB | q = 1 | S = 0 | Stoichiometry = C41H31N2O2P2Ru(1+) | MND = 6
Ru        1.64080099521604    6.35642568376531   10.31460518067050
P         0.86985762573627    5.46695517238599    8.20508660664363
P         0.57913625833336    8.37856064359583   10.64596250945304
O         2.87931161311175    4.39015756199976   10.15255926751723
O         2.63867571045741    6.88849176879550   12.03965115155850
N         3.10313437905488    7.17761306627325    9.37047415962803
N         0.36708959392547    5.54712024784896   11.16000458113722
C         2.75450604989519    3.56159295934254    9.07133321580969
C         3.48240024157610    2.38518257481611    8.91785602012952
H         4.20336488253882    2.08257732399449    9.65936716051962
C         3.27841482167668    1.58259328305912    7.80853725332180
H         3.84961937418356    0.67301714163443    7.70860070933773
C         2.35156987165939    1.92855713697678    6.83833647730136
H         2.19517447429594    1.29265286369368    5.98190810784178
C         1.62790114096566    3.09630849384967    6.97852868741459
H         0.89730739180798    3.38795088743610    6.23591829427440
C         1.82793043906687    3.92284441769802    8.08178741109279
C        -0.82240872985177    4.87981402984548    7.92416138486011
C        -1.64189443630044    5.36068451766676    6.90870260612383
H        -1.26949351783493    6.09323314034447    6.20770754825174
C        -2.93395451320225    4.87827262876276    6.78903234472492
H        -3.56848522303095    5.24651286919420    5.99714980830967
C        -3.41182079603751    3.92848338163125    7.67728976511047
H        -4.42288778263164    3.56365707992640    7.58285004595001
C        -2.59053463392197    3.43739684602416    8.68107309248180
H        -2.95684803911160    2.69033337403835    9.36770055968446
C        -1.29806522462238    3.90803732527849    8.80417133625628
H        -0.64563231264480    3.51730022454332    9.57467350072364
C         1.40401512604548    6.45457030326959    6.78023376026055
C         0.82284270615347    7.66796844451182    6.59413462708953
H        -0.10813022145592    7.90625417981836    7.09182951696436
C         1.39942106075489    8.66001447065021    5.73735630984712
H         0.80507871451420    9.52647560948761    5.49279046438324
C         2.64897877011911    8.52794816796364    5.25982359777143
H         3.07631655223021    9.26438741513354    4.59711157381054
C         3.47502760146009    7.36111126211900    5.59038169578138
H         4.25903610580841    7.12469190733325    4.87923183543561
C         2.75614451695581    6.19180516334125    6.24982018844221
H         3.01947731653858    5.17457810999546    5.98610003766123
C         3.85719009078026    4.10372452076805   11.14305556325256
H         3.80010451823194    4.92313927276631   11.86345514771745
H         4.85846569699876    4.07251807238623   10.70389895720480
H         3.63208546463940    3.15891356186991   11.64657746263166
C         2.40616850649972    8.03237138503291   12.60833860210900
C         3.11803323372279    8.41783779810018   13.76270423827723
H         3.84487040871585    7.73223537858454   14.17024814395287
C         2.88622067927239    9.64106775243513   14.34788139144977
H         3.44356505801341    9.91404100253596   15.23113254230708
C         1.95868942472918   10.53772402056207   13.82131336171825
H         1.80455588448552   11.49560686534704   14.29153705194882
C         1.24279655723878   10.19359853136516   12.69443788442016
H         0.52423714761637   10.87443559546927   12.25775172093451
C         1.45371687314983    8.94805183110815   12.10480423777956
C        -1.17386091429725    8.12686995168858   11.01216235985598
C        -1.95036768910860    7.49367482267305   10.04090465917371
H        -1.49971803322562    7.23098610165072    9.08947152374990
C        -3.26886303842839    7.18230854876075   10.30535634364705
H        -3.86420257076885    6.68305653242951    9.55586602422781
C        -3.81643364556298    7.49722904425879   11.54073467825148
H        -4.84321813378849    7.24345335163455   11.75262676961923
C        -3.04629053849179    8.12229595326064   12.50737869681788
H        -3.47352351579750    8.35598715734404   13.47020814627157
C        -1.72166856518313    8.43517722825911   12.25218313744879
H        -1.11186860339962    8.90532247697866   13.01066638500104
C         0.70149865585027    9.68035495708354    9.39773392070136
C         1.97187592193922   10.19048562680626    9.13163973134029
H         2.82573930075611    9.79940301778674    9.66998206990008
C         2.12793241940244   11.19705453675292    8.19894300742080
H         3.11036884180805   11.59371991305938    7.99361200363880
C         1.02019330626261   11.70375202276275    7.53554440950448
H         1.14250648236940   12.49406389336704    6.81074242398403
C        -0.24444700466075   11.20731740671422    7.80957815375013
H        -1.10668747557034   11.61417790133015    7.30292859495802
C        -0.41073278554424   10.19402245590446    8.73738837450342
H        -1.39812051238325    9.81512338189016    8.96014106350070
C         3.46985863656740    7.28672533771332    8.24138838521903
C         3.78550460687598    7.02544123881403    6.99650484088885
C        -0.58507988632079    5.06123396703347   11.74689645851436
C        -1.61447270679907    4.57166590752212   12.34363913875306

