65
CSD_code = AHIGIH | q = 0 | S = 0 | Stoichiometry = C29H29N3NiO3 | MND = 4
Ni        4.23003113923688    1.61284715136142   23.01552323589161
O         7.34528281322460   -0.52957007067474   23.30701977509698
O         2.65627176159627    2.30910931162162   23.70007346272440
N         5.35922263793772    2.21796911240375   24.54852082799303
O         0.49627637075670    2.56503511049119   23.26078460332995
N         5.78877113615845    0.88842081456046   22.37122110586041
N         3.29923494897906    1.34127930841957   21.44385603382108
C         6.03100637388279    3.47233758516386   24.17273256298552
H         6.49317824754123    3.92013575615101   25.06416850820597
H         6.82379182382460    3.23563589722706   23.45600147493413
C         5.06536309136341    4.45727360533177   23.52453918231613
H         5.59857080647770    5.34954141813989   23.20546500871060
H         4.27560913708493    4.74441393870018   24.21332346401657
H         4.60744599748898    3.98709216352640   22.64230867805117
C         4.65830154914684    2.31212572226353   25.83656065372650
H         3.72858174826510    2.86875230369421   25.73221008753470
H         5.30730013631547    2.79800885761804   26.57858127358139
C         4.43275635981926    0.85187019693914   26.19141300685995
H         3.63913846297924    0.45512440296813   25.55408224793976
H         4.15663939243717    0.70493129139407   27.23298790272672
C         5.77540303021000    0.21211246810871   25.83571292246060
H         5.67014634678247   -0.81543996103605   25.49515927782090
H         6.44809745816082    0.21776588379982   26.69367188375571
C         6.33083224618475    1.11562231078856   24.71873542173275
H         7.31134336268399    1.51252271864945   25.02068865897881
C         6.54946470302025    0.38809339084030   23.38509858279648
C         6.13928691889412    0.73224686158569   21.05556997424256
C         7.47625670565513    0.49335988588633   20.68658443389037
H         8.21018082360400    0.35797342235935   21.46360328769822
C         7.86543402352230    0.42968515677858   19.37199831625223
H         8.90288265560958    0.24969830459438   19.13258862534268
C         6.93577088033573    0.60897215762282   18.35124328624214
H         7.24338096932813    0.57098137209888   17.31777685156827
C         5.62282501018401    0.83983340938931   18.67590407304675
H         4.90191213430396    0.99180771839215   17.88673610347972
C         5.18749489786824    0.90040698674365   20.01100272420457
C         3.77809087417852    1.09708660675504   20.26723015923441
C         2.86396744697587    0.95969189274231   19.09947988693175
C         2.57617232908956   -0.30097243081590   18.58820467254845
H         3.03414158688888   -1.17470376146480   19.02941186477480
C         1.71541444919886   -0.43348114228978   17.51298924628283
H         1.49406023765077   -1.41562789484014   17.12300533362605
C         1.14334946319942    0.68873217514007   16.93793565302963
H         0.47188944035909    0.58344288698707   16.09931184758713
C         1.43803946590033    1.94699730590369   17.43603340447699
H         1.00002251766442    2.82477826232260   16.98537561497671
C         2.29359111563187    2.08529991690934   18.51456137544817
H         2.52983418131035    3.06620394517283   18.90153076640811
C         1.86135418402748    1.37927006490560   21.66711882803046
H         1.32736064767580    1.84246496517371   20.82979704034148
C         1.31152856226521   -0.04812632603437   21.87713537229343
H         0.24784564193390    0.04804706709814   22.10099186425066
H         1.42681591298714   -0.61394110151040   20.94842094072975
C         2.01626522521469   -0.75431004530030   23.00215368869357
C         3.28522999728619   -1.30462912213970   22.81709415611185
H         3.76129982981193   -1.26489829922782   21.84580333117329
C         3.90358165974600   -2.00847163553190   23.83970088155841
H         4.87670102248501   -2.44681795012343   23.67056028766968
C         3.26786464578061   -2.16157984680657   25.06026428027814
H         3.74113416578294   -2.72173235956458   25.85348629153484
C         2.01954146348929   -1.59466537502305   25.26055394408179
H         1.52277603922579   -1.70585469772646   26.21320533632892
C         1.40112049830728   -0.89201121223973   24.24127944248846
H         0.42880334370131   -0.44999241485409   24.40205489251017
C         1.60801795136301    2.16992456246576   22.98306207678271

