71
CSD_code = AHIGAZ | q = 0 | S = 0 | Stoichiometry = C33H30N4NiO3 | MND = 4
Ni        7.96857591376512    5.42377828250024    3.64878213720320
N         9.30603060313322    5.84579298664716    5.55277014376814
C         8.98781511667512    6.12093715079466    6.80761876828446
H         8.05329454895830    5.70829559440822    7.16358033247629
C         9.78738754923061    6.89238043088885    7.63708098210860
H         9.48626192900199    7.09575130810237    8.65226194222743
C        10.97585760344734    7.39010986694706    7.12977637833648
H        11.62853533124384    7.99427325388015    7.74237951684147
C        11.31266577899972    7.10272575791438    5.81644043057186
H        12.23193908000952    7.47430369923926    5.38899148831970
C        10.44662077926314    6.32759975650325    5.05732694069421
C        10.72811044210956    5.96287266638958    3.62311902278076
H        11.60362121684882    6.50930538177700    3.25006027445168
H        10.92832185848294    4.88672054950361    3.59223088656290
N         9.54782814393376    6.21098148383917    2.77774760782267
C         9.76251181598224    5.68431009562377    1.41334238558728
H         8.79460032161740    5.42019402768285    0.98266599756283
H        10.37997143615592    4.78855300604051    1.44431443458073
C        10.36937649614630    6.83854153973192    0.62274668208728
H        11.43111891031018    6.95544821460229    0.84778134412529
H        10.25936321891582    6.69921427887545   -0.45025421981280
C         9.56588893991748    8.02317583345348    1.14704168291627
H         8.61718851241036    8.10982227724849    0.61685888191826
H        10.08948093969502    8.97269757342778    1.05696072310000
C         9.29605705813740    7.66103579637819    2.61598099563873
H         9.96955325210838    8.22291078253504    3.27677206727268
C         7.88229898999644    8.05184038322271    3.07812273106407
O         7.38564276609145    9.09809868581039    2.70021973697213
N         7.33376754068228    7.15056828550517    3.93135989212563
C         6.40944982523924    7.51282916452077    4.87449740640337
C         6.27764085172465    8.85308646913584    5.28422089832571
H         6.85653043691939    9.60664642137992    4.77665673821851
C         5.44330005101457    9.22314542180849    6.30970107475428
H         5.38168991782044   10.26270519817063    6.59604747462651
C         4.69000367832930    8.26845622183020    6.98560449674504
H         4.04082387489605    8.55574216136573    7.79828594832428
C         4.78518340814829    6.95288500403153    6.60404479068400
H         4.20795393730318    6.20765098315956    7.13114180568366
C         5.62391140281919    6.54112856776717    5.55611659679205
C         5.62293859549319    5.13985921722905    5.18719355482216
C         4.53124955277993    4.30193264823172    5.75788331199728
C         4.79807671811719    3.41275890342901    6.79396379415734
H         5.80099877064761    3.34108184749920    7.19004964125585
C         3.78301283492866    2.63021140606408    7.31460241445144
H         3.99655542274025    1.94316552357750    8.11964971167290
C         2.49923977707845    2.72517661730697    6.80339277725016
H         1.70977807665680    2.11016255358064    7.20831604626426
C         2.22900226113183    3.61198658913855    5.77496181633848
H         1.22843873172166    3.69199158764490    5.37698591591974
C         3.23938737113367    4.40131674778537    5.25444349732234
H         3.02791988283407    5.10305748943415    4.46036618633470
N         6.48279994977090    4.62452438066419    4.37608962023327
C         6.34697138131232    3.25557220746053    3.91319191312657
H         5.91969886312291    2.59856136311481    4.67965225302248
C         5.44090958736717    3.20398113850497    2.66201415319042
H         5.42178397030077    2.16713712949835    2.32212158037644
H         4.42775042292041    3.50074547271244    2.94933775647245
C         5.94862798064461    4.10048044295957    1.56681732234341
C         5.72506848561170    5.47760505156368    1.61190615275047
H         5.13923335982842    5.90789357481316    2.41398743266640
C         6.15937646558074    6.29754954612995    0.58086103999988
H         5.96859701565112    7.35994418186941    0.62858983527501
C         6.82128446762792    5.75237263928160   -0.50689192019245
H         7.14850966433410    6.38756217936640   -1.31770380571490
C         7.05765999420755    4.38701931372734   -0.55408200114914
H         7.57508564121584    3.95760122690731   -1.39978253382218
C         6.63281572270485    3.56941814830712    0.47895396185150
H         6.82686141261906    2.50758214174297    0.44185411678460
C         7.76026947737525    2.75553366151973    3.48714296478683
O         8.59505492783989    3.69717835983629    3.29629502338134
O         7.96776973720121    1.56912214649306    3.33633904869296

