71
CSD_code = AHIGED | q = 0 | S = 0 | Stoichiometry = C33H30N4NiO3 | MND = 4
Ni        7.74693816020970    1.61464819787105    1.31605286197205
O         7.68323298751339    5.39130682467810    0.80485213014698
O         7.58767240035671    0.02560437617984    2.29831579564303
O         8.58885652374391   -1.92855177714754    2.62749223572843
N         4.74271139960441    2.81947443922914   -1.98169431602889
N         6.19127356088729    2.40957921297328    2.21752083784446
N         7.83710651152505    3.15065132224561    0.29431384236805
N         9.11128744190447    0.77924366243874    0.40294464433906
C         5.85885209694511    0.77993253435619   -0.47432482473812
C         6.07538349329575    0.85127848975127   -1.84198736384803
C         5.51631251356685    1.91051014165276   -2.54411001451547
C         4.53509260961344    2.75001217834554   -0.67858519023833
C         5.08853570068207    1.77283989772078    0.14106566214741
C         4.96958418851915    1.79812920235062    1.64202264611997
C         6.22556526190309    2.26165275834767    3.69230492699756
C         5.69907534227139    3.57737438695936    4.25386642401662
C         6.32476572144930    4.58413779474126    3.29697936089194
C         6.23076164167267    3.86817938098318    1.94541331286228
C         7.34503481560338    4.23311014235323    0.95667775464224
C         8.34738748856075    3.24775693966100   -0.97156996681352
C         7.99986739024492    4.32483929416376   -1.80816828897519
C         8.40909335228224    4.38722183155233   -3.11586550343947
C         9.19413636593187    3.37369093947411   -3.66007319864717
C         9.55824165791121    2.31340953089137   -2.86969509551614
C         9.15540804309298    2.21694566617727   -1.52674556351457
C         9.59702745153536    1.07678727989436   -0.75684113592899
C        10.68650875190692    0.25116629794207   -1.34777123786114
C        10.40396217976834   -0.97253401726374   -1.94555819222853
C        11.42671376493608   -1.73401254894012   -2.48224343431301
C        12.73508109002728   -1.28356796784576   -2.42160984660968
C        13.01939555229462   -0.06417847269617   -1.83063084418619
C        11.99956352208120    0.70426167210729   -1.29752344679724
C         9.65564279440113   -0.31467847906171    1.18826298439281
C        10.79640024833707    0.19352209751309    2.09780541223907
C        10.31822078255523    1.29531386677659    3.00157366365838
C        10.19191113404067    2.60167078287598    2.52308538588456
C         9.79440417945687    3.62585206400885    3.37173035718822
C         9.50048470932597    3.35416560095257    4.69790072047766
C         9.59709185439505    2.05529389125765    5.17195427820750
C         9.99908040079515    1.03334886721747    4.32956981727004
C         8.52051455888752   -0.82755483102791    2.12490982210344
H         4.07988426536583    2.35878821919759    1.95717168804660
H         6.21618396610176   -0.07046129725246    0.10204137088547
H         4.90460074949445    0.77217652158895    2.01457517191221
H         6.65914176630210    0.10221289885012   -2.35403420673514
H         5.65422239009750    1.38768685328961    4.00047452309690
H         5.67851831635378    2.02760778379064   -3.60703178983354
H         7.26280044249005    2.11834535679396    4.00661394205807
H         3.88098014259484    3.51588330694659   -0.27837366992284
H         6.00250596327389    3.73060072739796    5.28693709083193
H         4.60933634116632    3.61809041940448    4.20199650058275
H         7.36835843935474    4.75699286884400    3.55496170743842
H         5.81302890785862    5.54369255881929    3.27522072252757
H         5.30232698308952    4.17385028176740    1.44618433080187
H         7.38571872767228    5.11339321258705   -1.40660608840779
H         8.10879034442141    5.22515756081225   -3.72670553730021
H         9.50921276152630    3.41881045273671   -4.69105643375728
H        10.15801161308158    1.51968803235881   -3.28982360226060
H         9.38210104134085   -1.32090549201008   -1.99192839328130
H        11.20062973504482   -2.68204324370135   -2.94660533874283
H        13.53177954641506   -1.88157634916589   -2.83739270677442
H        14.03741304114338    0.29260546790117   -1.78586294701014
H        12.21701026132814    1.66191976355619   -0.84686503841300
H        10.04051025726528   -1.12530180056696    0.55921951188904
H        11.14472505741706   -0.65613839131343    2.68712979077009
H        11.61723875148912    0.54914090465475    1.46824987351617
H        10.50465865945861    2.84496807519015    1.51462857512987
H         9.73623343056296    4.63608250025667    2.99211409033668
H         9.20420650322375    4.15208123259649    5.36390544053366
H         9.36466786730261    1.83859456388066    6.20446740232211
H        10.07292408372248    0.02272353912694    4.70337660682477

