65
CSD_code = AHIGOO | q = 0 | S = 0 | Stoichiometry = C25H35NiP3S | MND = 5
C        -1.43834068853926   10.23598012151879    3.15391754316457
C        -1.56425978192677   11.61942805954814    3.30484074367040
H        -0.83930873914434   12.14588060285124    3.90835069299437
C        -2.59250700395059   12.29535703660805    2.68431341074842
H        -2.67367984824170   13.36668154002412    2.80281312211136
C        -3.51950891629909   11.61528929629654    1.90344367486528
H        -4.31803723503728   12.15401645880320    1.41505439249886
C        -3.41700342268692   10.24433824150033    1.75676429361443
H        -4.13504856396352    9.70355745601131    1.15526529935885
C        -2.38945326893060    9.55187781267490    2.38168711252724
C        -3.50472482331721    7.15030698852352    3.40090748972476
C        -4.11104869009277    7.96624047581183    4.34851252033279
H        -3.85915901525001    9.01671254986900    4.39386872868214
C        -5.03368928069245    7.43393353410301    5.23249984304992
H        -5.50476190352769    8.07347038218685    5.96518091873913
C        -5.35182504735234    6.08730718561970    5.18253400513804
H        -6.07193511035623    5.67523909450544    5.87447986414287
C        -4.74104147711008    5.26589475400391    4.24646744749354
H        -4.98506056606047    4.21354674108679    4.20984838958999
C        -3.81716618893127    5.79237612135704    3.36526368485574
H        -3.32827579856433    5.15944316480095    2.63606782097836
C        -2.87599423902220    7.39638755327397    0.64575485718241
C        -4.21360817251242    7.11236897288043    0.39792836899182
H        -4.91501421946646    7.04791733123071    1.21817232022396
C        -4.64623267505600    6.91028540878910   -0.90104049220018
H        -5.68723741698095    6.68984598767855   -1.09037927720455
C        -3.75442693277396    6.99313898287376   -1.95761718173272
H        -4.09946179683451    6.83450989856816   -2.96897683947743
C        -2.41960561427610    7.27710827191789   -1.71619311747447
H        -1.72229555522165    7.34003905212239   -2.53964932852421
C        -1.98531774858749    7.47495703598181   -0.41993602226866
H        -0.94380000784635    7.68787205790955   -0.20704196754706
C         0.48600284401409    4.65924816287215    5.29708631053055
H        -0.38077072028405    4.09998443270907    4.95156918784608
H         0.62456286455581    4.49097664465307    6.36398590669370
H         1.36326059135774    4.30944203233825    4.75711576732311
C        -1.13930483998754    6.78771806451695    6.13617890715987
H        -0.87236145837604    6.44935824049197    7.13692109192008
H        -2.03829413037580    6.27339823912619    5.79974444701731
H        -1.33395245870582    7.85841913203256    6.14828593249976
C         1.64194837024203    7.15101945484506    5.89949323829034
H         2.57272310511875    6.86454385927337    5.41325041036236
H         1.63609134578298    6.78598971462030    6.92597448006015
H         1.56020051564802    8.23604659570966    5.89177301130784
C         1.24937940489167    9.74715183376997    0.79073234761001
H         2.14015387298060   10.06655277186334    0.25068717031151
H         0.99612454461108   10.48549030550548    1.54893027955215
H         0.41215100788073    9.66365869517624    0.09950149040863
C         3.06199655851662    8.55730613289746    2.56843695740683
H         2.77633843929075    9.20799240177321    3.39263162046395
H         3.78985567501187    9.06004031452539    1.93248418024270
H         3.49539300771057    7.64435149739212    2.97316505359409
C         2.32557231157419    7.21401597472695    0.21456943776254
H         3.13780975884037    7.79370805584063   -0.22160162725030
H         1.57691049291594    7.00916761487688   -0.54803639319877
H         2.71216674219378    6.26490138567078    0.57944038146069
C        -0.08420542377163    5.49781938437534    2.04693998820061
H        -0.82619090234551    4.84188787348335    2.50863783007083
H         0.90595463302633    5.05551673642047    2.18458314247649
H        -0.29605948868531    5.56697574830901    0.97716459040237
S        -0.13342643684006    9.39805844122382    3.92151195042904
P        -2.18903502412979    7.74895832190735    2.29473038278193
P         0.22928387460776    6.44803806883840    4.96474375029167
P         1.55660553412097    8.13352753419114    1.61138611129142
Ni       -0.11095486286494    7.27132816310189    2.89638034646266

