118
CSD_code = AHIHII | q = 0 | S = 0 | Stoichiometry = C62H50N4ORu | MND = 6
Ru       -0.15457623551218    4.83713013260673    1.73829607307000
O        -0.92326708162026    6.97255137612515    0.96597834740903
H        -0.70193601359977    6.99195457160287    0.02338294541519
N        -1.97120443032596    4.11005879041218    1.15703919407501
N        -0.91089812154538    5.26792040239179    3.56489473376411
N         1.55866097147881    5.82481797492870    2.22318998247389
N         0.51540687895934    4.62165422032372   -0.17038573308762
C        -2.26513570949076    3.52944270748512   -0.04140375461541
C        -3.56564905951099    2.93060508937707    0.02095888876162
H        -4.03239685930825    2.38190325674566   -0.77392930505561
C        -4.05108542330610    3.17017399262074    1.26442858740510
H        -4.99034911237416    2.85700380315615    1.67647200347409
C        -3.04882038556888    3.91620311144243    1.96685950150673
C        -3.17298637461121    4.34945168361850    3.28928352443565
C        -2.17066617161519    5.00198749218096    4.00286684502206
C        -2.34095790801915    5.51870050594054    5.33584000923489
H        -3.25196823214967    5.47770630823484    5.90033156634871
C        -1.16119198845207    6.07085863088175    5.69444361574078
H        -0.91577188188233    6.57010649297462    6.61167455249900
C        -0.26424531348409    5.89864989059074    4.58226786871386
C         1.05336039359091    6.35270471750904    4.56835019455863
C         1.89388109736598    6.30400849926962    3.45247231939898
C         3.25448845269088    6.75795144816182    3.43708632474726
H         3.78129792658739    7.16270236395470    4.27938824451658
C         3.72135160603426    6.56060536362078    2.18001840159073
H         4.69396893905346    6.79192541418238    1.79137460624704
C         2.65343546341218    5.96729836572584    1.42899624525020
C         2.74503046838747    5.61837323038750    0.08025435414587
C         1.72967803929217    5.00960677476555   -0.64913623536946
C         1.83517143738356    4.66888646955621   -2.04277595025657
H         2.69113394681325    4.86381756814242   -2.65876544019820
C         0.67052035539869    4.07834033155865   -2.39125660421457
H         0.37795515359121    3.70848180855812   -3.35480866126949
C        -0.14841406772002    4.03942389521491   -1.20902651669259
C        -1.43284787296964    3.49951728294600   -1.16502507340126
C        -4.45359269783660    4.08980141911431    3.97856526325969
C        -4.49304688889542    3.28757647302541    5.11383763490874
H        -3.57514917106630    2.85246060152335    5.48110859339354
C        -5.69180226475501    3.03661739518377    5.75556090120153
H        -5.70344788295942    2.40569176415846    6.63341916174133
C        -6.87999538739687    3.58345600567882    5.28976646028768
C        -6.83677360975163    4.39063336249688    4.15824933928326
H        -7.75203207053163    4.82763386924304    3.78341440963301
C        -5.64337694501335    4.63900543730269    3.50894589057624
H        -5.62612012101814    5.27269717586483    2.63322579224315
C        -8.18355523353369    3.32288187609067    5.98203517184521
H        -8.05331024576589    2.63185480722927    6.81107792626433
H        -8.90700831198456    2.90019981019652    5.28590123767001
H        -8.59974361329592    4.25304965136957    6.36843882806411
C         1.59641783120033    6.91920944988348    5.82030965733621
C         1.68908452833296    6.13197716918759    6.96330902145002
H         1.35688350031289    5.10451594287532    6.92520309652722
C         2.20756290338062    6.65028642276368    8.13552388988870
H         2.27709383850416    6.02062047250349    9.01161051731527
C         2.63954436047288    7.96787938490938    8.20281754680679
C         2.53672368876266    8.75605997395058    7.06165039054395
H         2.86218778877497    9.78642669173443    7.09829631721176
C         2.02619376264664    8.24145150077507    5.88615915890186
H         1.94522723839878    8.86844358894040    5.00981685877881
C         3.21099223046439    8.53720938773567    9.46583727796133
H         3.12384812850115    7.82989400004551   10.28686162560420
H         2.69435347623962    9.45621278987269    9.73919970092687
H         4.26519060219337    8.77776931337077    9.32786523043897
C         4.01427371589741    5.91546972904334   -0.62255728050430
C         5.16525160993842    5.18864637806359   -0.33763485748564
H         5.11629727278472    4.39786159683232    0.39579186073830
C         6.34873976325568    5.46572562714195   -0.99312135846191
H         7.23517109159627    4.89050303927370   -0.76461083022371
C         6.41987532547794    6.47674043679081   -1.94565880764632
C         5.26952418520840    7.20022967106928   -2.22684029877877
H         5.30224229274502    7.99039360712340   -2.96414902121042
C         4.08022994360650    6.92318269687640   -1.57666700924926
H         3.19335959172422    7.49718774042500   -1.80581599267274
C         7.71457600419244    6.76921901686643   -2.64204127966014
H         7.58904834973505    7.55079509067119   -3.38724466163164
H         8.09235290631097    5.87443095265695   -3.13528158564070
H         8.46615743129511    7.09379884313999   -1.92282514232831
C        -1.94408203495422    2.83710081813582   -2.38325111835099
C        -1.29977069064102    1.71422047610504   -2.89579453496866
H        -0.42299287910815    1.33260492962762   -2.39260331357553
C        -1.77795084014568    1.08544939285408   -4.02801596990429
H        -1.26943478416537    0.21138973818943   -4.41028680482659
C        -2.90762225696629    1.55938499770626   -4.68657079791345
C        -3.54568538994156    2.68172723287396   -4.17689002207338
H        -4.42350108530718    3.06926263634059   -4.67508560726329
C        -3.07389137520989    3.31192294725210   -3.03982353082779
H        -3.58026561023347    4.18823235134471   -2.66009374843520
C        -3.41707065658336    0.86128216420795   -5.91077221947917
H        -4.23886062606402    1.41247282394666   -6.36115866468313
H        -3.77005209640407   -0.13791214293543   -5.65559852984895
H        -2.62227226507214    0.75372679107113   -6.64761245019047
C         0.53206730020754    3.17041749107195    2.32524366028281
C        -0.03393147399619    2.49290471368056    3.48822663239820
C         0.48224400219219    2.71107905134315    4.76734197501378
H         1.33805017008920    3.36017783487376    4.88616373291571
C        -0.11038943565279    2.12670026071863    5.86993493702697
H         0.28910168674932    2.31447223277374    6.85649726405123
C        -1.21209979957999    1.30106636645108    5.71752210192541
H        -1.67377989763936    0.84735145664049    6.58257359355338
C        -1.71559643225553    1.05736740191996    4.45045312468015
H        -2.57058569301266    0.40896484282490    4.32270752944345
C        -1.13428273484337    1.64641014011463    3.34359714850307
H        -1.53058374005557    1.45841528910642    2.35585848132570
C         1.68854601197034    2.56238694563799    1.67714390199946
C         1.53264706893267    1.80088074610813    0.51672783783867
H         0.53585148784099    1.62670391089410    0.13665125492111
C         2.63417478378426    1.28415226088597   -0.13656718227531
H         2.50025417810935    0.70751620927872   -1.04057748174023
C         3.90814162018955    1.49916848026914    0.36289737295257
H         4.76832710882577    1.09708651022724   -0.15179618666086
C         4.07134004267504    2.22785987612199    1.52892199696016
H         5.06086700746351    2.38199564981770    1.93665442956799
C         2.97468791673728    2.75726702013040    2.18323134323533
H         3.10945174453318    3.34033490877809    3.08286770012906
C        -2.27037109197584    7.36882659560805    1.13289626680886
H        -2.41178612832051    8.39646357622558    0.78016252632578
H        -2.48754923546161    7.32341534356179    2.20015098198955
H        -2.95896568183846    6.70402559801740    0.60038607821683

