58
CSD_code = AHIHAB | q = 0 | S = 0 | Stoichiometry = C26H28NiP2S | MND = 4
C         3.54793022029455    6.36092561440449    6.24475715190623
C         3.65477301638223    6.35897034275411    7.61672670009637
H         3.84733260653485    5.43282561633705    8.13813522484333
C         3.52572706466681    7.55298893543401    8.34743518394556
C         3.64382576976375    7.58131120184165    9.75415391242004
H         3.83137227010209    6.65272654968209   10.27457492822111
C         3.52481333207270    8.75439245544855   10.44503997497478
H         3.61649712100079    8.76297039553079   11.52178618988272
C         3.28332446991240    9.95938628326620    9.76724112035339
H         3.19263052100772   10.87731648435162   10.32957601202669
C         3.16427462231482    9.96802228043400    8.40451975695681
H         2.97909841497955   10.89210861511813    7.87379415109295
C         3.27960888875413    8.77655089239916    7.66371399015635
C         3.15339895889328    8.75706831612923    6.25789569786657
H         2.96558326016684    9.68527055441075    5.73338172406298
C         3.28111091789626    7.58231993489816    5.57195155587648
C         3.25670997567992    9.01447336763955    3.10781806666973
C         4.44357822434622    9.68616561263529    3.38931908829042
H         5.18070314784748    9.21064840990302    4.02373082110065
C         4.67206259150308   10.94494087489968    2.86749780310432
H         5.59025436365448   11.46663395262033    3.09623812861873
C         3.72217759152576   11.53647072288548    2.04905428719640
H         3.89851761482051   12.52114883750862    1.64167197696847
C         2.55009699438801   10.86260827287942    1.74762086456587
H         1.81451828169678   11.32069174510350    1.10236560116672
C         2.31716655802525    9.60204025888434    2.26891733710038
H         1.40541657313146    9.07296221310565    2.02839188814822
C         1.26437194731155    7.02554478016674    3.69883466017253
C         0.86161972138525    5.85188801445197    3.07145106836663
H         1.62814331440521    5.20225983596215    2.63899597634126
C        -0.47944949356197    5.52227404023136    3.01137362982799
H        -0.79430411514256    4.61000845842082    2.52595369935552
C        -1.41959019640969    6.36578102469019    3.58120397123053
H        -2.46852104206466    6.11126701460249    3.53801144015844
C        -1.01960301504710    7.53238633485500    4.21488277063394
H        -1.75654463116463    8.18186338681616    4.66469985158395
C         0.32110294812556    7.86445422601943    4.28068984953248
H         0.64001148274941    8.76682810090097    4.78350020664561
C         4.11891395755479    6.24978914933563    1.27547854272482
H         3.56554439526319    7.16744057465526    1.05334111896472
H         3.82930047208484    5.49611012626663    0.53721609118203
H         5.18907615803078    6.46561054497125    1.15660901152284
C         6.30494762864716    3.24515398651379    3.57804816703510
H         7.07373238913866    3.94936158162011    3.26379011523467
H         6.64256073400757    2.22608734295400    3.39285999122142
H         6.11347017174879    3.38566879283477    4.64038107850005
C         5.23935644748553    3.03137427993125    0.97269335064700
H         5.67802342910612    2.03593784303040    1.02160551626249
H         5.96297059851684    3.72603374067095    0.55171372700846
H         4.36334896800887    3.00666455200043    0.32796348917439
C         3.71694895992563    2.17325110217299    3.19084110582429
H         3.45426146968602    2.30937908406072    4.23812254283810
H         4.25615936228753    1.23564152071912    3.06141850481285
H         2.80234832828631    2.15338238349843    2.60070176102120
S         3.71782247199115    4.91325851539233    5.30667894046864
P         3.05303540991180    7.34355789998802    3.78881699769375
P         4.75882106194633    3.58224830800746    2.65713526720758
Ni        3.94121729427026    5.54525471398246    3.10907841910702

