65
CSD_code = AHIHUU | q = 0 | S = 0 | Stoichiometry = C24H24N10NiO6 | MND = 6
Ni        4.93553424638781    7.48050261872344    4.27391720258287
O         6.24970235611237    8.70862204218040    5.86405371369749
O        -0.05530879685389   10.90975924842761   -0.02867923069874
O         0.35684584103641   12.86484807225022    0.77414199690077
N         0.54747262880384   11.66049480246572    0.72214431193338
N         5.85965315238424    9.91915380298742    5.70714351441604
N         4.98285459498288   10.30870869584887    4.89335783885706
N         4.38380830863546    9.42987904118608    4.10906399717232
N         6.28020983619245    7.74878255214404    2.95744970778249
C         6.47226816201421   10.93775729311528    6.53083144325377
H         6.03884915484743   11.90201347035550    6.28015885358421
H         7.54826956065812   10.94632271560382    6.35301816355281
H         6.29848248036628   10.70410424235778    7.58186313381734
C         3.44789010011837    9.99157272280150    3.28185085701309
C         2.72679101368115    9.18614179572975    2.38266187276450
H         2.92329864815455    8.12731011005334    2.35327356562582
C         1.78252699902775    9.72820460257024    1.54911206970373
H         1.22715657004748    9.11159901989542    0.85895302276686
C         1.52526025083235   11.09965467657758    1.58322134584773
C         2.23179262098028   11.91778546197727    2.46653972316227
H         2.01978173331492   12.97608629771864    2.47808925857775
C         3.17461072348547   11.37600833659822    3.30041436900402
H         3.72059829883071   12.00551446127646    3.98396798430132
C         5.96122473640041    7.87771070480641    1.67026240169007
H         4.91157536715877    7.81375183171748    1.41928258242988
C         6.90873060043407    8.07287153448681    0.68032720318805
H         6.59511688471268    8.17292995554869   -0.34656087813623
C         8.24694127407196    8.13854913407191    1.03143934241612
H         9.01051680748308    8.28981413500891    0.28367338701777
C         8.57691931762657    8.00457422838511    2.36991566733633
H         9.60292038920268    8.04574312502628    2.69927784056841
C         7.56708633102528    7.81193447464273    3.29672472990800
H         7.79967605044230    7.71386245304606    4.34795747504469
O         3.62141720553584    6.25237674249571    2.68374016549473
N         4.01135700796936    5.04182736507808    2.84075779036518
N         4.88812358680276    4.65226302676361    3.65457152981836
N         5.48722981065965    5.53111592956355    4.43880584865008
N         3.59085460915669    7.21216514986653    5.59039236866798
C         3.90981093468489    7.08350650407340    6.87761558846419
H         4.95944086089655    7.14769061811693    7.12862433928463
C         2.96229840072711    6.88838877790226    7.86755503056284
H         3.27589402619990    6.78851525964040    8.89446633994949
C         1.62410791456377    6.82247784507199    7.51641010567169
H         0.86053592312867    6.67117825771951    8.26417268151874
C         1.29415689281891    6.95617248428444    6.17789567709057
H         0.26817190765973    6.91481379761931    5.84850681150377
C         2.30399802608988    7.14877713949315    5.25108734411874
H         2.07142103910431    7.24674478660378    4.19984440360699
C         6.42318435598230    4.96942971073980    5.26597863627300
C         7.14424561412597    5.77485174344027    6.16520915386810
H         6.94766524011578    6.83366796371058    6.19466683598177
C         8.08856995572782    5.23280329081919    6.99869588718347
H         8.64391114569985    5.84939737850581    7.68888921872358
C         8.34594630252065    3.86137329012157    6.96449195612121
N         9.32378438907838    3.30055325828611    7.82549698931734
O         9.92657642533222    4.05129271606472    8.57631860658349
O         9.51456694957182    2.09622797875412    7.77337771110195
C         7.63944197380244    3.04324891410165    6.08113841115617
H         7.85153803976980    1.98496528757130    6.06951438235988
C         6.69656155610914    3.58501078604244    5.24732668292001
H         6.15059872197938    2.95551031179497    4.56374785879986
C         3.39860959216629    4.02319456162406    2.01720051132409
H         3.83195002530087    3.05892195168776    2.26794555579969
H         2.32261599910887    4.01474197648492    2.19507040800369
H         3.57235932501285    4.25672753637240    0.96613670263159

