47
CSD_code = AHITUI | q = 0 | S = 0 | Stoichiometry = C16H22N4O4Zn | MND = 5
Zn        4.42440796549358    6.77736672980312    2.62740165073846
O         2.89513178161954    6.42328260511915    1.27892357457894
O         2.66144311203664    5.95202591044204    3.39292222889023
O         5.66486741830446    6.20743821252080    4.18508718656299
O         5.34413275093010    4.90366964402712    2.46927728873343
N         3.70070714382711    8.64950291883560    3.21141339704724
N         3.71866030301051    8.08700853891565    5.43927966759744
H         4.32004224522481    7.32227521739753    5.16295590083565
H         3.17278041730450    7.95313416887635    6.27203309803512
N         5.97427245048363    7.54135509172272    1.45036992409448
N         5.37616136901266    6.26645450865260   -0.36574908315866
H         4.49488464467564    6.13526182379520    0.11278572249306
H         5.65313569095883    5.54309626563756   -1.00576810359363
C         3.19883952579846    8.82688556803847    4.44039467023431
C         2.21564525607986    9.81767952905498    4.70148459293740
C         1.65949729188180    9.97750542739969    6.08365651031187
H         0.93634523659987   10.78868467499033    6.10742641761960
H         2.45540199690143   10.20068763435842    6.79361919832738
H         1.15959561331992    9.06354707672287    6.40629377812194
C         1.80397970653294   10.60883378005853    3.65586858023753
H         1.05292166418773   11.36899438963716    3.81859174123153
C         2.35943560829366   10.43456776560932    2.38778038985243
H         2.05510904990458   11.05265591987583    1.55933497618487
C         3.29453803660401    9.44341674544266    2.21808356793552
H         3.74642503491802    9.25012102761847    1.25687725035492
C         6.33457607401638    6.91984790999274    0.32008350125987
C         7.65759804044810    7.01537930145162   -0.18671744158839
C         8.03361689809606    6.29242048719883   -1.44413737192380
H         9.07284518617081    6.48848176377166   -1.69525132725996
H         7.40804421141432    6.61798381663859   -2.27479060370485
H         7.90788227752592    5.21599378169008   -1.32261571595422
C         8.56043212856520    7.78382505024267    0.50835451868984
H         9.57759871476527    7.87318516007469    0.15368241751217
C         8.16233017866686    8.45210825364702    1.66673491843728
H         8.85469752665922    9.06648826786345    2.21824464176323
C         6.86739973533046    8.29486098356251    2.09574706142601
H         6.50675371773618    8.77315590982271    2.99387528335362
C         2.22708302093096    5.94237751647840    2.22557234237126
C         0.86802513509595    5.34257583046252    1.93349999361575
H         0.24436191274879    5.38624785647302    2.82108150185789
H         1.00885646063637    4.30117457752691    1.65171237920920
H         0.40216747449530    5.86944611944832    1.10601066012142
C         5.84036828940430    5.11621979591400    3.59184021534788
C         6.67352574199584    4.04326886839641    4.26061558182177
H         6.01371746788772    3.43351300840775    4.87433037886512
H         7.42350412690518    4.50127518088068    4.89853968859698
H         7.13725436658514    3.41141938550576    3.50924324998315

