70
CSD_code = AHIVIX | q = 0 | S = 0 | Stoichiometry = C24H36B9Rh | MND = 8
Rh        9.35086505889226   12.18158689981743   19.13643368903501
C         9.48077750313863   10.04523450991178   19.23027423558673
C        10.01989663304674   11.30297925611421   17.29985860160272
B        10.44344626563448   10.62936642125478   20.35318459792276
H        10.11939612074755   10.60539703092314   21.48645621097122
B        10.86167961287381    9.15731615814699   19.37541219113164
H        10.74487106922205    8.04596360668357   19.73496094794006
B        10.21865247650388    9.69339699065194   17.75666434675280
H         9.69646522291916    8.88092910635677   17.08125491811630
B        11.15855496864867   12.29710670969233   17.79450964053616
H        11.29540311117058   13.34877540415111   17.27949432133310
B        11.45824850624375   11.99137978795290   19.60294564196687
H        11.78889112653387   12.89604330877721   20.28522870896760
B        12.10588667687870   10.35666523400628   19.81384573233784
H        12.93078258603557   10.12743352035086   20.62299456125951
B        12.06986053376577    9.58996349641594   18.20640042589724
H        12.82842161261255    8.75382475798189   17.87325965357570
B        11.52679048409200   10.70875518677772   16.99588861708832
H        11.82585672750932   10.56638534612966   15.86972525024312
B        12.51340521231994   11.30880108811959   18.35535097558650
H        13.60889995422563   11.71166580925380   18.19618046519288
C         8.19921703094871   12.92406900376786   20.81253303533223
H         8.49811403164231   12.75037075105105   21.84506758901212
C         8.89454503695670   13.97187272110127   20.16836098678942
H         9.73965369068062   14.41747455749456   20.68654111959426
C         8.75216683792432   14.23152291651888   18.78696474160536
H         9.43879900699986   14.97917183876182   18.39306407771629
C         7.41598659227729   14.24608668709538   18.06849958134896
H         6.96699999148275   13.25236923360504   18.01261784748516
H         7.57730743844896   14.57018674171206   17.03654164840182
C         6.39695405785039   15.21397628507532   18.70174473939765
H         6.67833878687941   16.23516842117649   18.43095286803992
H         5.41879658475134   15.01569692050842   18.25624182265257
C         6.27990932510752   15.16700565219803   20.22487199303734
H         5.55778940712116   15.93307589935918   20.52103271959809
H         7.23830218660079   15.44683043470931   20.66572601202919
C         5.81688212063141   13.84342143772370   20.83276922859685
H         4.81911173316980   13.60131771577227   20.45802694557697
H         5.73234235420871   13.99596587987519   21.91208438328985
C         6.72907821715111   12.62576787955033   20.58491376790255
H         6.42064112121656   11.83951956135762   21.27975354238084
H         6.53612188943191   12.24253259898020   19.58090852523007
C         8.06264885108794    9.53072234865990   19.44875667167726
H         7.68380147297953    9.91677923795188   20.40040012817373
H         7.41054051589377    9.90200451705882   18.64752071750363
C         7.96310976676090    8.02901803808773   19.47621554163631
C         8.24766384777298    7.33878499264046   20.64868021376622
H         8.53237161013233    7.89082592948790   21.53274674262893
C         8.17528387334960    5.95905179874305   20.69009890007408
H         8.39958635204831    5.43569516035683   21.60808686011816
C         7.81605731077150    5.24799989688462   19.55708588227836
H         7.76031343337022    4.16992299326634   19.58792926761632
C         7.52493174662578    5.92611234524172   18.38691899028343
H         7.23895578374935    5.37809802715244   17.50091024888924
C         7.59579430697088    7.30782515468073   18.34908650898854
H         7.35793443600090    7.82734012841923   17.43187847026665
C         8.95573043089796   11.61490511169488   16.25399657445887
H         7.97783285383153   11.26683211033362   16.61166031668145
H         8.89855083957899   12.69908255343393   16.11450539078791
C         9.21733526540401   10.97889904176062   14.91518166766081
C         8.61159819616409    9.78431623369228   14.55233389777792
H         7.92254268597128    9.30282149259445   15.23152182804152
C         8.87503656471545    9.20309667006056   13.32423788042692
H         8.39713293241112    8.27192461136576   13.05656514345344
C         9.74574896886686    9.81434533704844   12.43985461741143
H         9.95175887678657    9.36205917564466   11.48105692143159
C        10.34801443711624   11.01190464500567   12.78831794520582
H        11.02475440402710   11.49677430213732   12.09995759622092
C        10.08470412658449   11.58888968569321   14.01654329964503
H        10.55845720563673   12.52149569402809   14.28711086884446

