65
CSD_code = AHIVET | q = 0 | S = 0 | Stoichiometry = C21H31B10ClSiZr | MND = 12
Zr        5.11252536020443    2.89155480352441   10.27610270760987
Cl        3.24552257510503    2.78551304497102    8.85504769437591
Si        6.42963610683710    0.35372413004023   12.10929544807921
C         5.06425847570324    1.61756952411974   12.44276851999395
C         5.35635761243829    2.97498934297099   12.73473601592133
H         6.25352620251879    3.30253836543901   13.24366883593750
C         4.21373757102206    3.76689893538296   12.45293549566409
C         3.21638010023761    2.89370472114381   11.95237917258579
H         2.19305550791948    3.15049204533122   11.71150047498854
C         3.74775505543997    1.58769616000227   11.91498928358846
H         3.18952267057512    0.69643544087200   11.64712703445763
C         4.11002543057667    5.27103558867214   12.65551521549659
C         4.70347051442866    5.61611007149729   14.03580462717174
H         4.24732079738768    4.97794124452502   14.79032924345625
H         4.49329130494585    6.65074850786869   14.29313465192750
H         5.77806635848334    5.47056131777421   14.07019156394901
C         2.62571503960393    5.67130323203967   12.72089586093643
H         2.11868718577363    5.51655333741447   11.77321942377811
H         2.52685776158937    6.71859920483345   12.99312210959888
H         2.12627774734856    5.07602158053966   13.48305740413497
C         4.85656116935715    5.99525838757106   11.50141745074974
C         5.55210041050659    5.04012001434787   10.35197483806151
C         6.69508162113558    0.97613927403286   10.34758414315843
C         7.45087191288385    2.12708504528402    9.99605109969993
H         8.27272512717898    2.52882399626169   10.58154455112592
C         7.10313075800299    2.56151126461219    8.69814838446534
H         7.63787688219656    3.28597052660202    8.09901719790636
C         5.46559553849871    1.57273843056945    6.95382004309740
H         5.70262681420587    2.27260744931550    6.16329442260943
C         4.53987657032574    0.57748687451450    6.76474078545162
H         4.03426905636050    0.48647054189273    5.81524317378899
C         4.22259660337567   -0.32772254361851    7.79114714074725
H         3.47566403465244   -1.08526430658797    7.60348714004096
C         4.84253908876534   -0.27168088602621    9.01597778169415
H         4.61449020818546   -1.00216126389316    9.78164591414428
C         5.82263777725073    0.71366948447850    9.24133150104818
C         6.11139827474245    1.67024792488841    8.19877811433201
C         7.96981528061486    0.67940505051637   13.18667172251441
H         7.74277405490418    0.51894166486276   14.23478402465391
H         8.34524128623294    1.69190758562606   13.08109922549482
H         8.77197500526326    0.00137668458762   12.91724958443094
C         5.88448204935428   -1.46382690267742   12.29473863725342
H         4.82486678566502   -1.59949438275569   12.10726589992210
H         6.08355500445182   -1.81147173761520   13.30264731531762
H         6.43130162245387   -2.10490919755144   11.61145179072485
B         4.29382669384910    7.47932823738003   10.81055517308970
B         6.56677662610875    5.87640946448121   11.44165538151065
B         6.99067340552034    5.81093493878509    9.74589966077402
B         5.49992726477916    5.82334064981638    8.81723673072164
B         4.15142924956093    5.95713148042602    9.94178612742709
B         5.78001054685344    7.43047114982601   11.74433017269804
B         5.72664561050262    8.32308846700536   10.20575634186595
B         7.14872691987133    7.33706892547529   10.61973451992653
B         6.47827868726148    7.30632346206599    8.95606396567252
B         4.70081470037240    7.39217689975451    9.07671274824546
H         7.13551312022910    5.24345218771977   12.25827859307001
H         7.89998355671828    5.12528273266881    9.44151360182152
H         8.19910372100689    7.79705413508726   10.88031384577857
H         7.06721615348332    7.75189632411444    8.04078701088081
H         5.77328860398295    9.49818373352637   10.18395775876227
H         4.02880220725163    7.90342248151309    8.25956514439282
H         3.33499389915278    7.98790267306707   11.25643887485424
H         3.14110688767123    5.36736170524504    9.80485108211379
H         5.81959779768282    7.90751778028268   12.81614989636610
H         5.37594203344042    5.10783299356953    7.87728070395474

