70
CSD_code = AHIVUJ | q = 0 | S = 0 | Stoichiometry = C24H36B9Ir | MND = 8
Ir        9.46015942109551   12.29333375555070   19.22557033752059
C         9.54993246801866   10.16612132247214   19.34123874670463
C        10.11078814369696   11.43884023161752   17.38213931171684
B        10.52891773886834   10.75113067932900   20.45200199190849
H        10.20582483182466   10.73835453356886   21.58323608265610
B        10.92194473443045    9.27019409398117   19.47129850508761
H        10.80225869724268    8.15785904602862   19.82744539172786
B        10.27054512209231    9.82675969316884   17.85367012000353
H         9.73890260495945    9.02072074155277   17.17781392437711
B        11.26069151973427   12.41226699460130   17.89641161916869
H        11.40674544081361   13.46468695780295   17.39098693970702
B        11.55768360286832   12.09734948861106   19.69989161677832
H        11.90413765800788   12.99240274477032   20.38111950335391
B        12.18429683501344   10.45487654532855   19.90760581819592
H        13.01070180630365   10.20681518969155   20.70960257229149
B        12.12863454204644    9.69130549989755   18.29822515075969
H        12.87461579632822    8.84489116771392   17.96164657981630
B        11.60490226068215   10.81882279321079   17.08900936516061
H        11.91031217671488   10.66897021132091   15.96533046510150
B        12.60154873414896   11.40292802248332   18.45081327724595
H        13.70445908502984   11.78323612940875   18.28749137265436
C         8.29175685056590   13.04492201785978   20.89615569935384
H         8.59187460479834   12.86684012117556   21.92535839398906
C         9.00240402587427   14.08514044484711   20.25086867245098
H         9.84657044666204   14.52750340113330   20.76862911423888
C         8.85299419958814   14.34812432259498   18.86844145999346
H         9.54449584615289   15.08716905267585   18.47267058992477
C         7.51154485716931   14.38575934957010   18.16185383521545
H         7.04662770073230   13.40121576635650   18.10800599650940
H         7.67085836859611   14.70534738811223   17.12861315642327
C         6.51109332338307   15.36839314575189   18.80210837360234
H         6.80418275712681   16.38549082085549   18.52860813489599
H         5.52666336445120   15.18338968751664   18.36480871273108
C         6.40667376980445   15.32349006415421   20.32636417732789
H         7.37378935124690   15.58626058205047   20.75809071067697
H         5.70117801221395   16.10239929939134   20.62899274112218
C         5.92625137045152   14.00839883070033   20.93954713717760
H         4.92018453589584   13.78394307317018   20.57615975360287
H         5.85688771720050   14.16201062903113   22.01972427745968
C         6.81480885328944   12.77613677159377   20.67978377728371
H         6.49893549278266   11.99115621620162   21.37206880811651
H         6.60541118454158   12.40139623040415   19.67784598130998
C         8.13350537204477    9.66527882295134   19.58231934390096
H         7.76525235054240   10.07431147475764   20.52634698958422
H         7.47792389400349   10.02503583894594   18.78182387356315
C         8.02396687589941    8.16558696031898   19.64062174509583
C         8.30775212141593    7.49609065879641   20.82513284605189
H         8.59934508284485    8.06306915093461   21.69734156287394
C         8.22669771762957    6.11787121951150   20.89293739380782
H         8.45021673124817    5.61050332177209   21.82007608689933
C         7.85980706066588    5.38768839014651   19.77458722243489
H         7.79685374526507    4.31077562604995   19.82618756586400
C         7.57088753221498    6.04522121383142   18.59210612081247
H         7.27984017861150    5.48218600426417   17.71721020095157
C         7.65075875010010    7.42541600874763   18.52775298015996
H         7.41586184323997    7.92953672885470   17.60128156169457
C         9.06681809201126   11.77963733662621   16.32893404579114
H         8.08403660788016   11.42896660241239   16.66235524112100
H         9.01423221227859   12.86537481714356   16.21666833643591
C         9.34749669919202   11.17500589708529   14.97990960925545
C         8.75279526130761    9.98493326525725   14.58532505566832
H         8.05883030367199    9.48613464956626   15.24664538319675
C         9.03463243893400    9.43043003060711   13.34904261509576
H         8.56498432525814    8.50261988020508   13.05624128081648
C         9.91352421557147   10.06378437584782   12.48855008893970
H        10.13388300582372    9.63223346395665   11.52338475871156
C        10.50632755313790   11.25612025117947   12.86968996616614
H        11.19023989656242   11.75749591676057   12.20048039257152
C        10.22453456570593   11.80648794001568   14.10597888859470
H        10.69190571449232   12.73425109619413   14.40272064860077

