62
CSD_code = AHIWEU | q = 0 | S = 0 | Stoichiometry = C19H36ClO2P3Ru | MND = 6
Ru        4.93717485309039    9.22505316793032    2.24426643309241
C         7.22999761933665   15.71787211035080    4.50181744595854
C         8.25978542951574   14.79293623576108    4.38676496608450
H         9.28215095239001   15.06625628303738    4.59949107831071
C         7.97975378682865   13.49701165680299    3.99361568651886
H         8.79414492238600   12.79019362437345    3.90914741168813
C         5.92570537084101   15.31195349938441    4.21784365023102
H         5.13268989032931   16.03761854756905    4.31370114596069
C         5.66027202534365   14.02008334691522    3.82586358128976
H         4.63898221827187   13.74065989191622    3.61525355596273
C         6.68367826823033   13.07525968018723    3.70010382364338
C         6.46435908313454   11.69405761171026    3.27845315824922
H         7.36668617149689   11.08806514470050    3.29052143549291
C         5.30696238402169   11.15617191027512    2.88843351831611
H         4.44152494463690   11.82468681969378    2.89299286506621
C         4.96279319147728    5.68170649354201    2.67441198848465
H         4.35431655886705    5.73984157287774    3.57409043179851
H         6.01028420765975    5.79523106966672    2.95447659595663
H         4.81551782616525    4.71087607006949    2.20021894120948
C         5.58833484119593    6.44161329704701    0.11342111375275
H         5.36865494662035    5.39661612558472   -0.10754128409021
H         6.63139041644885    6.53886646044325    0.41534601441729
H         5.42880567767043    7.04095580907723   -0.78009151431394
C         2.87511901283254    6.51116394328443    0.94285106635701
H         2.56904411482830    7.14590765882921    0.11220362084274
H         2.16778671584212    6.66575632619061    1.75676518629857
H         2.87675168605768    5.46436917528023    0.63757547499369
C         4.05130677855650    9.66092910891006   -1.19094458060699
H         4.26274809650595   10.23434038469477   -2.09396578812279
H         3.02813746315703    9.84888274448785   -0.86458242071886
H         4.16565263685110    8.59914094782429   -1.39905430181568
C         4.84591726706901   11.99933458095509    0.06024626477737
H         5.56965276943146   12.53983919967911    0.66802419728189
H         3.84188343790578   12.19067586114224    0.43844871545597
H         4.91495244248964   12.32205242964387   -0.97947352339281
C         6.81695265708081   10.11939612231163   -0.63683473181728
H         6.81372513265270   10.64417234127836   -1.59188416139486
H         7.10660873729130    9.08049836938281   -0.78635807277643
H         7.53450525180050   10.58650683634787    0.03729181319722
C         2.64886902801365    7.94549429407634    4.67162614049228
H         2.39140525776834    7.94311672455059    5.73117832525176
H         2.78421056986616    6.92214843066689    4.32758203250102
H         1.84634151753696    8.40805396908055    4.09664322264877
C         5.31974652991347    8.23607724488921    5.64103175424546
H         6.19958574490817    8.87788218051464    5.67926081399603
H         5.63041925773493    7.23941441464329    5.33190803900814
H         4.85471817208162    8.18986368439313    6.62549779219004
C         3.63892976864903   10.46094233469747    5.28090749843944
H         3.23797992060665   10.19587743545386    6.26014249747805
H         2.86636708822514   10.94962858390765    4.68751532248397
H         4.48759670426236   11.13376329878689    5.39384415529763
C         6.67776896867583    8.74100701838348    2.51724109625630
C         8.67471771814837   17.48890057425596    5.16710350458470
H         9.11990577734615   16.94840451008541    6.00961976881688
H         8.56041738152517   18.53842732259865    5.43506351739311
H         9.33551334948846   17.40901679684565    4.29692524256575
Cl        2.66325172186333    9.84325863270255    1.88309478630534
O         7.76171829963299    8.37014056539293    2.66631644759089
O         7.38120956440192   17.02487093099072    4.87901855533321
P         4.16512463890812    8.94466746408717    4.40727862433233
P         5.16914213178532   10.20331890230756    0.15979567782654
P         4.53745110216268    7.03207222748102    1.50159438319180

