60
CSD_code = AHIWAQ | q = 0 | S = 0 | Stoichiometry = C18H33ClNO3P3Ru | MND = 6
Ru        4.36101399378187    2.73318065738294   11.57201023501758
P         4.85222280763706    0.58346433196326   12.39978002820740
P         4.09608613733351    3.75755232973259   13.63806287022090
P         5.17260119344669    2.38157221293147    9.42820012109719
C         2.64640503844254    2.15061523820727   11.31528208373283
C         3.80338413822621    0.00794218816063   13.79381310340603
H         4.06825186198756   -1.01452270505020   14.06457393539665
H         2.76308055425206    0.04050906241569   13.46922025631256
H         3.91570146592620    0.65225476662123   14.66279355995689
C         4.50155219797891   -0.82339209339406   11.27176706961811
H         5.12030473124945   -0.77379944322233   10.37861696863856
H         3.45404696328494   -0.76744080803699   10.97481892162432
H         4.68399285190906   -1.76776017056019   11.78536251720290
C         6.52812107139410    0.15997837872735   12.99653999316144
H         6.80306559694599    0.84475017417143   13.79765293243572
H         7.23744338038156    0.29966479922729   12.18160049675453
H         6.56224113297530   -0.86990639502388   13.35288419157976
C         2.45198008867896    3.64361533176063   14.43693682248202
H         2.43949265899208    4.19816630665417   15.37478780011806
H         2.19557443471211    2.60156284808115   14.62035369030432
H         1.71793753107444    4.06599835867659   13.75104356987396
C         5.23563180073368    3.29674991088200   14.99850606272904
H         4.99869929678749    3.88659237021876   15.88440069926005
H         6.25047193818672    3.51909429678677   14.66780515902187
H         5.16529842017790    2.23776653220354   15.23760544412676
C         4.35825036927762    5.56570759200874   13.67249379308909
H         3.60656388833193    6.06260202410727   13.06127462886357
H         5.35024569299022    5.78097683757266   13.27578982641968
H         4.29119066529632    5.91885493734343   14.70223424821925
C         5.61971396855975    3.89036449396388    8.50007496499801
H         6.04434982832913    3.61041919959775    7.53525666915053
H         6.35816932243930    4.44625554831059    9.07761391106438
H         4.73470321231854    4.50741522538734    8.35112962312019
C         4.07441201563153    1.55648814293804    8.21655336499847
H         3.16098742921969    2.14541002881740    8.13632936855750
H         3.81403172884789    0.55868241920117    8.56530210562561
H         4.55691926841087    1.49236625174163    7.24164548720484
C         6.74507629128329    1.46064465399313    9.23020134456230
H         6.66221779170438    0.44637358249424    9.61525988865290
H         7.51290844946499    1.99140221746531    9.79347481200788
H         7.01625763382352    1.42885760601868    8.17460775885977
C         3.90156013334999    4.60736965044034   10.87185307130901
H         4.73155641435281    5.31866442005718   10.82751171886880
C         2.70616763567821    5.08473302853248   10.49162582872576
H         1.83522556933365    4.43589263585553   10.52029270263126
C         2.41590138332918    6.43305637484524   10.04617317201131
C         1.08151143584548    6.78122498949140    9.77849438724386
H         0.31246801351883    6.03231848852455    9.90194596115904
C         0.73721003003073    8.04682491823780    9.37044193070309
H        -0.28852902487281    8.31545107145694    9.16860508311928
C         1.73261195910787    9.01007521957628    9.21252865282680
C         3.06614501976698    8.68987773585259    9.46376697617433
H         3.81944255318016    9.45149679915249    9.33049928268290
C         3.39798052216521    7.42136831466156    9.87403940939456
H         4.43404646030384    7.18728751459266   10.06382432704000
Cl        6.59484870963813    3.47570790680155   11.91748654167072
N         1.38602050785541   10.32625431952104    8.79262934647566
O         1.58366741881257    1.72294824926661   11.17732734983817
O         2.28327037525707   11.14053621802293    8.66031465184615
O         0.20959604093361   10.57158290465212    8.58927927866850

