69
CSD_code = AHIXUL | q = 0 | S = 0 | Stoichiometry = C32H36Zr | MND = 12
Zr        5.83415513762454    1.15860905643487   11.24602325940137
C         6.86002568389701    2.67530033639459   12.89943047465459
C         7.37801511400249    1.38156019871160   13.15823951698566
H         7.24090138810753    0.81881364166156   14.07583459042157
C         8.28885369016588    1.06104667227504   12.12321904792843
H         8.96823299949925    0.22035442124977   12.10695817695587
C         8.31574564423494    2.13709696252548   11.22113330491557
H         9.01584113218733    2.25587564541839   10.40793042719798
C         7.41067797802208    3.11904724923402   11.67492170249034
H         7.32652405550028    4.11244372621758   11.25241255645767
C         5.62072614219067    3.22613236347235   13.57453234744488
H         5.58788798766351    2.86292445253701   14.61052353907332
C         4.50908706692298    2.54607102109649   12.78892889289706
C         4.02596275800889    1.25863595431401   13.14369304896803
C         3.24727828845406    0.76639619388153   12.07119702907906
C         3.26864617071770    1.72464550256954   11.03210751340535
C         4.07154342314931    2.82627478264489   11.45333830971251
C         4.15323552886939    0.60042481955871   14.49275978084464
H         4.16553228770892    1.34904610829791   15.28508056122965
H         5.06159108032144   -0.00414279548458   14.58546588761586
H         3.29939917777977   -0.05167612414583   14.67044120337436
C         2.38533541879924   -0.46391851979375   12.08119271474338
H         1.38365267417251   -0.21995464575140   12.44334241428766
H         2.79597916449709   -1.23663106604687   12.72813581590646
H         2.28105149700914   -0.87430683471336   11.07779390352322
C         2.39375840759722    1.62485773252682    9.81157532686367
H         2.59561479955932    0.70736975684521    9.25407599705251
H         2.52940706936569    2.46836240468489    9.13842539614713
H         1.34354825923433    1.60615803454333   10.10928795466188
C         4.19837042106552    4.12815784375781   10.69876882295311
H         3.66353610830002    4.06958507013100    9.75126574544632
H         5.23728477564969    4.38893794682605   10.47933007453116
H         3.75367196117758    4.94713688128531   11.26741045694939
C         5.56140033279784    4.75952428524923   13.64047453858370
H         6.41232313301391    5.12081277999489   14.22245455237557
H         5.63775502424728    5.18487089610841   12.63933557355290
C         4.28090631881029    5.20600663254137   14.27073148542101
H         3.38375103881481    4.80702268799760   13.81427157420329
C         4.19836692642637    6.00257845333298   15.31918265525926
H         5.07757766164146    6.40565916105480   15.79579319890696
H         3.25264476321794    6.29427397151738   15.74357075730718
C         5.61259615602097   -1.06232122146404   11.44641807200603
H         5.36637120788849   -1.27835268443439   12.49755440411279
H         4.77785290121512   -1.38525613035182   10.80444039944510
C         6.84001039285129   -1.77278127330980   11.06929982611696
C         7.82372303185236   -2.08461064187061   12.02072961383699
H         7.65649884729404   -1.81715212746689   13.05842957790102
C         8.98467224818844   -2.74200085945617   11.66639400825898
H         9.72545727014972   -2.96650533803732   12.42130078378459
C         9.20025619032870   -3.12803546326677   10.35272624742782
H        10.10830056628013   -3.64245124639369   10.07683674124373
C         8.22427402798399   -2.87042088863363    9.40373698284479
H         8.36813991253628   -3.19492760499624    8.38246100109290
C         7.06203747562925   -2.21155089888772    9.75532440710230
H         6.29147526099894   -2.05287281746095    9.00900504562247
C         5.66436795558134    1.19961970204731    9.02072589056432
H         5.46408026357396    0.18566579530683    8.64225463364377
H         4.86295036115055    1.86905411879307    8.68087856854233
C         6.95589944465196    1.68914345735957    8.51846887420966
C         7.14983656831547    3.04682875863832    8.21927077876872
H         6.32197790602214    3.73774405601737    8.33744869163155
C         8.36447104391476    3.51369224193323    7.75692180901244
H         8.48634890305087    4.56478217450836    7.53470258776112
C         9.42364234385309    2.64111467141186    7.56231917005661
H        10.37088974492644    3.00628385713555    7.19486960408703
C         9.24956180770489    1.29254958374021    7.83609273893332
H        10.06645248984767    0.60211080252089    7.68055473098077
C         8.03947684012414    0.82180674916834    8.30560343420673
H         7.92188034765109   -0.23394043348565    8.51714124710997

