49
CSD_code = AHOCEH | q = 0 | S = 0 | Stoichiometry = C18H4F20MoO4P2 | MND = 6
Mo        7.72810503525205    3.86781354551834   13.85837655990469
P         7.01073061108913    5.65026969509202   12.50572116261696
F         5.52906342958553    3.95708904447979   10.88494763034777
F         5.68044568015973    8.00477319781975   10.67527352318384
F         4.97591119963947    7.19339557055548   13.27043448930235
F         3.39402807554291    3.76782508275503   10.63540205441195
F         2.92759388236480    5.60715899594620   12.54990597206473
F         7.67775917907030    6.32297285481401    8.47560026685322
F         5.70601619582428    7.96626362672128    8.52330502207583
F         4.35320817245090    2.93453498772694   12.36668030992840
F         8.70284195778087    5.16907097870756   10.65966981509404
O         6.96676707838181    1.60123609694750   11.89996466309619
O         4.91862199095722    3.75547782780893   15.16462597395675
F         4.67608478353753    6.42837253639972    9.61950501868364
C         5.22303481287371    6.07282205794279   12.57996921499740
C         7.53489216534583    5.81590417362673   10.74880083317123
C         7.04746348220639    6.39584894030633    9.65061046870318
C         5.77222317917450    7.20194579317911    9.59876255056628
C         4.18868059572447    5.28941377674116   12.25984159696182
C         4.34298871927187    3.97934386257086   11.53136195559074
C         7.20315915581077    2.44406135099731   12.61721462189447
C         7.71768730612737    7.25025971179347   13.09651646692066
H         8.74277179057609    7.29041319442362   12.70396099299919
H         7.15707155878586    8.10575232556108   12.70522542887670
C         5.95373957218961    3.81235018039754   14.70704865776683
P         8.44536494816044    5.65025350039590   15.21119248696848
F         9.92672689545684    3.95706413505653   16.83218310064636
F         9.77552299293717    8.00469568268735   17.04200245621424
F        10.48028627940408    7.19335193633594   14.44674357399004
F        12.06170327426087    3.76784127462116   17.08223889167138
F        12.52854831605693    5.60727613684102   15.16791675831836
F         7.77742007278938    6.32313058109662   19.24112840512504
F         9.74928310709082    7.96624020902947   19.19396244882595
F        11.10296076444996    2.93463543731066   15.35066414592945
F         6.75290877541025    5.16916227278421   17.05692224685975
F        10.77945395118159    6.42825745451127   18.09810499678698
C        10.23307816529165    6.07281099529948   15.13722589109387
C         7.92090926425989    5.81592814513307   16.96801736819262
C         8.40807718038030    6.39590027324321   18.06630285750951
C         9.68336276299572    7.20190006325728   18.11850491232007
C        11.26739822168843    5.28948316075087   15.45766379585193
C        11.11295537978501    3.97938588575209   16.18606564417587
C         7.73861826848144    7.25030378696778   14.62031594384385
H         6.71353395911113    7.29054402955063   15.01285959597705
H         8.29930300969658    8.10575978421640   15.01159402142819
O         8.48917730625009    1.60133713418516   15.81701986809697
O        10.53742168927213    3.75508334352098   12.55177028309108
C         8.25279509150529    2.44400090315631   15.09958397234744
C         9.50240071436100    3.81198446546669   13.00959108476911

