59
CSD_code = AHOCAD | q = 0 | S = 0 | Stoichiometry = C24H10Cl2F20P2Pt | MND = 4
C         3.85204119178059    3.56924673065052    4.00035077054483
C         5.12659662505045    3.38786543387084    3.64930599144182
C         6.21882221597740    3.06622742683479    4.63551373445689
C         3.04085381229872    1.58933849614819    5.73064769531786
C         2.43630873391156    0.83765915604670    6.65207439599188
C         1.63464699342240    1.41283931936340    7.78993298053192
C         1.42929966740021    3.86970740623899    5.46614899740177
C         0.87025827307900    4.92377095400901    6.17843088705729
H         1.49188531855591    5.50129411343171    6.84584805483862
C        -0.46997560430395    5.22281472137155    6.01819462420817
H        -0.90610649308916    6.04045916724068    6.57091695325112
C        -1.24877257873031    4.47344568787253    5.15160172097825
H        -2.29492345140367    4.70802879812607    5.02731168524432
C        -0.69111722422318    3.42023358511823    4.44348617690650
H        -1.29931314261687    2.83738360756793    3.76906807849505
C         0.64555145256790    3.10778742990352    4.60123140952405
H         1.07616370268509    2.28399739609930    4.04788736805283
F         2.95724656892514    3.89016019067250    3.06754075459753
F         5.56227699697928    3.53142956048031    2.39393592634973
F         5.75559982236912    2.32753227167915    5.66338150587395
F         6.73424711186180    4.16837714493340    5.19835146107202
F         7.22175202689511    2.39683889926664    4.08674924839352
F         3.67969212593801    0.97041360065558    4.72839400955070
F         2.42370453112112   -0.49818617799132    6.60497795916162
F         0.32007609692533    1.42750446295306    7.51373361006499
F         1.79003361463008    0.74500811355139    8.92304697003240
F         1.98282777440909    2.68913807665717    8.00995238231445
P         3.17134388590077    3.45169023455223    5.70951574894917
Cl        4.96068846595825    3.09990895273685    8.97832826852944
Pt        4.41872802432924    4.57268804610286    7.25924399492582
C         4.98823311375175    5.57771009623841   10.51674055779776
C         3.71341448991216    5.76005312563862   10.86635942404195
C         2.62324928247358    6.07948413497851    9.87715575796115
C         5.80288356539577    7.55445933289313    8.78468354848076
C         6.40748516638646    8.30404044488020    7.86160431022293
C         7.20533614186777    7.72611363431605    6.72245243686675
C         7.40950025724970    5.27126417185060    9.04873461766197
C         7.96621436659277    4.21716825448923    8.33465076386770
H         7.34290861719827    3.64121095630930    7.66741172660550
C         9.30627234625577    3.91623221950631    8.49279324454821
H         9.74062506581761    3.09859177025934    7.93866594977019
C        10.08716774084085    4.66369222483348    9.35916215985668
H        11.13315449027182    4.42756412421532    9.48191178690283
C         9.53183786937296    5.71693302786849   10.06905415780797
H        10.14168115087345    6.29828000606729   10.74328737627528
C         8.19537896464256    6.03136608313263    9.91333134242078
H         7.76668729998203    6.85538766751945   10.46780609021983
F         5.88274791798242    5.25876051144917   11.45040599402634
F         3.27598901236718    5.61948811932487   12.12138153060141
F         3.08590214737217    6.82574501090469    8.85458474470937
F         2.11760903593078    4.97639761493870    9.30656940750710
F         1.61360227484967    6.73943414952370   10.42469812291327
F         5.16758391844451    8.17553801536970    9.78783999527642
F         6.42368474275828    9.63987572576709    7.90793613154650
F         8.52045934267637    7.70930411535626    6.99564159065694
F         7.04854117222336    8.39283910972349    5.58888941781389
F         6.85414249051198    6.45021104919934    6.50480232079213
P         5.66797693147146    5.69234638733645    8.80704711225484
Cl        3.87669454592180    6.04500610996628    5.54029501653491

