21
CSD_code = AHOGUB | q = 1 | S = 0 | Stoichiometry = C8H6AuCl2N4(1+) | MND = 4
Au        6.24665935363590   12.89381884310615   11.71388296573995
Cl        5.48912449913987   12.23047382742398   13.70570607354057
Cl        6.62322785394835   14.93268925779251   12.53915867029008
N         6.22064258618569    9.99148485621807    8.70788709456857
N         5.95753152181425   11.05000712338841   10.78007621525039
C         6.31875827225126   11.04273248091824    9.48343394085883
N         6.92087590224026   13.34246565885268    9.79060267758516
N         7.21831048978851   12.36224807860383    7.68483830889024
C         7.69119114015810   13.50483307435559    7.21716004215863
H         7.98249922320040   13.50258208661233    6.17513593505487
C         5.74042742847648    8.86992172047516    9.21716605638542
H         5.67959009387517    8.03160808444171    8.53581789260555
C         7.39283501324395   14.50123889572156    9.34390997485373
H         7.43399660835785   15.31214775960133   10.06088881657680
C         5.47244958874791    9.93467640211448   11.31466139993724
H         5.19455931358711    9.98404311877066   12.36041830571469
C         5.34117942967345    8.78507650060592   10.54857395940806
H         4.94778974578776    7.87622093178241   10.97422851926254
C         6.84824799456202   12.30173657449044    8.94005873603798
C         7.80255853253709   14.63383933462708    8.02473237826869
H         8.18664540879216   15.57035539009424    7.65416203700588

