47
CSD_code = AHOGOU | q = 1 | S = 0 | Stoichiometry = C24H16AuCl2S4(1+) | MND = 4
Au       12.98535722806882    6.46557362059931    7.27258403119054
S        11.68108402958940    7.73998695574225    9.35434467483099
S        14.78952246242282    8.03488280504357    8.66430077995217
Cl       12.51567752185399    8.22922208974098    5.89841204521472
C        12.91666630785738    7.22732063733112   10.51606660200242
C        14.26926143085686    7.35570981263866   10.21585081722048
C        15.22750146498760    6.89486970517533   11.10836862859730
H        16.27174261762304    6.99307067766165   10.85775172316465
C        14.82861506327429    6.31211809954875   12.29602524967312
H        15.57328049385687    5.95164381736639   12.98783526230804
C        13.47870962124628    6.18393012661765   12.59564870322143
H        13.17093997146114    5.72344891413228   13.52101254188617
C        12.52103292553371    6.63792642314600   11.70907294042390
H        11.46907187583019    6.53703217527259   11.92370690313293
C        13.71164844492331    9.43940377409502    8.59413975962489
C        12.35909823672615    9.31102299073422    8.89445249257100
C        11.51294839069884   10.40544817475085    8.77823524204157
H        10.46535596374162   10.28815226276773    9.00559415318867
C        12.02394362304320   11.62150396209887    8.36674893586580
H        11.36605286229969   12.47102992057657    8.27428196016157
C        13.37383783653614   11.74958707523411    8.06695238939927
H        13.76807040953978   12.69890360666479    7.74070426816561
C        14.21942756973010   10.66233784662261    8.17723481445722
H        15.26794496238160   10.74426626833256    7.93903693443961
S        14.29045501504535    5.19146380823723    5.19120553660391
S        11.18166603377513    4.89575934385581    5.88040608176093
Cl       13.45447938242847    4.70205451311475    8.64719993535492
C        13.05499038371297    5.70401289834966    4.02933290855193
C        11.70231430093225    5.57528202471809    4.32911837433981
C        10.74422953733006    6.03587852271074    3.43632585520901
H         9.69993851002032    5.93742958759971    3.68664770680270
C        11.14333387141929    6.61878714055844    2.24882159503170
H        10.39879010875586    6.97920015975978    1.55685080601779
C        12.49329711189916    6.74735337027875    1.94962690204361
H        12.80122635097101    7.20808575360695    1.02444741610596
C        13.45081587757558    6.29355617752937    2.83645865174513
H        14.50281936258814    6.39475700728946    2.62217045329326
C        12.25997390103025    3.49157359170519    5.95089971984516
C        13.61260098971296    3.62033967188105    5.65098593808387
C        14.45896606866863    2.52608647650241    5.76732579420867
H        15.50660291798497    2.64369030475452    5.54031596635217
C        13.94815571116155    1.30987154591713    6.17853644824568
H        14.60625874055323    0.46053460195933    6.27123902123328
C        12.59819928896017    1.18141447135709    6.47789429951035
H        12.20412535222992    0.23197996260321    6.80400633116821
C        11.75236985875191    2.26845870855566    6.36747483764009
H        10.70380001039347    2.18623861527405    6.60534756813828

