26
CSD_code = AHOHUB | q = 0 | S = 0 | Stoichiometry = C11H9Cl2N3Pd | MND = 4
Pd       12.63038468245910    3.08233059060407    1.40377721035566
Cl       11.78564322473359    4.89858474958535    0.43277633416590
Cl       14.14131303633263    4.33205878579317    2.42124483401878
N        11.36291809457352    1.84880683518681    0.71490121662448
N        11.70806712663085    0.60517961736684    0.65237393346443
N        13.53831318841084    1.31630006649240    1.88972008211615
C        14.66814525761387    1.04927530686658    2.54020694984289
H        15.12740545675635    1.88766409713477    3.05120972879123
C        15.22389246851355   -0.21534946456457    2.55786653868387
H        16.14342810616278   -0.39057659390902    3.09143531875609
C        14.58201207216485   -1.25035432059295    1.87711053935303
H        15.00212607419649   -2.24438964135346    1.87659927604783
C        13.40914773209640   -0.98933692011237    1.20707299746000
H        12.86886187603879   -1.74758864880880    0.66555280300579
C        12.89701583045263    0.31660863680930    1.22476654367399
C        10.07173931586710    2.14996802278485    0.30196771606581
C         9.36881668682984    3.15699612755732    0.97319045187187
H         9.82019959417725    3.63510306140431    1.83960019599491
C         8.09779502219286    3.49464854454224    0.55216626571018
H         7.55443023006535    4.27192472573860    1.06661042404645
C         7.52276108959209    2.84317108045159   -0.52868842282799
H         6.53527771722559    3.12292351497527   -0.86287199219925
C         8.21059133897705    1.82829804872186   -1.17880770163635
H         7.75829599796022    1.31930765472346   -2.01644019160992
C         9.47612764861864    1.46932010617973   -0.76343792431242
H        10.03699113135555    0.69502601642630   -1.26400312746317

