39
CSD_code = AHOMAN | q = 0 | S = 0 | Stoichiometry = C14H16ClF6IrO | MND = 8
Ir        1.93177359891571    3.58153806827184    7.29446348772590
Cl        2.92351523464926    2.04085891123753    5.79534769064974
F         0.06552115648682    1.51050236840114    7.90976517612496
F         0.76388302784007    3.30638851879223   10.25689362234333
F         2.37787957645549    1.89413458302307   10.50126447643595
O         4.47614743504357    3.65057733644967    8.90109411447737
C         1.31004414621560    1.86641806295233    8.39941934114409
H         1.94183167954609    0.97498060518804    8.25610244050516
F         0.37171206368297   -0.18543810597540   10.17755564901965
F        -1.08875283241250    1.39476687913385   10.31005385738694
C         0.24035240923432    4.09639619144634    5.93116712390480
C        -0.52755431303181    3.19970596432372    5.01478914032059
H        -1.19691341258813    3.79105300452643    4.38737194008340
H        -1.12271228048753    2.48682294845530    5.57988055136595
H         0.14992503463527    2.64543079065210    4.36910664882458
C         1.38091224915565    4.88968811568178    5.52177294463809
C         1.72915721956155    5.74725327652955    6.59415438537020
C         3.48976928746846    3.61327616262758    8.32794497004938
C         0.80115840258062    5.49810276693807    7.67407064092764
C        -0.16692272482498    4.53975664515306    7.21148440988248
C         1.95554874205293    4.87616227963883    4.14741476113075
H         1.18858855514398    5.16852720081895    3.42941549011621
H         2.29642439711331    3.87441098004205    3.88578494124687
H         2.79576513935165    5.55958451394632    4.06259479586383
C         1.16960174116232    2.05097918011516    9.91264773055422
C         0.17191222143932    1.06552860555456   10.58545881170494
C         2.73560401532211    6.85425945230920    6.55702229305442
H         2.26168353170104    7.76630005995976    6.18975100964842
H         3.56512858983682    6.61028037113818    5.89795124746163
H         3.13543501827266    7.05591602657556    7.54786135876149
C         0.65197399335336    6.33823241403850    8.89908349454265
H        -0.07829458329210    7.12718873728507    8.71077794421401
H         1.59452304561732    6.80311242921154    9.17526093175625
H         0.30155765096965    5.74516527478132    9.73951907966672
C        -1.43638410814286    4.19221006955010    7.91146372519522
H        -2.21714085531033    4.88574253796364    7.59394660286314
H        -1.32911053358458    4.27284071835374    8.98989397128144
H        -1.76056724191930    3.18356259359237    7.66959595811333
F         0.30312372276563    1.08008346130794   11.91185324165486

