48
CSD_code = AHONIV | q = 0 | S = 0 | Stoichiometry = C15H27Cl2NPdS2 | MND = 4
Pd        0.79134353029375    6.14533097614660   -0.09518220435086
Cl       -1.29771520154134    5.75564062807594   -0.78532382271465
Cl        0.90884299371196    7.86105247435231   -1.52244304707803
S         2.98934275802516    6.68568288218006    0.66244118885214
S         0.56625600132382    4.36360712132519    1.47441422107780
N         3.43115126097759    4.87395197350083    4.14305543843950
C         2.48941261386157    8.31469429529957    1.32602652805646
H         2.42419019589580    8.97723025286776    0.46568549585864
H         3.24457266403307    8.65954116693187    2.02700820091594
H         1.51051077853425    8.23940110380572    1.80639508320043
C        -0.76324582060779    5.19537196700160    2.41496845535431
H        -1.67145956860426    5.04890829088926    1.83444532228904
H        -0.55068446672410    6.26396585746170    2.50011836119543
H        -0.84766594808365    4.73298271140039    3.39445841757509
C         1.94356637816646    4.79944267036069    2.50256134761392
C         2.93833847668665    5.75084903394054    2.16868569505486
C         3.83905531212279    5.76533537763375    3.20684431033007
H         4.73172793731399    6.34535758012545    3.32732681941824
C         2.28571882144546    4.28018314178165    3.72855797557232
H         1.79018233258937    3.53263238674946    4.31457572665154
C         4.06060715090108    4.66964290072734    5.42244506474705
H         5.14091851601169    4.78587825450224    5.30234935717345
H         3.85656180993566    3.64792271927752    5.75203573198481
C         3.54329274938217    5.66675001054431    6.46433261274654
H         2.46397508933812    5.54123257366965    6.57497562862828
H         3.72441892253164    6.68274502149326    6.10643397315992
C         4.22678045828554    5.47181448279855    7.81498059996777
H         4.03273815116629    4.46024092382265    8.17851258618303
H         5.30444631107063    5.57954152002314    7.68516686987622
C         3.72779231777330    6.48324007193472    8.84471092820793
H         3.96900004582839    7.49264164114673    8.50815210778185
H         2.63891412722822    6.41300579208041    8.90740864994753
C         4.30052293103781    6.25530376387839   10.24453538491296
H         3.85110441445952    6.98672289062197   10.92024951683906
H         4.00077121650831    5.26249338004807   10.58926256180433
C         5.82283669939932    6.36554947827518   10.34794440984375
H         6.29442793233824    5.59560501987198    9.73429611465953
H         6.10419585111378    6.16669054313863   11.38506116015214
C         6.36545226801293    7.73644535455886    9.95002409969647
H         5.83304580314306    8.51074162479267   10.50734000239116
H         6.19098024819802    7.91189176099094    8.88673440966080
C         7.86224643516926    7.85685892149472   10.22776257728442
H         8.04468531014034    7.70813027731089   11.29432611930166
H         8.39354420574586    7.06782876515759    9.68985428296601
C         8.41033229665341    9.21485080616907    9.80656031367706
H         9.47491325505968    9.28061032847883   10.01758508710975
H         7.90414780106319   10.01379638487432   10.34402562579996
H         8.26200663306986    9.37346289643689    8.74041471014326

