73
CSD_code = AHOPIX | q = 0 | S = 0 | Stoichiometry = C24H40Br2N4O2Pd | MND = 4
Pd        0.52879734386200    4.09206182609200    7.02223952972143
Br        1.95963447455513    2.07381721107537    7.15694212487059
Br       -0.77466398827887    6.16260300477838    7.16702763325034
N         2.10603604575274    5.25542887866676    7.55120060509441
N         2.19328660199467    5.65101114667642    8.81285058627152
C         1.49284903827224    4.86123940436931    9.80086316350325
H         1.57676776494766    3.79787448803273    9.55426307933069
H         0.43090649761719    5.13648781557139    9.86752194738652
H         1.96670948460166    5.02604711173819   10.76793881360090
C         2.43317362633031    7.03133095637012    9.16737059558856
H         2.18491888570646    7.68260562466546    8.32792453102430
H         3.47005533934159    7.19370446136831    9.47411108859269
H         1.77907051136090    7.29570463583488    9.99753568307875
C         2.84628823652362    5.73580233419795    6.59852886805869
C         4.06485981223212    6.62820647293243    6.58962050173240
H         4.18446633078022    7.33321102027143    7.40473299016741
C         5.24259310445323    5.63793739708595    6.46087560728861
H         5.16613744001803    4.83635521741370    7.19601381654563
H         6.19159633825007    6.14824003718878    6.62097597455060
C         5.10318877269133    5.11372581477728    5.02087083130506
H         4.92638851783430    4.03844354765728    4.99202006568032
H         5.98678948344875    5.32166799323195    4.41862146353731
C         3.88066398913569    5.88365178278961    4.46454338315820
C         2.72759527183551    5.25529805608928    5.22187564676428
C         3.97222051449609    7.25307113581677    5.18075712314397
C         3.73893562838073    5.84735717378598    2.95859480009281
H         4.61675577322165    6.27578966526830    2.48074275710309
H         2.85790548312026    6.40264487890422    2.64572212681343
H         3.62702582694791    4.81734453218630    2.62753884910635
C         2.71363124064715    8.10528223913706    5.01042813818960
H         1.80775995926973    7.55496945113947    5.25831483975364
H         2.62723382991898    8.45159388984866    3.98335868057157
H         2.76529156617755    8.98010008258036    5.65654577586942
C         5.18010635851643    8.09898257069193    4.79419880143720
H         6.11020490284672    7.54286863637876    4.83498426405029
H         5.26125279685629    8.95079850896302    5.46687087570139
H         5.05463083263330    8.47902041987368    3.78302339737340
O         1.89142214425480    4.48927079714653    4.77496164840100
C        -0.37714662696997    1.83854026112383    4.29751875124927
H        -0.34781973909546    0.90677746682076    4.85627919828665
H         0.65129009597571    2.19257180462202    4.14731097106605
H        -0.84245781977506    1.66161365829939    3.32939011667288
C        -1.19299177849229    4.11703911335772    4.33523963125350
H        -1.88824572492026    4.77606255531461    4.85575716144693
H        -1.56179696787711    3.95016115376242    3.32453003366256
H        -0.20131376957488    4.58998719086755    4.27579665019087
N        -1.16309729214400    2.83209340767854    5.01057681327440
N        -0.91516437073218    2.92622468442968    6.35373916113421
C        -1.35057747942321    1.99689925882941    7.13597106455700
C        -1.27109158772054    2.10675382813360    8.59729183471076
C        -2.03471881693778    0.90790813667041    9.12070843607134
C        -1.07433317320430   -0.26280783296157    8.79388137608600
H        -0.06009535854614   -0.03477493623145    9.12123357127874
H        -1.39625476841285   -1.16724415588393    9.30846095353141
C        -1.15606676635666   -0.40079533928254    7.26222589372555
H        -1.55337657578664   -1.36728809396320    6.95522858483945
H        -0.17371492071200   -0.27970936817142    6.80561526808424
C        -2.11677469529564    0.73713014702918    6.86085073113402
H        -2.54030773477487    0.66008146661243    5.86165450575550
C        -3.12905522841931    0.76682296131799    8.03086817627605
C        -3.98432906319217   -0.49010055160190    8.14211475081628
H        -4.59900130205414   -0.59345624921729    7.25007403424273
H        -4.64656299410654   -0.40921541594003    9.00098446538130
H        -3.39171610645676   -1.39105436143880    8.25430046559173
C        -4.06047517369060    1.97726855665835    7.95747823174356
H        -3.50819689073026    2.91460263155749    7.93542692457099
H        -4.72386836061294    1.99620304946195    8.81907314312461
H        -4.67283868209750    1.92208879063134    7.05926076618326
C        -2.45045365115518    1.00433297802928   10.57207497682363
H        -2.96613392574562    0.09962452760343   10.88499793854210
H        -3.10660234531137    1.85805086661168   10.72287670149787
H        -1.56946675268313    1.13949155970502   11.19514914529841
O        -0.71192943351140    2.98686602897640    9.22024896418290

