39
CSD_code = AHOQIY | q = 0 | S = 0 | Stoichiometry = C14H18N4S2Zn | MND = 4
Zn        3.88553297798071    0.01712412043041    9.52896151028978
S         1.55567981611960    0.14401934017840    9.52188149383535
C         3.13175115496881   -1.12080502384423    5.94039495771780
C         2.81291044410051   -1.44767408651729    4.61739699344299
H         3.51887796874760   -1.67024871007406    3.84126101752762
C         0.93086665896177   -1.08993649738080    5.75138025468021
H        -0.08543921091607   -0.97545635292440    6.07420653612115
C         1.42770945006128   -1.42439222143273    4.50396565791460
H         0.85026352878478   -1.62733595925821    3.62433602152213
C         4.43782741024081   -1.03293856350755    6.47538533080747
H         5.21824387169473   -1.28738291782261    5.74928367452430
N         4.78341074106800   -0.69125429324850    7.66278318945932
N         1.95138491028243   -0.90775366780686    6.59901732307318
S         5.71219623859278   -0.79029425209177   10.73541654298674
N         4.01867904139304    2.12030841597152    8.93714279710264
C         1.58882167442562    1.92384320385339    9.14013196729646
H         0.65071987573993    2.14725746204084    8.63165014456116
H         1.62152030651457    2.46649806446200   10.08624440131116
C         2.76465990833925    2.32879685925249    8.25907156200625
H         2.75726979578850    1.71681634027163    7.34933266429066
H         2.64186776141204    3.38315167191361    7.97100957576251
C         6.18888299419429   -0.69502570582712    7.97976488141100
H         6.50955627086633    0.34081599240695    8.14227479580216
H         6.77910069391692   -1.11715461292283    7.15321386841455
C         6.46667010220604   -1.50499599721216    9.24056877736738
H         7.54019108690871   -1.54463431952161    9.42629294520501
H         6.08479448894219   -2.52100194654162    9.12838586336084
C         4.84033966469822    3.10427312122100    8.98965393459362
H         4.56996016129093    4.04662934931591    8.49992037273799
C         6.11084020687925    3.14483802568533    9.60930647886539
C         6.99264853491445    4.23152497541192    9.59145723052801
H         6.81803505210651    5.16982000885040    9.10216187725109
C         8.12172130187584    3.86466417373558   10.31452275722329
H         8.99165922652812    4.46313339042811   10.49729666612455
C         7.90772210478210    2.57213252481817   10.75984069058781
H         8.53938375689913    1.94037407953330   11.35319041478522
N         6.71061105360507    2.15042181029931   10.33306436552784
H         6.31400310152811    1.22235221936784   10.53526996333439
H         1.84622587356024   -0.65781002151461    7.59206050064938

