61
CSD_code = AHOQEU | q = 0 | S = 0 | Stoichiometry = C25H31ClIrN3 | MND = 6
C        11.26747863293170   11.53028281114217    0.35459466219418
C        11.67942510249093   11.59591345683620   -1.84050830122715
H        11.61167164100024   11.96081582479023   -2.84472687671483
C        12.37621564260121   10.55706680295298   -1.32528868139387
H        13.03054005505115    9.85236662150988   -1.79656786880971
C        12.66591235443128    9.59243165919522    0.95455592506488
H        12.73675564671618   10.07831081746136    1.93397714798509
H        13.67976249718564    9.32294786182234    0.64178096328513
C        11.83724568963919    8.34308849795247    1.10195615670736
C        10.96523945411693    7.90405883132732    0.13936141254076
H        10.84661907305251    8.46152469913182   -0.77868688604142
C        10.20289954333590    6.74027636089327    0.32301503810390
H         9.52589085463213    6.42856414319189   -0.45851169289226
C        10.31054564403557    6.01109972776601    1.47339414442341
H         9.72443682588033    5.11562212180207    1.62195502629581
C        11.19380535619009    6.42437586496482    2.49004752659925
C        11.35140222557778    5.72801973067153    3.70713158564755
H        10.77566379512268    4.82884264875108    3.87917363863971
C        12.22717853629352    6.20326150601904    4.64443375420288
H        12.37363664257384    5.69850544655183    5.58675499496454
C        12.94294964237610    7.37961438661058    4.35649941183165
H        13.63914101840854    7.78737366053112    5.07843479971581
C        11.96902285323392    7.60104802988420    2.30428427346793
C        10.23959516954497   13.39383535576167   -0.90623736148094
H         9.55757755164326   13.43243875116214   -0.05291917955658
H         9.66468832762979   13.36753929566070   -1.83579687599949
C        11.16438831712219   14.61378214771488   -0.86302070703333
H        11.80061332698725   14.51412856975351    0.01893068243912
H        11.80790826446342   14.61716548223092   -1.74568338326097
C        10.39562422301447   15.92957368822495   -0.77990236660654
H         9.72990692301130   15.90080452875777    0.08465955016370
H        11.11410754292624   16.73445771526415   -0.61548216055576
C         9.58851180756746   16.23683791127337   -2.03687377989112
H        10.23027521268134   16.21773409178685   -2.91539548619084
H         9.14047041048618   17.22518374156700   -1.96523145101586
H         8.78774301928519   15.51495807988300   -2.17755338375818
C         8.73509564758944   11.59567130858537    2.21562104578398
H         8.31849341418137   11.57813017237837    1.20962384231168
C         9.49315541666318   10.46639797554879    2.59096483607642
H         9.57947547890503    9.66807375755777    1.85431833057794
C         9.60797584337620    9.94887139681431    4.00729774445252
H         8.67423683068528    9.45183284385453    4.29495326513662
H        10.39112540782511    9.18799070466870    4.01666486250388
C         9.96322308647182   11.04383459336141    5.03060021449068
H        10.55382159765340   10.59629945113688    5.83244888882450
H         9.05637535723639   11.44726981698301    5.48442485021369
C        10.75058827556155   12.17544853365725    4.41046274270071
H        11.78795098848335   12.23986076322571    4.72798418433748
C        10.16747990914787   13.31440810147839    3.89152186577517
H        10.76433981603907   14.22337661382335    3.86293387268236
C         8.67814937382398   13.56114820997211    3.82302296441276
H         8.29816883167067   13.77848975979761    4.82732237117347
H         8.51211079748331   14.45437140109577    3.21685868928743
C         7.89853384052587   12.38445450929257    3.20597598817507
H         7.01498315892889   12.77661399418902    2.69782956580361
H         7.54441652117122   11.71149985427231    3.98842575455522
Cl       12.81371439677679   13.26885310723920    2.10945579139187
Ir       10.80319571839545   12.08159624090274    2.24556350241244
N        11.00149802827177   12.17587521993338   -0.80147170798186
N        12.11734983988505   10.53442626707524    0.01871608392492
N        12.82469360008139    8.04765453248425    3.24482619911289

