60
CSD_code = AHOXUQ | q = 1 | S = 0 | Stoichiometry = C21H30CoN6O2(1+) | MND = 6
C         5.79527107901939    0.64355301848851    1.92285617971893
H         6.10508363751818    0.30470852863553    0.93729485250595
H         5.93222247800582    1.71775201373653    2.03112592925838
C         2.70529232548564   -2.42969536113873    4.11073447713873
H         3.08134446699167   -3.06207274100479    3.31989088718897
C         1.75791862920690   -2.91877245350301    4.99384386771103
H         1.41500407604006   -3.93645199752465    4.90570682343142
C         1.26138886151831   -2.07593679379846    5.97422499626748
H         0.51689707596775   -2.41628957076619    6.67685212597834
C         1.74186895895886   -0.77803491467038    6.02824086045388
H         1.38242551418112   -0.08694643840138    6.77465529785479
C         2.69826250265662   -0.37101535349930    5.10946274558575
C         3.30247799007006    1.00271431478807    5.17853450230038
H         4.19386620536429    0.91893771566432    5.80798897909810
H         2.60692646891259    1.70102227273801    5.66158149008519
C         3.19566085753349    3.35741031743605    2.33046904845810
H         3.92232488260557    3.01634548832959    1.59765621846681
H         3.66343202469359    4.07769054101158    2.99887968156708
H         2.39204238291639    3.86156159872145    1.80180529920854
C         2.64002334910275    2.16773796283489    3.11706591941102
H         1.87926471355841    2.53898070539533    3.81958624139609
C         1.99394435248250    1.20567312907498    2.16607795017847
C         0.66140632567436    1.50374786552567    1.57542817659479
H         0.01616617394663    0.63180866181228    1.68262324073256
H         0.76747498302824    1.67605170312811    0.50425871130901
H         0.19833712104056    2.36851451347984    2.03913602270837
C         5.56546408126321   -1.62239205475027    6.62127810204610
H         4.60556346580133   -2.11264287882986    6.71616904815735
C         6.55681450707525   -1.78797725440282    7.57619115367730
H         6.39084547581855   -2.41630833822947    8.43572082748851
C         7.76038564822780   -1.12455158203681    7.39421190329574
H         8.55785045821572   -1.22241555862525    8.11452416371306
C         7.92875782004018   -0.33899195016766    6.26419382980354
H         8.85520353320042    0.18446555516234    6.08571625642533
C         6.87530925740362   -0.24255906007627    5.36463394447873
C         6.96941555204392    0.57353148048402    4.09786171357896
H         6.50376733612001    1.54914768974463    4.26053748049695
H         8.02211522527126    0.75016185066136    3.84678986271001
C         8.23673182571915   -1.17329019562702    1.83060439758398
H         8.71260886528183   -2.13475864612573    1.66457153544102
H         8.94453169390088   -0.53972527728991    2.35872983236613
H         8.02415334920932   -0.72677695247280    0.86304629905048
C         6.95607854893882   -1.37418035178408    2.64777460680548
H         7.22209499417213   -1.88228533563333    3.58457383547599
C         5.95035849182499   -2.21808002033278    1.92264984270128
C         6.34236269081485   -3.53359209545169    1.33446831065203
H         7.01057569679490   -4.06968909054705    2.00458478921618
H         6.84810414009330   -3.39418302495022    0.37945508118501
H         5.44674339931786   -4.12474349267941    1.15647842556328
N         3.17356514369505   -1.18582567427855    4.16404050192034
N         3.71917977710628    1.48299025922015    3.85608094544358
H         4.44641574741236    2.17875367225951    4.00666429167164
N         2.65728241402812    0.15694364510329    1.85860644061549
N         4.74756847051858   -1.77313903050469    1.86704270031236
N         6.29061907600127   -0.11126436230926    3.00364807283651
N         5.71748878497205   -0.86629199451173    5.54777610406385
O         2.06739149507159   -0.67950243751725    0.97877702584030
H         2.68095672932887   -1.50993230751190    0.95114117392692
O         3.80834272563514   -2.42982167500005    1.29263820822566
Co        4.33792614319965   -0.21826823748427    2.77153876862092

