66
CSD_code = AHOXOK | q = 0 | S = 0 | Stoichiometry = C23H39N3Ru | MND = 7
Ru        1.47977955162616    1.72303711543847    2.29529681677579
N         2.59683889189938    2.78867077017824    4.96817856182823
N         1.03589001090430   -0.96479179330696    3.69961983444165
N        -1.55196585784952    2.42602134055073    2.09449607596601
C         2.57538655921068    0.54408525994773    0.83598356785162
C         1.29838641901029    0.92828635606823    0.30433242119166
C         1.20460506107936    1.95512013113028   -0.82095416984178
C         1.08993201522739    3.39693742145819   -0.29840481834383
C         1.61576718479825    3.55819525401537    1.11736858439986
C         2.92856356446154    3.17731404552479    1.46975739069607
C         3.91358454227757    2.65538190381871    0.43106628899547
C         3.88257339732336    1.12837635148331    0.32455990984412
C         2.21307757187066    2.32668393882977    3.94520896196779
C         3.54912818201527    2.98602614747342    6.00058941924898
C         4.74395968106267    3.75433479651310    5.42286772300246
C         2.88099543781123    3.79619790383870    7.11608500562291
C         4.00055500242911    1.61858633729684    6.52767248248614
C         1.24715447463378    0.07500904703706    3.17856986443604
C         1.23511606437368   -2.16522323562415    4.41977141100041
C         1.90445229440462   -1.82786266679480    5.75720451246705
C         2.13208190780138   -3.09046668452260    3.58920695110447
C        -0.13427650420110   -2.81239436909495    4.65257740583274
C        -0.41659802697563    2.18862012780267    2.25116112108436
C        -2.92118424412878    2.66319030520735    1.86160893389501
C        -3.68989329520465    1.37892647101284    2.19140875773732
C        -3.37682696575140    3.81261449229899    2.76706273525287
C        -3.10293486603103    3.03439792242592    0.38555246935087
H         2.68462730177393   -0.53012350054951    1.03193360410882
H         0.60433028881623    0.09364667460042    0.15312194880859
H         2.07590863545026    1.85512072945075   -1.47616437652049
H         0.32617312858054    1.73174624523825   -1.43400589941265
H         1.62215826223096    4.09200644523784   -0.96388317818256
H         0.03817813497006    3.69702865020209   -0.30678317240249
H         1.22739178376212    4.45842145139740    1.60683304828583
H         3.40738922565890    3.80396159662623    2.22834466400070
H         3.68386700155023    3.11365306699957   -0.53520336002236
H         4.92087348350827    2.98219379473398    0.70491926567104
H         4.69631654668413    0.70987436773535    0.92410731862623
H         4.05104440796869    0.80201931341338   -0.71218703876719
H         5.49034909418074    3.92238135697373    6.19553326512478
H         5.19556414364938    3.18699065178850    4.61188751947420
H         4.41997728281490    4.71665289565230    5.03247208249410
H         3.58308980106119    3.96968055409965    7.92774535138453
H         2.54314237020423    4.75581617798633    6.73186212039743
H         2.01895176003386    3.25884509997748    7.50459489174380
H         3.14951510553968    1.06923861200469    6.92368252320866
H         4.44159637890746    1.03726416605383    5.72084684962327
H         4.73734212266299    1.74542274754847    7.31724751382934
H         2.05622457160847   -2.73348903153975    6.33928894383014
H         2.86669428618969   -1.35232457207992    5.58288504086612
H         1.27956408013601   -1.14246121008342    6.32537396440488
H         2.30025608995231   -4.02411387240383    4.12022230479500
H         1.66368883611320   -3.30892158167528    2.63221962078488
H         3.09081113846339   -2.61210282308256    3.40188534534049
H        -0.77435748021082   -2.14068028493623    5.21988311808925
H        -0.61572882160038   -3.02464659160279    3.70088181129291
H        -0.02136927085183   -3.74185093647272    5.20477184870335
H        -4.75357008708105    1.52727794357701    2.02217621331668
H        -3.34308332090392    0.56125568172219    1.56350834975063
H        -3.53285045112675    1.10293313005713    3.23176870239178
H        -3.22321068470280    3.55254960224368    3.81202458634378
H        -2.80692537509787    4.71341145885562    2.54988040997743
H        -4.43235211829617    4.01743161740121    2.60614759373675
H        -2.55556970027150    3.94583202571688    0.15423577807434
H        -2.72956751941786    2.23579744563552   -0.25188729907874
H        -4.15608848685408    3.19488621149672    0.16838050757915

