110
CSD_code = AHOYUT | q = 1 | S = 0 | Stoichiometry = C52H50FN2P4W(1+) | MND = 6
W        -1.35061189860305   11.52963922299444    3.74323195617816
P         0.22464086025430   12.98327761118991    4.90224602073819
P        -2.92933607106645   12.62479215288588    5.24946004181816
P        -2.91815960304303   10.02364230829815    2.61909971695941
P         0.22218116931719    9.80532570839397    3.04336145246732
N        -1.32603883115825   12.72687750626346    2.42436998687173
C        -4.09686593085674   11.65862153977417    6.25567561272130
C        -1.93133657050865   13.53898568341650    6.53226366374914
H        -2.56014860290820   14.24246072035883    7.08528029876475
H        -1.52897234816552   12.80658710760509    7.23966816974750
C        -0.77734845985406   14.25254531053638    5.83730721695954
H        -0.15423964163085   14.77962178456127    6.56646637903750
H        -1.16851622349972   14.96963338196330    5.10447099445105
C        -3.68556120452976   10.96659746766389    7.39099256226880
H        -2.66154603066307   11.03020812780171    7.72951825005871
C         1.47348928212822    9.27256822906644    4.24861136457060
C         1.39137383861892   12.45036050218798    6.19955748993787
C        -4.00804307150416   13.93415614307879    4.59193281742736
C        -4.73222106611795   14.78508299483825    5.42244966459498
H        -4.66507949277972   14.68409247317530    6.49664328099482
C        -4.97774346373344   15.00211348980923    2.66531190769885
H        -5.08441460710251   15.07443828377849    1.59282076675139
C        -5.67981276355150   15.86025734778304    3.49554802808168
H        -6.32915720481299   16.61139954344668    3.07262692337519
C        -4.14570915622368   14.04124937073663    3.21303668825594
H        -3.60955290127006   13.34120704513644    2.58367913041650
C        -4.58460133812570   10.17741104456761    8.08582394112429
H        -4.26111798494335    9.65145415280691    8.97187571857789
C        -3.88078828784756   10.85084217398261    1.32281889784453
C        -1.92332757922176    8.70065965741539    1.75145774503933
H        -2.56365517196802    7.85002022837698    1.49869213383072
H        -1.49136915474060    9.10352639617905    0.83002843323075
N        -1.23078750708175   13.59227274252459    1.41453424260681
H        -0.28616328327448   13.94878827281257    1.25667685732699
H        -1.92840949225915   14.33661129110297    1.41663821660008
C         1.24983092841001   14.01505509274574    3.81017814823223
C        -5.14199779916516    8.31953160294442    2.66073165467429
H        -5.22611060559995    8.53628340356235    1.60440839376650
C         2.21186036860875    7.96742190678927    6.12551898671055
H         2.03476149958976    7.17525678514093    6.83778890550035
C         3.45391719069215   12.64081694205093    7.41550631132419
H         4.40455251858964   13.12909536969230    7.57023359885210
C         1.02342443164131   11.37908492683516    7.00910001959788
H         0.09041982315153   10.86528133836308    6.83209540024427
C        -5.55971007243390   15.74646351864087    4.87234285034170
H        -6.11997205502521   16.40530997079435    5.51844119505582
C        -4.90659257825077    7.74328917187869    5.36272788383471
H        -4.80603522421486    7.51080368301809    6.41210922529893
C         1.86107700707143   10.95338209110112    8.02303502711069
H         1.56852379686973   10.12463289072383    8.65019735116855
C        -5.40797469820639   11.51301406685671    5.80593294542598
H        -5.72530458828694   12.03421729039221    4.91232685660982
C         2.61700941073450   13.07642456527055    6.40434313980188
H         2.91818770573389   13.89916819349627    5.77164189060701
C         1.54523809910773   15.35521132326607    4.04391773993871
H         1.17021787405500   15.85346798381007    4.92545366241409
C        -5.89296614382614   10.05801302349887    7.64770652641977
H        -6.59259881726327    9.44448575347621    8.19451882320788
C        -3.31374901908824   11.19441145178274    0.10015273858004
H        -2.31029639588121   10.87737114987660   -0.14322708017174
C         1.25036717082886    8.25893562639781    5.17325951525990
H         0.32682383777162    7.70020377606373    5.15972533406095
C         3.07662029912651   11.58444881638950    8.22832817396842
H         3.73288077968779   11.25028885659068    9.01741951293780
C        -4.03270916821219   11.94664669649273   -0.81206672293492
H        -3.58999022501760   12.20171946150983   -1.76318636786802
C        -4.02546944158089    8.63047968280727    4.76833233448919
H        -3.24572309635398    9.08742209916359    5.35806151653449
C        -5.31485726480467   12.37399603954046   -0.50868772752988
H        -5.87335723253294   12.95817210979251   -1.22418077334139
C        -4.14225630437707    8.92989096674689    3.41670827431702
C         2.82862710399762   15.43661075891762    2.01161991714861
H         3.44133643930037   15.99093754665840    1.31752661338806
C         2.53780321903172   14.10286527173388    1.77111465427834
H         2.92085108029839   13.61106689215875    0.88901917579783
C         1.75137058924873   13.39992115640530    2.66618400541656
H         1.50407447891257   12.35949596684062    2.48644699036652
C         3.39494171364944    8.68448572253115    6.16832455666897
H         4.14303279048765    8.45026874703465    6.91010704296361
C         2.65898278350414   10.00529288199415    4.31073251380760
H         2.83190343154756   10.80549810372974    3.60179330282303
C         2.33066501420404   16.05800275804308    3.14573794370236
H         2.55775414741138   17.09668287664921    3.33397841737992
C        -0.80837708766725    8.29253994708227    2.71230821569314
H        -0.18579047959249    7.49173673510226    2.29998860576441
H        -1.24884523900195    7.95752353246926    3.65799535683191
C         3.61711644232970    9.70656689200739    5.25893542471411
H         4.53569321793195   10.27282823262023    5.29264132938997
C        -6.02639229118410    7.44512585570851    3.26182023257458
H        -6.80452644074372    6.98113377479187    2.67442969815346
C        -6.30124012734854   10.72165648131540    6.50201054049718
H        -7.31735205553779   10.62134485414367    6.15127987459171
C        -5.91145214073870    7.15710564657962    4.61364717054360
H        -6.60258834782573    6.47030841008713    5.07809921777089
C        -5.87822324794478   12.05373006607764    0.71649214804135
H        -6.87415726202937   12.39188109833649    0.96054091358002
C        -5.16304846079540   11.30331098112603    1.63043012411859
H        -5.59621762781288   11.05726110553117    2.59111791979457
C         1.14453728318697    9.87070408701149    1.47639198889928
C         0.72192902442967   10.76894708194000    0.50192541745105
H        -0.10582007039328   11.43247923206156    0.72439062575144
C         2.20619023994302    9.01226919943834    1.21146431585781
H         2.53444447306267    8.31299165314934    1.96800601908030
C         1.35839181500621   10.81354259787545   -0.72578836323225
H         1.02797591691900   11.51165707804584   -1.48071162256831
C         2.42057337250301    9.96173989811054   -0.98352642191764
H         2.92130194530312    9.99709344235057   -1.93897259027259
C         2.84238503654159    9.06342307674614   -0.01564415584411
H         3.66870579494236    8.39938843695888   -0.21938095892998
F        -1.31594869394760   10.19055727653234    5.25585200431190

