95
CSD_code = AHUBOW | q = 1 | S = 0 | Stoichiometry = C40H48ClN2OP2Pt(1+) | MND = 4
Pt        2.49372751614046   10.14843252843805    8.62091131528158
Cl       -1.46418394003815   12.46230020647947    9.71283975372824
P         3.63508230499399   12.09838846872755    8.10077291720577
P         1.65188519076713    8.06218175902157    9.15575410875618
N         1.60063292230400   10.15432449225026    6.65218922626427
N        -3.94058727329193    9.49826306067995    1.66565864096242
O        -5.92340361703371    8.95623822353624    2.59565470063408
C         3.20798244560210   10.25379667271813   10.50795413728683
C         4.38448319976880    9.74998810091969   10.98018925014454
H         5.04918538062977    9.18787565605663   10.33576706479712
C         4.77125366860731    9.95437246688426   12.32586582864217
H         5.70997926740947    9.54070731974438   12.66354940651654
C         3.98553282309624   10.66188613701014   13.18317046859318
H         4.28874126239179   10.82166532523815   14.20673094126183
C         2.74827967634421   11.20103297444419   12.74815849700389
C         1.89975345773255   11.92619975517941   13.58164260414959
H         2.19041564631196   12.09568628620220   14.60841871489477
C         0.68354855990299   12.43783387151229   13.13345151610378
C        -0.18123999254796   13.17762170790765   13.97964698044133
H         0.12319081689354   13.35006567924068   15.00077069901513
C        -1.36763278911343   13.65956137259341   13.51859111772088
H        -2.02296812488566   14.22125696037111   14.16550397216273
C        -1.76785767327015   13.43544934336361   12.18468615522608
H        -2.71216294169658   13.82614212374200   11.83786379762500
C        -0.95831181990914   12.72891793915985   11.34926098829907
C         0.29069583070312   12.20268946315819   11.77563526292103
C         1.13596236573137   11.47972832895187   10.94594701656623
H         0.83269521557165   11.27796360142076    9.91695441967879
C         2.35828250101874   10.98107614510106   11.39092218952793
C         2.02965465132026    9.41698107301960    5.63023183913090
H         2.94486217818255    8.85992163639296    5.78686530289612
C         1.36356783294337    9.34870029536670    4.42306610609022
H         1.74495638815568    8.72826918826656    3.62759385298133
C         0.17958565733957   10.06703312780741    4.25038615120950
C        -0.24483566483979   10.85935444292372    5.31904081787426
H        -1.13016525748368   11.46898110913919    5.23195086273825
C         0.49086263552718   10.87437280835016    6.48626611363570
H         0.17923093740161   11.49230843945141    7.32047719908084
C        -0.55663806332559   10.02135707416218    2.98163329573005
C         0.12354612788129   10.28546374195574    1.80426723510458
H         1.17992262312190   10.50612492849030    1.83655008870013
C        -0.54950341096951   10.31160811117093    0.58780400797378
H        -0.00572381184840   10.53317813512173   -0.31700965335776
C        -1.90139060208127   10.06249077682851    0.53397937331770
H        -2.42818948390704   10.08714071036268   -0.40770248315471
C        -2.60522873581382    9.76611716645081    1.70586054940721
C        -1.93701120741483    9.73643416342296    2.94794225837359
C        -2.70228598620787    9.35522002605490    4.09786497157314
H        -2.19687003886367    9.26467794183386    5.04915570781535
C        -4.01812820722475    9.08897997296633    4.00940502179001
H        -4.60127835534038    8.79647092262301    4.86811638833596
C        -4.74046159927452    9.16581510761126    2.74779523462569
C         4.62650229101507   12.88788330669291    9.43710731725540
H         3.93702185737471   13.10145769236697   10.25882989043980
H         5.31496592526460   12.11949290193667    9.79910565792613
C         5.39458075022286   14.14536935498854    9.04979807124099
H         5.99738462066216   14.47014468880223    9.89489283102356
H         4.72475923613304   14.96012350663757    8.78817704555609
H         6.06640731642501   13.96501863098181    8.21404874662027
C         4.86599207244208   11.62252966469686    6.81731981445080
H         4.31829818703695   11.47207659097945    5.88189192924671
H         5.58730792523074   12.42577443802013    6.65533066502861
C         5.56427688314829   10.33159543020173    7.23307840067222
H         6.14935251452158    9.92172241480082    6.41282589418768
H         4.81814011548988    9.58984207266441    7.54293120587858
H         6.23239177072026   10.50892393609677    8.07240835861829
C         2.74783225339032   13.49750401422379    7.29491778785099
H         3.49129880027971   14.21472990906575    6.93709375425744
H         2.22670782655756   13.09814032049380    6.41947063712539
C         1.75490877924498   14.16907303652462    8.23672311144001
H         1.21286809270561   14.95509958823367    7.71544905913819
H         2.26344963844921   14.61447531103020    9.08832519738133
H         1.03172494214017   13.45139960844726    8.61815956791667
C         1.42711097629561    7.68726599665175   10.95015305924746
H         2.43160678146611    7.50049905822276   11.34150117401433
H         1.07592667441813    8.61151964317519   11.41798491274290
C         0.48643813789853    6.54676595476463   11.32602781845332
H         0.52631500842859    6.40239998720052   12.40375900325373
H         0.76205685653951    5.60915404302234   10.85394970482097
H        -0.54257485662576    6.77624899252547   11.06347929784402
C         2.86085801390167    6.82234140767419    8.51612984555978
H         2.87131236483926    6.94408918825549    7.42805453418640
H         3.83917973307536    7.13928324613280    8.89191886227238
C         2.63186612690082    5.35701447991776    8.86369770984898
H         3.37263347184993    4.74552932049543    8.35209805831009
H         1.64744545293846    5.02008140393438    8.54833266898344
H         2.74340906023092    5.18729131983736    9.93078454647863
C         0.05703294021554    7.58655130758021    8.36536668995579
H         0.21185141702157    7.58171655326967    7.28172235127895
H        -0.20730267972425    6.57207923209506    8.67057547137164
C        -1.05341960211880    8.56322163127014    8.73697704736306
H        -1.98268624789395    8.29155278024675    8.24038396988792
H        -0.79192209401813    9.57754739631814    8.44187624907652
H        -1.22928254929033    8.56571461020242    9.81000245090306
H        -4.41236727192121    9.53120915948783    0.76873769773739

