52
CSD_code = AHUDIR | q = 0 | S = 0 | Stoichiometry = C20H25N3O3Pd | MND = 4
Pd       -1.97386023838997   -3.86974749154111    7.20818360505335
C        -3.31879300808448   -3.80470751063945    8.80855255039203
C        -4.92442159883158   -2.85938884762428   10.03984812605991
H        -5.47888748954516   -2.06025875329595   10.48772441959969
C        -5.10094793230217   -4.20071445663787   10.09342489876994
H        -5.83529201779522   -4.78722262293546   10.60651562107832
C        -3.93910939283449   -6.17553353378500    9.09431815866562
H        -4.78500816929327   -6.69746171104179    9.54916181026167
H        -3.02121321838548   -6.51474488654295    9.58346152067887
C        -3.89661137675775   -6.52520660045601    7.59887216065260
H        -4.01985764866425   -7.61921604296884    7.50976148222424
H        -4.74867834456943   -6.04239508387548    7.10863973543824
C        -2.80576140004046   -6.35325860667608    5.47840789772043
H        -1.88522109590864   -6.04453941627113    4.97888370212432
H        -3.64086463188373   -5.77592801200038    5.07633223835458
H        -2.97922501187645   -7.41936525316281    5.26959624742227
C        -1.50666632138254   -6.81805317999022    7.43935481957643
H        -1.70831655243825   -7.89477365141743    7.53161219317066
H        -1.22083319754903   -6.41036478318193    8.41566424597967
H        -0.66380924037307   -6.68345624362756    6.75896980266332
C        -3.31922709109859   -1.36621004711941    8.86775876033811
C        -3.61575695953245   -0.86126260815834    7.59900224921926
C        -3.14489875480930    0.40087598861943    7.26498533886677
H        -3.36895487605525    0.80277058640244    6.28705745862077
C        -2.38271887249900    1.14677672177661    8.15270789040506
C        -2.07418803244708    0.60185536968653    9.39167919734878
H        -1.45401255753007    1.16180151701048   10.07598755693404
C        -2.52711724721993   -0.65326489271962    9.76843725173539
C        -4.37598061239256   -1.68420277037925    6.59984368815716
H        -4.65154444257635   -1.08357254699989    5.73723375184798
H        -5.27794120686219   -2.11015645486571    7.03897055664993
H        -3.73271002727606   -2.52165834461113    6.25470134198885
C        -2.10555540329694   -1.26240466185002   11.06677418096730
H        -2.91685872698198   -1.80444722847028   11.54842668728948
H        -1.73248337296724   -0.50201507418791   11.74701303510989
H        -1.29668724450760   -1.96520692695489   10.85834212139722
C        -1.86493992680685    2.50114092359799    7.77557406282089
H        -0.79179821877559    2.45125725297980    7.59152463180099
H        -2.02976160146016    3.21275760540403    8.58225501857597
H        -2.35065397763501    2.86957154300351    6.87559706557188
C         0.03449424533708   -3.02533538606265    7.99157871338913
C        -0.62690341938257   -2.28394120969612    6.91948260181600
H        -0.88217449551924   -1.23596447748122    6.99561113080949
C        -0.57498523160410   -3.09801090455547    5.78024644316565
H        -0.79919234707956   -2.83070340235174    4.75601572445626
C         0.15227284051221   -4.29398458339976    6.13612175347411
N        -3.83376833803008   -2.64146759544374    9.23997199970239
N        -4.11037154223579   -4.76308928838808    9.32775828925911
N        -2.67713628532846   -6.10455370829499    6.91309072277266
O         0.20223270329816   -2.73795000625259    9.15695912935076
O         0.58836877673896   -4.18293899676070    7.45178481028824
O         0.41673013293199   -5.27672970578805    5.47042159997725

