105
CSD_code = AHUJUI | q = 1 | S = 0 | Stoichiometry = C36H66CuP2(1+) | MND = 2
Cu        5.44490402167984    4.89879942288310    3.12707090012536
P         4.88916777718838    6.64094907218784    4.43264495399816
P         5.90479793622650    3.11441320948253    1.84160514816915
C         6.11556176570674    6.89432425345681    5.81241245391798
H         6.21557813299225    5.87788111025239    6.22651137758920
C         7.48245730008098    7.28196634098831    5.24437843737438
H         7.74068102493755    6.62462558196537    4.40614995721857
H         7.45329672377741    8.30779478863898    4.87364417448000
C         8.54280696778938    7.18482979479147    6.33844848930327
H         9.51477610863883    7.47514177813648    5.93662833471442
H         8.61877489246719    6.15075468943397    6.68268583166831
C         8.17233732929794    8.08774246938970    7.51179695386649
H         8.91847825288546    7.99201804155459    8.30109164468062
H         8.16948678875296    9.12876324024518    7.18163729142886
C         6.79397798571732    7.72521827385852    8.05727592184555
H         6.53289159312661    8.39460007411399    8.87804679543623
H         6.81533356567122    6.70667664792451    8.45214296513730
C         5.73304100259265    7.82788981071189    6.96073291918381
H         5.68398149528798    8.85938932084050    6.61615021772575
H         4.75850336084054    7.56260794131793    7.37317254076526
C         3.25789158350692    6.37691321937034    5.28705204504771
H         2.99284610894929    7.27065656869825    5.86260848503598
C         3.38596042867445    5.16802087019337    6.21994179502764
H         4.12356285919814    5.35972588754685    7.00049038645606
H         3.73344735063800    4.30808059969638    5.63480654219388
C         2.04870392436097    4.82859403937323    6.87314671523127
H         1.73029973696853    5.66498975383297    7.49877491508770
H         2.17072703614666    3.95723374646606    7.51850027894352
C         0.98563671273615    4.55467219949588    5.81647350880043
H         1.27228609998584    3.68047124661435    5.22669530000102
H         0.03154936148267    4.33425002147380    6.29563595905717
C         0.84112369293662    5.76337383441421    4.90004177236453
H         0.49815927515256    6.62072396781505    5.48272772438836
H         0.09471552774710    5.56388796602962    4.12945146741984
C         2.17412325538695    6.10486472303075    4.23902426495230
H         2.03295239083279    6.97438809295663    3.59470317449510
H         2.49374865547788    5.26725372704039    3.60744184251879
C         4.65593538097920    8.19865608877964    3.43810209829603
H         3.68128621708196    8.04726878499578    2.95228969994298
C         4.59976711249253    9.51757251303976    4.20380133183751
H         5.57578390071262    9.73732083404522    4.63831859383823
H         3.86353410221280    9.46435037477664    5.00841648362208
C         4.23381414059025   10.64573187476123    3.23972573742894
H         3.24005034589228   10.46488611493744    2.82419988251840
H         4.20060471619151   11.59161961810791    3.78199308105365
C         5.25281118615822   10.73284659329886    2.10690868301622
H         4.97026459149564   11.52799458890541    1.41648713730118
H         6.23318115107545   10.98270836719874    2.51836746948610
C         5.34115938801693    9.40628155383662    1.35760716930293
H         6.09332106005336    9.47228400246337    0.57005350522882
H         4.38013459557765    9.19121649932216    0.88475663251828
C         5.69882629093572    8.27512199620833    2.31878238815066
H         6.69068563582785    8.45900794959982    2.73462196475731
H         5.73329644179556    7.32033714590039    1.77983644832366
C         4.65105752595387    1.76186039490808    2.08450288222301
H         4.92587565073953    0.88860056847303    1.48297474395118
C         4.60858006130628    1.36912299202491    3.56464857738291
H         5.56225103373376    0.94023062751231    3.87709220558623
H         4.43178863160906    2.26935917829562    4.16565235713084
C         3.50270933709687    0.35200305015591    3.83459493122457
H         3.49048370885308    0.10302114375650    4.89694146581805
H         3.71317115427229   -0.56442660225049    3.27956901233396
C         2.14690315184147    0.90098469367227    3.40804612632478
H         1.90783035279173    1.78696381821865    4.00152060783918
H         1.36991384889906    0.15845723322848    3.59078424917535
C         2.17848277498082    1.26984036464564    1.93000132384942
H         2.35984260144988    0.37144638942358    1.33645206305504
H         1.21560992142784    1.68241358076346    1.62451636199013
C         3.27933540301091    2.28964252664850    1.65088582370209
H         3.06792020955148    3.21300038566533    2.20373311877612
H         3.27846583877138    2.53105797965901    0.58696014781121
C         5.81831060919655    3.52578182426123    0.02621205464934
H         4.85993820202768    4.06509958331295   -0.04684139601989
C         5.78013530883378    2.37301114317063   -0.97685417652564
H         6.73180226953672    1.84442392175188   -0.98966902981455
H         4.99877387383917    1.65615406743417   -0.72037564607779
C         5.51181636114091    2.93894793173973   -2.37198126894279
H         5.49207525320544    2.12330936047361   -3.09604011581037
H         4.53229331844109    3.42277509651574   -2.38862891799271
C         6.58512394634878    3.95133847049912   -2.76191275682320
H         6.36743691427782    4.35781259701635   -3.74998761766526
H         7.55422769711990    3.45051700820719   -2.81474136493235
C         6.65499126302286    5.08368890378789   -1.74108360350476
H         5.71077547328590    5.63331096145915   -1.73904737001740
H         7.44753642742478    5.78263646275386   -2.01276568616768
C         6.92036728683397    4.51918411855796   -0.34771985865351
H         7.88813785037727    4.01523272947269   -0.35211116857689
H         6.96176305436684    5.32959256714083    0.38902368852330
C         7.53664823302052    2.33428428900808    2.28437144245391
H         7.32345412484874    1.82248840364258    3.23403161104723
C         8.10576127822827    1.30458474670841    1.31226864182791
H         7.36145317726703    0.53927377268517    1.08257131165084
H         8.40089706198435    1.79341693190765    0.38284277301509
C         9.34282717005861    0.65646474921789    1.93300855503989
H         9.06056630145581    0.12780119655028    2.84624979561318
H         9.75730411733223   -0.07617821324446    1.23918726309064
C        10.39316171523839    1.71457717706255    2.25909981320193
H        10.72353198915517    2.19501582139330    1.33547673693326
H        11.26291140312714    1.24296982631829    2.71727425759421
C         9.82183544828893    2.76956237660436    3.20255279682110
H        10.57258916076633    3.53547644745682    3.40312623667873
H         9.55865374048895    2.30202667717530    4.15420273010723
C         8.57938182086259    3.41344269449393    2.59160905800955
H         8.15622763519909    4.14894207982785    3.28656254171403
H         8.86234502422680    3.94106472445372    1.67970087912294

