87
CSD_code = AHUKIZ | q = 0 | S = 0 | Stoichiometry = C38H44FeN2P2 | MND = 8
Fe        6.70988095358712    3.62530462921051   14.36558437644518
H         7.91811228239049    2.85866757280369   14.60653131013783
P         6.13587389188783    2.24789599414948   12.86325191833428
C         6.61526917360061    0.45022999435501   13.19740197795257
H         5.71346029660118   -0.16867257920505   13.08412504041515
H         7.33674183719916    0.13238803187409   12.44535453921095
N         7.12807621312761    0.24362189458966   14.52235587233615
C         6.12002743324784    0.48740664944548   15.51581715735267
H         6.45509372147539    0.16853410779081   16.50231403030728
H         5.23515704728849   -0.10460066841826   15.24672105217617
P         5.60708029399712    2.30255907155478   15.59686644412823
C         3.83574573481147    2.10272384591519   15.03601006025123
H         3.23692789894241    1.61883299979525   15.80924936007062
H         3.42781519622221    3.11069967067564   14.85918971533982
N         3.76718121418260    1.31239995290081   13.82289486580983
C         4.30308819142045    1.94494584044278   12.63975292359057
H         3.80059256778830    2.89755425605639   12.41060437918792
H         4.18584649925595    1.25803475597085   11.79611379937198
C         6.74174823837592    2.41912831607918   11.15844761561739
C         5.99288587601058    2.50297046664831    9.99186512747909
H         4.91428569067374    2.44748437587272   10.02137424269640
C         6.63380289440276    2.66692388501378    8.77410619631144
H         6.04951189082256    2.73244003578958    7.86725430949033
C         8.01425119626664    2.74723836251743    8.71282220437317
H         8.50450309139451    2.87029277249978    7.75828465395976
C         8.76556051558537    2.68586925712402    9.87794546241691
H         9.84191755860876    2.76687054253792    9.83122498924315
C         8.13004093699655    2.53710425737652   11.09357192622308
H         8.67329747027196    2.53329233859872   12.03037112831312
C         8.47988412712532    0.38897991747991   14.81195788845021
C         9.45097264851706    0.43324464362706   13.80449966314875
H         9.17398624234862    0.40891842470258   12.76392658037433
C        10.79561004355833    0.53217943375467   14.09806453300943
H        11.50654492394338    0.58243300335926   13.28513048226316
C        11.23879903660615    0.57127214837178   15.40740313032555
H        12.29018405195774    0.66163551002764   15.63413052697503
C        10.29837010439215    0.48839736976610   16.41720466593113
H        10.61295597231211    0.50265016779256   17.45154077828400
C         8.95185087472825    0.39026743570893   16.13029323271257
H         8.27425883546608    0.32345699281172   16.96539853055727
C         5.50617121576246    2.51021183484574   17.40128514270570
C         6.76452617541362    2.60035489541571   17.99621275353424
H         7.62789201256840    2.55429139256301   17.34435189033783
C         6.88541421388134    2.77137877625603   19.36009400246298
H         7.86224117957806    2.83392896838132   19.81703449858195
C         5.74460961387597    2.87853097403542   20.14292964884167
H         5.83136957915532    3.01853257225260   21.21036802714977
C         4.49309214276510    2.82091229876668   19.55427998945151
H         3.60591180300090    2.92040258440654   20.16331596466522
C         4.36760266862592    2.63813376150855   18.18631711498744
H         3.38236466117204    2.60349413980969   17.74369747632472
C         2.68212997158026    0.44240745429514   13.68063378751721
C         2.38547620409588   -0.46586272795189   14.70297312515206
H         2.97738301739509   -0.47399136206845   15.60701603261290
C         1.35339771464914   -1.37215545916657   14.57218256771335
H         1.15065023496753   -2.06362695556215   15.37705363823200
C         0.58894177185735   -1.40822032350702   13.41782259703069
H        -0.21530685787936   -2.12034960708022   13.31583912670394
C         0.87087745484186   -0.51658997137672   12.39888699223487
H         0.27792003828160   -0.52287693660004   11.49569404330676
C         1.89871367517631    0.39923538286436   12.52510155260162
H         2.07092228375574    1.09811050182261   11.72102378858068
C         7.26072072070457    5.32963114188072   13.25087299291376
C         5.85257484153808    5.34032009199209   13.53010437995445
C         5.68358162617754    5.36254006745097   14.93523539618635
C         6.98458569477130    5.34262575141518   15.53821255898725
C         7.94838245036169    5.34517374145108   14.49210402774411
C         7.87673621831689    5.58167236357491   11.91306791827396
H         8.00325846279971    6.65709720635143   11.76574778957275
H         7.25186138665865    5.20058767850686   11.10912153779453
H         8.85422588630946    5.11289885218786   11.83879867801957
C         4.79037300171276    5.51456627919661   12.49272447994635
H         3.81117557783640    5.24084241069689   12.88062263078444
H         5.00258544444049    4.90119662974734   11.61710680948964
H         4.74614293921801    6.55695377072849   12.17092391016429
C         4.40914511047401    5.57935846501485   15.68677371705271
H         4.37337172516790    6.60233843487236   16.06595540642683
H         4.33498507007073    4.90322278360614   16.53862155627726
H         3.54202234512822    5.42958620566983   15.04722065224931
C         7.27836395908709    5.59088794259034   16.98197380022681
H         8.17298628218273    5.05626787097646   17.29017814113567
H         6.45191403584940    5.27307672063675   17.61239631226619
H         7.44617191814678    6.65780217518291   17.14777436822104
C         9.42786957375506    5.42095508277044   14.67450463730862
H         9.74738790006734    6.46258914326171   14.74491950953552
H         9.93904898926945    4.95341331811580   13.83783015040679
H         9.72313539803337    4.90136800084038   15.58153818776597

