72
CSD_code = AHUXUY | q = 0 | S = 0 | Stoichiometry = C37H28IrN3OS2 | MND = 6
O        11.62915074856971   -0.28375387705510   -2.11740551585063
Ir       12.50737219971499    1.19949183420659   -0.76647232275994
S         8.55329465102767    0.13621147691802    1.03683269070621
S        16.90828318021829    1.90023056580795   -1.17041868141560
N        10.53963190242413    1.29569568404879   -0.14486084237523
N        14.47262891118555    1.04561950425345   -1.26489050502745
N        12.37542069099342    2.56305730883560   -2.48863117957137
C        10.98326376877226   -0.01666034153999   -3.16537371250141
C        10.14239986629694   -1.14264069851659   -3.74376657575715
H        10.21226036876478   -2.01756341760668   -3.10163557986404
H        10.49148115459786   -1.40104096762983   -4.74166061294466
H         9.10218703717615   -0.83069771101267   -3.81562149596746
C        10.98603582919472    1.17847896377122   -3.87666816071409
H        10.39792647520320    1.19123674055990   -4.78276871588930
C        11.72563063549109    2.33663714304646   -3.60401145094123
C        11.71865162454614    3.39171890799607   -4.68682335746743
H        11.83906875660265    4.38841033500952   -4.26498017995981
H        10.78994437401931    3.34978449157439   -5.25068199516186
H        12.54261717865328    3.21715845688125   -5.37858954189422
C        10.24247337249954    0.30213226198723    0.66554518010628
C         9.43073213133308    2.00612076554674   -0.52067984505509
C         9.38301345521401    3.13256205546426   -1.33996561540509
H        10.29630152443133    3.52505052946935   -1.75040237258516
C         8.16470642536695    3.71581971914488   -1.61271664888937
H         8.12512796617736    4.58592793993277   -2.25054857149185
C         6.98296479772139    3.20631900576063   -1.07906377411855
H         6.04186079885087    3.68146681384530   -1.30977398401226
C         7.00446187396797    2.10137021020335   -0.25140518350463
H         6.09896165400873    1.70078013698002    0.17618713474558
C         8.22752674969069    1.51338150103476    0.02286837902461
C        11.28619868585835   -0.52441465791559    1.18761162426438
C        11.07971899493667   -1.55256576373946    2.10812879926786
H        10.07821302376634   -1.77355138575072    2.45154688715299
C        12.16247735408410   -2.27248850523047    2.56241419484754
H        12.02476538169127   -3.07242270257385    3.27475990090572
C        13.43528941307082   -1.96359561740084    2.09773882960346
H        14.28350688932969   -2.52910629223717    2.45767266829300
C        13.63207109461280   -0.94595279444460    1.17854582060650
H        14.63850187187801   -0.74002795451884    0.84127467501033
C        12.56688008439720   -0.19442726997845    0.69395343178937
C        15.25055175972685    1.91767146090462   -0.65723601467178
C        16.51527454659023    0.62373524357737   -2.29159640316363
C        17.35126290045656   -0.02817337879019   -3.18220321667295
H        18.39291439972564    0.24247536001271   -3.25209313951106
C        16.81243549755848   -1.02776345291037   -3.96881299572762
H        17.44406019700170   -1.54829190883290   -4.67247946726458
C        15.46743025134605   -1.37671759306709   -3.85939562928265
H        15.07564523970320   -2.16966460784714   -4.47836910897042
C        14.63159897170454   -0.73079289722824   -2.97414520733526
H        13.59312446018260   -0.99716109875412   -2.86868618109787
C        15.15072687382958    0.29248956806229   -2.18376970010418
C        13.28961076567448    2.55117936593888    0.51286977254652
C        12.65947861403333    3.33810339750806    1.47258263149162
H        11.60084053415238    3.21625767166135    1.65819891242213
C        13.35845100168982    4.28949564255755    2.19700406428208
H        12.83856184890663    4.88899442224512    2.93136773888133
C        14.71846710978566    4.48900858211536    1.99306221421093
H        15.24718133179445    5.23931274450442    2.56186480940836
C        15.38641667997478    3.72343456923109    1.06304692610753
H        16.44408484091330    3.85703979570849    0.88332907143805
C        14.67759150056973    2.76576411203968    0.33965405274970
C        13.24772172661570    3.65651574900063   -2.39317284204889
C        14.45066113056937    3.65311112998462   -3.10176916029632
H        14.66432062332931    2.82978981909233   -3.77165730731828
C        15.37116477322991    4.66817681446660   -2.92892948213623
H        16.30527644657928    4.63963870396278   -3.47198450341104
C        15.10358881129863    5.71245936694533   -2.06035380203792
H        15.82664018008140    6.50209629911438   -1.92163535101697
C        13.90236368824191    5.73697485539166   -1.37166293063128
H        13.68248485365858    6.55121905773180   -0.69680888041182
C        12.98032605447096    4.72207839813642   -1.53383255204562
H        12.05383949026890    4.74099041241039   -0.98025011358132

