69
CSD_code = AJAFOH | q = 0 | S = 0 | Stoichiometry = C22H41NNiOP2S | MND = 4
Ni        2.23901317988484    3.91942004011535    3.54499635596177
S         0.27045518775287    2.85565266302344    3.04668399821211
P         4.14780416555421    4.88509217454313    3.90801377559791
P         3.14130963095958    2.75293302120341    1.90404045391125
N         2.02556835668665   -1.98000477343327    6.00760964060627
H         1.38994843779237   -2.75385328151280    5.88076327891627
O         4.01757553630572   -1.38565665501031    6.92491339875022
C         1.25385958959068    5.14793072243374    4.71636469270471
H         0.65908850956244    5.78637950007594    4.04866865543224
H         1.86943563255503    5.78814566022852    5.35750170040908
H         0.56799922330553    4.58227590514010    5.35501198518277
C         1.82754614230281    1.52418185622620    4.83586909649637
H         2.29451716311141    2.50628013526303    5.02393616212429
C         2.26119207819533    0.41574977266723    5.53192749493164
H         3.07875386467365    0.49109505192356    6.22974499302667
C         1.63803986456031   -0.81204904242105    5.33321353886101
C         0.56393977005205   -0.89332597234939    4.44600480241703
H         0.06397045622280   -1.84244193617233    4.30004200696869
C         0.13276663864938    0.21542992759688    3.75169874309929
H        -0.69704229292408    0.14404355199094    3.06496118329596
C         0.76790743724608    1.44631366755027    3.92788153291501
C         3.13973474380053   -2.20510668285389    6.74902639097197
C         3.19601087857427   -3.61853561361642    7.35925441717587
C         3.21824448194187   -4.66965519284398    6.24341732449153
H         3.35432959360200   -5.65969372834723    6.67441400374654
H         4.04301713278792   -4.47758948675509    5.56021729725095
H         2.29332361464394   -4.67997367344255    5.66961675841096
C         4.48051018107634   -3.73028841667752    8.18198584414300
H         4.55862477081917   -4.71698278879209    8.63244254381325
H         4.48857122579152   -2.98037375025478    8.96850124163777
H         5.34778495841577   -3.55960042273616    7.54964865664190
C         1.98735637413935   -3.83307846138440    8.27748740671748
H         2.07484224850869   -4.79344422808742    8.78199487027059
H         1.04793138230243   -3.82741464080643    7.72805876712472
H         1.94497981157606   -3.05177638860905    9.03336810250152
C         5.41366867547769    4.08007280249027    2.81100210756285
H         6.22527145274325    4.78448555490725    2.60211353594340
H         5.82652015792377    3.24636237945269    3.38652554358369
C         4.78243515243780    3.55327644301814    1.52607870572858
H         5.44631919322591    2.85114786259053    1.01420704726104
H         4.57992895974177    4.38313383057035    0.84452538875683
C         4.27302539420672    6.67427012945332    3.47871094530153
H         3.79155642955670    7.21903125558983    4.29545429090541
H         5.32517020418597    6.97161491556239    3.44100865229506
C         3.55460153526358    6.98455388898956    2.17245873329301
H         3.41771013597310    8.05693246909318    2.04817803931160
H         2.57287799652413    6.50621190609974    2.17777639859116
H         4.11826029023567    6.61411239994087    1.31889075526018
C         5.04513335690546    4.89267160011132    5.52142123130258
H         6.09450147684738    5.13388160048174    5.32535664308857
H         4.61857675236314    5.69346551831546    6.13093601754711
C         4.91955643884586    3.56599633861539    6.25952313328052
H         5.50378423182552    3.58170616858774    7.17739754835264
H         5.27144411262300    2.73721563167611    5.64779666102024
H         3.87942173487744    3.38197554275158    6.52049389431006
C         2.28172683142803    2.90996085841955    0.28113907852276
H         2.96905866899354    2.63845820951437   -0.52651518856203
H         1.45957947734946    2.18895472144193    0.30301550673124
C         1.71939128586068    4.31226102321889    0.08845507251336
H         1.04601753153645    4.34539424764602   -0.76540269002110
H         2.51159198461909    5.04052720677857   -0.07450283310508
H         1.15563223043408    4.60010500856371    0.97933936603019
C         3.54265916753450    0.95052327685324    1.84217946451950
H         2.60490267897642    0.42082705958588    2.03527142748220
H         3.86847096049415    0.71153955766974    0.82459064222086
C         4.59283582929264    0.52231049105957    2.85800628475545
H         4.70418050064142   -0.56041084690954    2.84988546624727
H         4.29723888791621    0.81907071190058    3.86203537694327
H         5.56224031321519    0.96168172230897    2.62976663829415

