52
CSD_code = AJALIH | q = 0 | S = 0 | Stoichiometry = C13H32Br2FeN2P2 | MND = 4
Fe        5.36105403608811    5.38605738478897    1.09802623288145
Br        3.24684754530882    4.84709794551842    1.46227080798855
Br        6.90650449287418    5.77114566995680    2.65957500023611
P         5.76908933362790    6.93966370733373   -0.33956437765762
P         6.02651148795235    3.96794784735297   -0.39093854723204
N         6.06752244783209    6.12906672934806   -1.81240291836456
N         6.69682392079248    4.85008607276848   -1.69678081400114
H         7.71037460760317    4.95409216536767   -1.57001052693042
C         7.21147581399542    8.12544820185155   -0.02344624040340
H         7.12353221984407    8.38572339335627    1.03859953736023
C         8.51257247192403    7.34269796175491   -0.20379159421690
H         9.35074381244348    7.91076481182625    0.19514127613587
H         8.70905517670738    7.15017155579348   -1.25787305134180
H         8.47060112474002    6.39590396231912    0.33405256943111
C         7.24434564389321    9.41330408551564   -0.84047131396635
H         8.15771937436931    9.95688358300420   -0.60072521091239
H         6.40435021621604   10.06274201848531   -0.60782798581591
H         7.24884428316746    9.20959070045566   -1.90890971662570
C         4.37464684424936    8.08566501186952   -0.78362168144631
H         4.74503009099255    8.85358921303962   -1.47113591831618
C         3.22741290042007    7.33096688481297   -1.44078432622832
H         2.41437673794609    8.01843542934458   -1.66701179756326
H         2.84394441638611    6.56398224843700   -0.77359443353120
H         3.54662969235848    6.85519080262327   -2.36405369985221
C         3.92530152232938    8.73691749230657    0.52311754544630
H         3.11372059595684    9.43960862691007    0.34318345567586
H         4.74344530207392    9.27182035826640    1.00424835396497
H         3.56242618198645    7.97417541893475    1.21290280331486
C         6.36391234489850    6.75322890511081   -3.08226806792563
H         6.01967417708108    6.09908814107865   -3.88746527526922
H         7.43627370701913    6.93207007111617   -3.22746196046220
H         5.83117261514093    7.69862535284652   -3.14700057986500
C         7.51556673421747    2.95146404905386    0.08956106051407
H         8.27029039441625    3.72179256716715    0.31433492558553
C         7.26018660482243    2.17854531517611    1.38004209498738
H         8.19964670831214    1.81120688399973    1.78862086289553
H         6.60659861256987    1.32685060151518    1.21324653089296
H         6.79809652261945    2.82320183975367    2.12705437833578
C         8.04001072037153    2.05228098475054   -1.02397386195437
H         9.02796393659961    1.67984587037039   -0.75743396275875
H         8.11773031077223    2.59422649937945   -1.96483860401134
H         7.38711759521623    1.19511489571552   -1.16888242869130
C         4.93106608536501    2.83021027416080   -1.38470417023182
H         5.59093665292389    2.38985050818308   -2.14229026101196
C         4.29238203622534    1.74066620910231   -0.53352612285605
H         3.55791281718356    1.19480076340866   -1.12349351539308
H         3.77772980631923    2.17542790664613    0.32095347194013
H         5.02922033157300    1.02780852014786   -0.17191455219523
C         3.86294274274530    3.65981945191088   -2.08814931229028
H         3.28765176827126    3.03003738456157   -2.76437883152187
H         4.31821523236023    4.46095111629583   -2.66358207962124
H         3.17859924889509    4.09244660521110   -1.36312316711876

