133
CSD_code = AJAWOZ | q = 0 | S = 0 | Stoichiometry = C42H85BN2P2Ru | MND = 6
C         5.10006245962327    0.26049452111786    5.22517974523516
H         4.12136127044548    0.29909746982942    5.70128507826637
H         5.86462629493628    0.21857442754460    6.00795333362609
H         5.16209015336842   -0.66457261912502    4.63970905144497
C         6.57429380061656    1.48004088631780    3.70973388492524
H         6.41414365028600    1.55806799062116    2.62683032065280
H         7.11526514033613    0.54839749665791    3.90136629686223
C         7.43750800553839    2.66779192331637    4.15004804794207
H         8.32627459328927    2.68509144174768    3.51688240611031
H         6.88419881721243    3.59368913486922    3.98862607201789
C         7.83146388113319    2.58612986143387    5.62313738912249
H         6.93309117655349    2.37778476425469    6.21055815693693
H         8.54017401311781    1.74831943982665    5.77204244752826
C         8.53382641656117    3.78093625239365    7.56826636797589
H         9.25400617301197    3.00973981189074    7.88554273719514
H         7.57254173874084    3.56668219259813    8.03349050836095
H         8.88466225722416    4.74753103493178    7.92773260346204
C         9.63258715185906    4.19258588351670    5.49984510749453
H        10.40918961243230    3.42514431741437    5.64772552533993
H         9.98681477741173    5.12990443537099    5.92656969214783
H         9.48509116494880    4.34009630233772    4.43265008718311
C         5.05499838446409    6.02789239117685    5.39831619045008
H         5.70110536984023    5.15790656591767    5.59737034620288
C         5.43313345120837    6.52916863731366    4.00431691355056
H         4.88917807191908    7.44371235292693    3.76912602958628
H         5.15045316026928    5.78334029324355    3.25461479582648
C         6.93153864157647    6.81419643756815    3.94573618038691
H         7.48897027331751    5.89682206498591    4.14670271011632
H         7.20526065336339    7.16749057817173    2.94864300698590
C         7.30966141545752    7.85885222162922    4.99187267048661
H         8.38672042285160    8.04061013197413    4.96638455546249
H         6.80691551600300    8.80176133684696    4.76233627305051
C         6.89487108258113    7.38663588571173    6.38209004899939
H         7.15223015683498    8.14491813149232    7.12620730646441
H         7.43911930602437    6.47134878880724    6.62497064465109
C         5.39341458270760    7.10318945560080    6.42728909016955
H         4.85230339298931    8.02172643027952    6.19469082085700
H         5.11376024326988    6.78668810849648    7.43347823315174
C         2.07306596350869    6.65259998266089    5.55861915302169
H         1.14304508320929    6.08368580138523    5.41112422467184
C         2.19426587605025    7.60486605225582    4.37014462308845
H         3.06273632957605    8.25332788987199    4.50028400662354
H         2.32478790971034    7.01411331518077    3.46028583613271
C         0.94820823647399    8.47802159560184    4.26340480657858
H         0.07477007941642    7.84266834674776    4.10533799559292
H         1.03562444268976    9.14884660343458    3.40586256599398
C         0.76825985300680    9.28822032526081    5.54332958905122
H        -0.13980602123676    9.89253537699651    5.48421431989759
H         1.61442749964707    9.96979995562031    5.66292071807149
C         0.69389314801105    8.35828201570777    6.74958244905033
H        -0.19212143168416    7.72532969804777    6.65995666725338
H         0.59420084232431    8.94526077352319    7.66637989428898
C         1.93606332415012    7.46936207912806    6.84453734783623
H         2.81351625426530    8.09938591310702    6.99454360726440
H         1.82619389328071    6.82657526693469    7.71819955398504
C         3.29824913010688    4.62249443362988    7.20342979912590
H         3.37934338632695    5.47108707969226    7.89108212249434
C         4.44583692357153    3.66024137207003    7.50212123798383
H         5.40093315867994    4.18372955967550    7.42703445149725
H         4.44334722387859    2.85215710306503    6.76510370748672
C         4.32027015306393    3.06343877800511    8.90293986073448
H         5.14288687001258    2.36471691875704    9.08152247348898
H         4.39815783967130    3.86288016372734    9.64481058400437
C         2.98355161730313    2.35085382121938    9.07249630599546
H         2.91917586061653    1.52238347238134    8.36245962453060
H         2.90565604044644    1.93492352600440   10.07976062940764
C         1.84200961868388    3.32763464073975    8.81471253812649
H         1.88007636530213    4.12932197380190    9.55743173058936
H         0.88157672079900    2.81877978071277    8.92245730513602
C         1.95491578484917    3.92367676223113    7.41489293982743
H         1.13847698790118    4.62906340249847    7.25014278422756
H         1.84825933888739    3.13155372844792    6.66589950404732
C         3.35508410892174    2.20817553301539    0.59570559667537
H         3.99967625133327    1.45674152392254    1.07802393667104
C         4.26370741190424    3.39981162334823    0.29254457136981
H         3.72680451937414    4.15663787079520   -0.27937226047779
H         4.58896765173672    3.86906884961968    1.22486528735247
C         5.46529246201566    2.93297017731431   -0.52538414983428
H         6.03973033039087    2.19836983451296    0.04672562780427
H         6.12418389538505    3.77833742203144   -0.73656955217774
C         4.99694085254180    2.30164753524560   -1.83429376262870
H         5.85542785906184    1.93699772294283   -2.40329874439916
H         4.49511204567353    3.06147443896873   -2.43788983203656
C         4.02702306581890    1.15412028232128   -1.56514609539652
H         4.55056724277478    0.35352736521071   -1.03488235668977
H         3.66740374164892    0.74425342152123   -2.51212347342902
C         2.84324869345810    1.63344452474700   -0.72433654912287
H         2.15419489893972    0.80381159054543   -0.55369189671774
H         2.30970830091513    2.40711023077916   -1.27909251119145
C         0.62600515415063    3.21369616978086    0.95309393951332
H         0.48918396032483    2.55128647445312    0.08794094458338
C        -0.66303672436063    3.22751343163960    1.77374801460511
H        -0.47888475374409    3.80755906186785    2.68171094916882
H        -0.94497475682129    2.21268081864075    2.05665418635884
C        -1.82287750644199    3.84071317638443    0.99132085841417
H        -2.03304940142308    3.22597212139451    0.11116568975989
H        -2.71901298245159    3.84370227768280    1.61619619820305
C        -1.48950571596132    5.25772476263082    0.54543589465853
H        -1.31531231418653    5.88190782273644    1.42359277043411
H        -2.32384775900437    5.68354958600523   -0.01707935797868
C        -0.23010933317049    5.23311861462965   -0.30949302453712
H         0.03023965081959    6.24554699621803   -0.62600505043684
H        -0.41387992207434    4.63828259627647   -1.20918577319410
C         0.93035368082901    4.63208144661334    0.47733926400330
H         1.82277007543921    4.63541237136506   -0.14766364100001
H         1.13748140942408    5.24114317490623    1.36058674141661
C         1.43436668487241    0.79282678348059    2.24841749115240
H         0.66977156177874    0.59153405240204    1.48641389411460
C         2.48424829222370   -0.31777791411695    2.18804185310408
H         2.95515280615812   -0.36482643470191    1.20571383205282
H         3.26287971272343   -0.11897646542665    2.93036324743147
C         1.84719024139463   -1.68123474521378    2.46381994392907
H         1.11883605987971   -1.89725035733319    1.67770386913703
H         2.61603320739303   -2.45767014906290    2.42456070461035
C         1.14460601399507   -1.71176790966783    3.81592567550382
H         1.88070125283475   -1.57316678670130    4.61218912840331
H         0.66909654278151   -2.68369207252004    3.96699277542304
C         0.10847751141449   -0.59567325649252    3.88638262595811
H        -0.37265877688197   -0.59159871852065    4.86707845367221
H        -0.66651500675251   -0.76881558918977    3.13535158430641
C         0.78127170655612    0.74910719390107    3.63287577076932
H         1.55528029530273    0.90079283227555    4.38924891313624
H         0.06501951902436    1.56267876958758    3.74702391473978
N         5.28249998246645    1.41856042765501    4.37876846787101
N         8.37516726389907    3.83766658412760    6.12827161475784
P         3.33703740386237    5.26393269268781    5.43232789802447
P         2.08068646554184    2.55197540850411    1.94470155328380
Ru        2.87821351383692    3.74838720378621    3.74749488627383
B         4.30695681312899    2.38777407588226    4.17531005494836
H         1.39288351360439    3.97397754030070    4.12507885253482
H         4.56821326305140    3.37875173847795    3.44658669691047
H         3.20420505224969    2.31511592056304    4.76610973371339
H         2.79440203464910    4.97317403612328    2.82185849120218

