95
CSD_code = AJAXEP | q = 0 | S = 0 | Stoichiometry = C42H32FeN10S10 | MND = 6
C        -2.85173752526102   -2.67952914627099   11.48181407461763
C        -5.16370603060071   -0.24881370769937    8.24527564296003
C        -4.95659565093923   -0.41307487497811   12.06802303620832
H        -5.18503742314457   -1.17474174512287   11.33959632474958
C        -5.74135957236158   -0.22832266221940   13.18928009814661
H        -6.59719507988067   -0.86119221123044   13.35686998442866
C        -5.39840619437458    0.77145365645873   14.08849993389363
H        -5.97565081422942    0.93872840378686   14.98446349868250
C        -4.28491339064592    1.54390950076466   13.81665847294212
H        -3.96464695543078    2.30833929026891   14.50761044625214
C        -3.54949649119086    1.30277326161978   12.65763609312375
C        -2.31723564808107    2.06131940154550   12.39634092860035
C        -1.12991017096892    1.25306700934872   12.08551510823151
C         0.04551506675478    1.43437488711408   12.80941782278884
H         0.07732221798504    2.18300776001833   13.58648606921499
C         1.13307747609613    0.61064253523020   12.58107086947231
H         2.04468948947704    0.72551482301690   13.14847317792492
C         0.99341763656047   -0.39913229717511   11.63448855833302
H         1.78616483463746   -1.10574939157351   11.44560794257884
C        -0.20023758224319   -0.51720027050362   10.95855526296031
H        -0.34539787500945   -1.30993610913860   10.24188006361138
C        -2.26075009497767    3.40661773920046   12.52721725694646
C        -2.87216943353790    5.95751620318192   12.58453018936582
C        -1.55304427471350    5.92039456918103   12.32436830600346
C        -5.39512728603410    6.95516307920389   12.11162197151735
H        -5.21244677431413    6.22833866300470   11.32277751131773
H        -5.97334978427055    6.50637555015743   12.91990768412416
C        -6.08897820906005    8.18330293745980   11.53340092636614
H        -5.45852032002412    8.62371004516043   10.75506637935158
H        -7.04291083864408    7.88696790615650   11.08739534510851
C        -6.34336070008293    9.17496969559092   12.54926608857030
C        -0.17010108575141    7.34211438312179   10.37018766532221
H         0.89010262672461    7.57314686376110   10.27270143803210
H        -0.36345155057272    6.33968723886278    9.99126829460401
C        -0.99139305403563    8.40159396304179    9.63611284042588
H        -0.87189279983678    9.37069563823874   10.12897522767353
H        -0.63697493950851    8.48831318674068    8.60385802492025
C        -2.39051496918094    8.07570409684812    9.60806485792550
C        -4.13881814927715    2.51891630420454    9.82014459457213
H        -4.95345366078791    1.94285503937242   10.22968598029848
C        -4.31343621339684    3.84654332269862    9.50404720723566
H        -5.26856915346046    4.31689659526173    9.67388752283253
C        -3.25564629466999    4.54920713864236    8.93913234383590
H        -3.35899585413808    5.58836056944476    8.67086217915299
C        -2.08111040698622    3.86167929443161    8.70176088983150
H        -1.26020971912189    4.34665459793265    8.19607139810767
C        -1.97465383601167    2.51710807565822    9.05158085163948
C        -0.76900107491373    1.75423275704200    8.70447147556244
C        -1.00626237990395    0.47745525265991    8.00927726752787
C        -0.36502581373332    0.22001621471865    6.79827068075406
H         0.32366997431526    0.94316886612495    6.38937669432942
C        -0.64719022332670   -0.94515704195887    6.11116021653919
H        -0.16442141792940   -1.15654137740336    5.16980226396862
C        -1.57390204685384   -1.82250891814276    6.65668346989538
H        -1.82978039298945   -2.74435158598088    6.16089548638972
C        -2.18209718186613   -1.48888120150586    7.85018482079085
H        -2.91225654725831   -2.13449708702105    8.31189769568539
C         0.48352627601286    2.23239045219995    8.89511558308986
C         2.57677320004520    3.60309998490843    9.67904187999148
C         3.08376243091698    2.46193259720254    9.17750391863052
C         2.84125635614619    5.25180994664730   11.88978586841361
H         3.53012464807001    5.96489821683841   12.34092596788317
H         1.86630905009572    5.71925576811571   11.75480846893880
C         2.69905017410498    3.99563897824952   12.74204048348988
H         2.43456416928842    4.28170548070960   13.76414898456737
H         1.89614640562489    3.36612983364317   12.34506754965370
C         3.90198615853631    3.20458447729648   12.77167323133712
C         4.92953427983686    0.41957192561709    9.31794500877121
H         4.24967468402200   -0.09428562090409    8.63709156537218
H         5.95713026769357    0.16274725851821    9.06287749391408
C         4.62295078832097    0.09886993121426   10.77669364983427
H         5.34631110091182    0.58613480051625   11.43664930270070
H         3.62648955013049    0.46707924850624   11.03979080086803
C         4.65337108912274   -1.32468372536343   10.99682697488464
Fe       -2.86471770842942    0.01506289370800   10.16697179551618
N        -2.75998720476235   -1.81723284919329   10.68640717972162
N        -4.47895614951235   -0.29184858445988    9.20046595721568
N        -3.88291400032863    0.33035901684225   11.79756599670782
N        -1.25195169643938    0.29315349802279   11.14769473749082
N        -6.54102357250097    9.94918558822531   13.36534898623142
N        -3.49811805052636    7.79269078859795    9.58681675973402
N        -2.99203654673360    1.85073734906190    9.63333029087851
N        -1.91356138804101   -0.36618915044228    8.51929790348107
N         4.83611467197239    2.54661503739052   12.77172318562301
N         4.65776291541030   -2.45633663293796   11.15244107924089
S        -2.93795391401226   -3.87525675850847   12.51200693408625
S        -6.13556222004891   -0.18151034708265    6.99968265769225
S        -3.67991654510006    4.41092261294096   12.82880085072201
S        -0.78621952819765    4.33257172049507   12.32984480008002
S        -3.75591277377660    7.44521939616748   12.78426005362111
S        -0.52455563091835    7.33283450728793   12.18115220851304
S         0.82847706290626    3.80981915380678    9.58333158618381
S         1.92900631192059    1.28794744311996    8.53818521185444
S         3.58159467232492    4.92138282060699   10.24138645965377
S         4.80495422889922    2.21478625407380    9.00622217716719

