81
CSD_code = AJAYOA | q = 0 | S = 0 | Stoichiometry = C40H26N6O7RuS | MND = 6
Ru        0.31902669347477   14.25177908807277    8.95462178657640
S        -2.27639933495104   12.13514475039361   13.92329151842643
O         0.27981966792997   15.76410904400389   12.70319013613484
O        -2.89675316410141   12.25779831173388    7.45979731348957
O        -0.08513545337783   16.41704471511839    7.16382957100640
O        -4.52086882220112   15.03048560945431   13.16021938785820
O        -5.66196912441142   13.62047379053311   11.31917703942791
O         0.97045843783368   12.77278315012093   10.13386851147141
O        -4.18653511010679   12.70075970907441   18.55164067021017
N         2.09117484751293   15.29662136889010    9.68030403930000
N        -0.37022200299962   15.07833051207670   10.59332742361831
N        -1.47856079964507   13.48426958451874    8.81463473320109
N         0.62177520813335   12.76683482840144    7.43198702545191
N         0.01886274102608   15.51488913197623    7.89838457647970
N         0.32699374436707   12.74125914177128   15.56143891229580
C         3.28883329255723   15.57761532439699    9.11215605515910
C         3.44485991306630   15.44309141840267    7.71781107867164
H         2.58700437597751   15.13413167002594    7.13224632347424
C         4.64631148501051   15.72340217955506    7.12651783981822
H         4.75600626737961   15.62821320677840    6.05712799327424
C         5.74135381478409   16.14181394363342    7.89799440874459
H         6.68332400204842   16.34798214008667    7.41344734761648
C         5.61142940432103   16.30581503529055    9.25025994546117
H         6.44145241550963   16.65119928463020    9.84841333123962
C         4.38331530343092   16.04660857470999    9.88948094318883
C         4.17336209916130   16.25345199532997   11.27152862799966
H         4.99486177015400   16.58633334071803   11.88866782831548
C         2.92557824832578   16.06331757234342   11.79095494078440
H         2.68068201610687   16.24888603346881   12.82521662798327
C         1.89117708171707   15.59169526342073   10.95934419728400
C         0.50271342612578   15.47502145876909   11.53420630401752
C        -1.70546185316011   14.75657841009587   10.80521757552708
C        -2.43539345378955   15.14480051761887   11.92856110612419
H        -1.94230313034255   15.74679370116898   12.67216594701342
C        -3.74800914131993   14.73775081011833   12.08897184374739
C        -3.94123779774603   15.72946127482565   14.23624429722749
H        -4.70886204724979   15.76988865102850   15.00704455456068
H        -3.65824845549287   16.74687703332061   13.94849830023293
H        -3.06230001107127   15.20968810140535   14.62943019310701
C        -6.33263808939773   12.82632831156699   10.36966157502945
H        -7.34204527151182   12.69867851154840   10.75695635696866
H        -5.85861819715252   11.84618238976345   10.25897984097361
H        -6.37568139009815   13.31812424668355    9.39294362554176
C        -4.36906839038541   13.94719024132815   11.08559032100930
C        -3.64548718576784   13.55236419951882    9.97539579888620
H        -4.07927190074950   12.92851579159804    9.21247801477337
C        -2.31095798949177   13.93474568607190    9.82731178341681
C        -1.80017187503896   12.70573092313557    7.77136983688209
C        -0.56187069826458   12.35166631126928    6.98901693584677
C        -0.68746503579593   11.50738928429310    5.86971749113638
H        -1.68650914138591   11.23310948494030    5.56778307221552
C         0.43263234334361   11.08986541005378    5.20952618569703
H         0.36800528363396   10.48511236030109    4.31705983982557
C         1.70077752724912   11.41559940463104    5.73860544320975
C         2.90855327178767   10.93730087298121    5.19399383736496
H         2.86741866724767   10.33010662516973    4.30201509158397
C         4.10433267678177   11.21529877742940    5.79874730909887
H         5.02555060298943   10.84145510476870    5.37880401423056
C         4.13942369935921   11.95786591175811    6.98897124372010
H         5.08463435731478   12.12296070221367    7.48367993469909
C         2.98767533890838   12.46100861428930    7.52946996913071
H         2.98574540563165   12.98985168720514    8.47175889375973
C         1.74865599117430   12.23700472157360    6.89967449643329
C         0.80483492062230   12.63811951144450   11.42247288395829
C        -0.44725822892728   12.33200188275750   11.97404251222039
H        -1.27912011157015   12.11655696127068   11.31764399048689
C        -0.64693180690241   12.37697048310089   13.33853269537780
C        -2.11367911817134   12.45000040061859   15.64889226573919
C        -3.22789170428296   12.45751097970611   16.41852613086619
H        -4.20061285046553   12.29555640309100   15.97727507266028
C        -3.17934043238160   12.67457911222837   17.85107230526812
C        -1.83623245920904   12.85910842729389   18.40666937549712
H        -1.77583017259837   13.00395858621136   19.47552268350876
C        -0.73669863324865   12.85557231505899   17.63661473459794
H         0.25168369882746   13.00246340088479   18.04658986225767
C        -0.79786202740007   12.67448219227723   16.21023996408796
C         0.42493253506418   12.64020332404399   14.22272746554275
C         1.70592415010304   12.81332993597208   13.65983611105334
H         2.52361271212349   12.98095426274264   14.34324244410980
C         1.89886321129613   12.81467102214162   12.30863960854103
H         2.87996976277001   12.98350554773188   11.88552872725616

