50
CSD_code = AJAZIV | q = 0 | S = 0 | Stoichiometry = C22H24ClIrN2 | MND = 6
Ir        1.67179112911591    2.99748068152178    3.80603799974553
Cl        3.55028110900083    3.39014264602302    5.16709384800877
N         3.52196692732960    2.91186738014921    1.42998324699220
N         3.63088740300417    1.06152332488403    2.57186844327465
C         2.99662255193949    2.25449634874835    2.50414128440706
C         4.48967975421295    2.13975055362873    0.82210899203342
C         5.33083664016465    2.36209168024644   -0.25619783433544
H         5.30554565251745    3.28855185887159   -0.80765273136655
C         6.21645007463165    1.35139770748141   -0.58605091897502
H         6.88573443828922    1.48979957261225   -1.42129671528374
C         6.27004237456813    0.16224617076084    0.13615499845464
H         6.97634264659196   -0.59940585616328   -0.15673703769181
C         5.44763937472079   -0.05980245622190    1.22614437000170
H         5.50239256997596   -0.97549600557947    1.79298006986935
C         4.55829035613496    0.94789752323724    1.56375572751191
C         3.12180806274170    4.19806981392070    1.01604542368375
C         3.03727883692370    5.22649088582026    1.94802643480819
H         3.32513947508972    5.04296644990127    2.97184738738876
C         2.60529003352731    6.47751901693874    1.54549585385051
H         2.53638079734176    7.27565856772101    2.26901351809298
C         2.27026488666894    6.70988631527264    0.22161653879942
H         1.93397200753209    7.68778289938652   -0.08912385325659
C         2.36823752385361    5.68619717979252   -0.70616427093284
H         2.10642378451821    5.86375591634034   -1.73869454990050
C         2.79001671220494    4.42830476533166   -0.31384770856078
H         2.84209711788993    3.62076330939807   -1.02931048332980
C         3.40680355450462    0.06748060034712    3.58387630017374
H         2.68614365431804    0.46641056950704    4.29815254179205
H         4.33969550145088   -0.15007899413974    4.10574529441893
H         3.01832983140377   -0.85118014670679    3.13912641991960
C        -0.06399595417575    2.04800268504468    3.01847984624348
H         0.18043588681285    1.13818421087547    2.47210767403101
C         0.16479571172475    3.26396306756373    2.34434219097306
H         0.53570361056240    3.19728961935622    1.32214012124399
C        -0.61594411149979    4.53575388258831    2.58353007468150
H        -1.60884165487891    4.44849737447927    2.12810353508003
H        -0.09348015471156    5.34200270300783    2.06375653942310
C        -0.74966829883937    4.90133671261566    4.07378926648227
H        -0.79702284724422    5.98817638808233    4.16532851565147
H        -1.68163971959402    4.50390945612136    4.47920565300949
C         0.40562793716270    4.38708444770292    4.90194484265331
H         1.07703719562618    5.15370443451479    5.28068877482960
C         0.39935274489059    3.16930486986062    5.54824475794935
H         1.03537400774645    3.05370059108682    6.42273717930303
C        -0.72143602475969    2.15938176423237    5.47156246044964
H        -1.56780158973059    2.51027781855831    6.07197788453374
H        -0.36962541242862    1.23043773280544    5.92527801369831
C        -1.18044627535420    1.86956234594624    4.02999117707948
H        -1.54767822502437    0.84260755974491    3.97960728774748
H        -2.01283160844575    2.52035405677403    3.75834561533399

