34
CSD_code = AJEBAS | q = 0 | S = 0 | Stoichiometry = C9H18Cl2N2OPtS | MND = 4
Pt       -5.88801912568678    1.05726013408094   13.64096834177952
Cl       -7.36445724107194   -0.37770104381991   14.65662307396416
Cl       -4.45247425773195    2.47502542274776   12.51274479654705
S        -7.09360489865342    2.82018527456024   14.33161935736993
O        -6.55566867206020    3.40667065236105   15.54302434057035
N        -4.74211421538964   -0.46003533113479   13.04165818927730
N        -2.84278901882824   -1.59640039006889   10.79937778869324
C        -3.63782464037396   -0.74066212573173   13.66936646280883
C        -2.59966537682439   -1.59769538496427   13.20868464007991
C        -2.27353500232924   -2.01021987547349   11.94645242489136
C        -3.93863108700630   -0.67534911761133   10.72567581294153
C        -5.02338614437972   -1.05024619675006   11.76228991102330
C        -3.46449058590168   -0.11529445864626   15.02094018912234
C        -1.12480567630035   -2.95539351236227   11.74622236759030
C        -8.86839342291019    2.53413622855933   14.61542892480210
C        -7.25840207160971    4.16060647075088   13.10883172812675
H        -1.92873927498255   -1.93386737145486   13.98526355548289
H        -2.53361033489794   -2.03363986003497    9.94669091463372
H        -4.34939074408758   -0.70375384381452    9.71635953012799
H        -3.61155838925580    0.34660835339272   10.94754679625544
H        -6.00136914344112   -0.69361130443265   11.42705704716019
H        -5.05603664277160   -2.14204432065610   11.85856534414162
H        -3.12340258421747    0.91386671593677   14.88947249249486
H        -4.41986592378298   -0.09128127559090   15.55245882742735
H        -2.73083733808318   -0.64624849574357   15.62001626040034
H        -0.77129729966048   -3.34951803863304   12.69302147698653
H        -1.42657001582364   -3.78965454532729   11.11419562838341
H        -0.29830751741530   -2.44237789794892   11.25534188283720
H        -9.30603602319614    3.45212267004583   14.98989441240786
H        -9.31978808335166    2.22559432331302   13.67962224204425
H        -8.96221862058241    1.74136660798470   15.34993593541542
H        -7.81543103353695    4.97316819962937   13.56006788811263
H        -6.25936068143374    4.48992682653115   12.84254227566719
H        -7.76451891242787    3.76405651028593   12.23593914047554

