73
CSD_code = AJEBAU | q = 0 | S = 0 | Stoichiometry = C42H30Zr | MND = 12
Zr       -0.32520717128084    8.01322526058727    2.71969054084758
C         1.03604750041589    6.42030471242510    2.06489648808842
C         1.12938583432016    5.41944018596262    2.99293856683209
C         0.28758687229608    5.50182472733964    4.21337556681818
C        -0.48224540062067    6.61613879312983    4.40498298819607
C         1.92259310100689    6.51031191217236    0.91091594677598
C         1.44877159407554    7.07176126057588   -0.28670683017293
H         0.40700129516930    7.37613898511739   -0.35517790423434
C         2.27569910097496    7.22038089963907   -1.38246120133829
H         1.88518182100696    7.64165055380525   -2.29851472836276
C         3.60732362339266    6.84057494129093   -1.31130878305570
H         4.25430818845921    6.96343818086936   -2.16698721682294
C         4.10115000689461    6.31175524571605   -0.12972684048137
H         5.14082274630189    6.02482984416809   -0.06179688341556
C         3.27580841767412    6.14662462393464    0.96499089835307
H         3.67724442181921    5.74548414811317    1.88384193987519
C         1.95246678530854    4.27688664941010    2.87640034627676
C         2.64506210358414    3.28596717908240    2.82736600291308
C         3.48549162462125    2.15822530096258    2.74230575256150
C         3.96806206276507    1.73035244525652    1.50306927079245
H         3.68923858026765    2.27436413529802    0.61182143384016
C         4.79081092001152    0.62407663454736    1.42712575550816
H         5.16146795154995    0.29579364055127    0.46650562689886
C         5.14280780412433   -0.06626497053975    2.57676126422609
H         5.78556724076290   -0.93197440496564    2.51189791206123
C         4.67142598361872    0.35765022573318    3.80967305969855
H         4.94867281333990   -0.17756326103408    4.70664595734643
C         3.84903025176990    1.46322043741100    3.89842895006805
H         3.48527321668730    1.80473052196120    4.85683029942174
C         0.37150596284447    4.41765410952853    5.11574365094134
C         0.44941510810831    3.47507642413595    5.87025081871735
C         0.49603908523750    2.38960643557446    6.76747397317013
C         0.89912427217696    1.12596663503329    6.32912396861471
H         1.16902075667511    0.98685938572515    5.29221256986750
C         0.94195921117340    0.06868678887321    7.21635550881336
H         1.25551657361750   -0.90684495185928    6.87287635112274
C         0.58356255715425    0.25337694761664    8.54282685596269
H         0.61871716191821   -0.57657324461907    9.23331052965459
C         0.17573623100453    1.50382878216305    8.98139077538173
H        -0.10711282148091    1.64702572303971   10.01462818660023
C         0.12975462607960    2.56883103064222    8.10388977243946
H        -0.18700040471588    3.54699315506147    8.43720332779258
C        -1.45498920111556    6.72355361305391    5.48552914329863
C        -2.23501739396370    5.63746011567888    5.90779066975833
H        -2.08630827946509    4.67177787388594    5.44759928423601
C        -3.19807001940072    5.79082579482241    6.88533819710316
H        -3.78693392939197    4.93823524317949    7.19222639964543
C        -3.41364499973641    7.02639831057121    7.47406698706577
H        -4.16402192524655    7.14171290196199    8.24185138579515
C        -2.66322724018991    8.11696271474732    7.06159709960783
H        -2.83140640083169    9.08588995816894    7.51101299937078
C        -1.70877709667142    7.97352097544989    6.07407068336748
H        -1.12859772309718    8.83718724979343    5.75834389541914
C         1.10221222532673    9.38277710974067    4.23450113275946
H         1.27565300364051    9.16912815056557    5.28346236158978
C         1.95681715183741    9.00114158720012    3.17703806603459
H         2.86829073677752    8.42519462528661    3.27867423566086
C         1.49937995933991    9.62558663459272    1.99575551537406
H         2.00823944782105    9.61340992566137    1.03916960673664
C         0.37285591361057   10.40498774444714    2.32379044783135
H        -0.11852515534748   11.10911437405743    1.66237423936734
C         0.11549733337416   10.25052283915562    3.70426628409745
H        -0.60247027130924   10.82783421697340    4.27856563945814
C        -2.85832620921139    8.16655035918557    2.84762956453181
H        -3.43392805119270    8.35012266930668    3.74711118877560
C        -2.55538239256046    6.89546058850134    2.31176748178016
H        -2.85207303634318    5.94235647078454    2.73174787184746
C        -1.93188919580798    7.08453759377589    1.05886272613985
H        -1.70380042570904    6.29509234701584    0.35114392641327
C        -1.85396656060713    8.47885194996960    0.81835164563535
H        -1.55932784586712    8.95069087686978   -0.11394257073818
C        -2.43731497583178    9.14077680202662    1.92165699407542
H        -2.65383505289335   10.20100235391767    1.98257642947232

