93
CSD_code = AJEHAA | q = 0 | S = 0 | Stoichiometry = C42H38F8P4Pd | MND = 4
Pd       10.26492077599524    9.56837478521374   10.95571006356710
P         8.81956172523169    8.88632031533747   12.55294458630994
P        11.96786933964244   11.11305285986537   13.02546223320161
P        11.25934088013544   10.26060377995982    9.05032814150130
P        12.77424437936530    7.92875737783731   11.75450840380085
C        16.95932956641174    6.07195831289163   11.19950702584844
H        17.94679805868733    5.65877589065967   11.05660500778037
C        11.47849655474693    5.68190054346738   14.96997816954360
H        11.03763518328215    4.71175551356096   15.14895316232192
C        14.40458590798424    7.11189931087872   11.57200018840644
C        16.13705162427178    6.30096216646859   10.10855542137741
H        16.48201941560243    6.06771677946600    9.11166110434774
C        12.34033933644763    7.31676009838571   13.43031752511307
C        12.33581765086314    7.75911592417419   15.80175464100665
H        12.56271653568079    8.42000451254108   16.62605888258412
C        14.87390143605035    6.82821147907778   10.29299920825222
H        14.23605258758769    7.00290764408175    9.43746550757261
C        11.75050166431471    6.52531958040859   16.03440559452985
H        11.51486364481643    6.21776546644348   17.04243523186913
C        12.63094272673522    8.14909976699101   14.50810315722806
H        13.09580547278426    9.11067005420004   14.33162474245905
C        11.77245370256002    6.07128607400244   13.67433623344966
H        11.56787277530799    5.39425252436613   12.85833533347331
C        15.24251102723725    6.89693478336021   12.66063609765928
H        14.90051643906321    7.12536302431563   13.66040657947208
C        16.50955174163983    6.37464533006034   12.47313633757948
H        17.14744781539693    6.20035587351526   13.32770881104371
C        10.54153934610573    7.65789975204773   10.37463709211327
C        11.66002691322807    6.89597345390399   10.72468061105334
C         9.54155325687486    7.06049508065831    9.62869900439220
C        10.75217662802442    5.01145302907480    9.51886405576626
C        11.75623556768688    5.57754418219646   10.29945339059630
C         9.62240095188348    5.75303927574069    9.17841035724109
F         8.45013908394855    7.84153008085501    9.37155842643539
F        12.80601815484037    4.80281134154549   10.63856870799336
F         8.65052819486631    5.19195364792802    8.43763825425958
C        10.29080876023471   13.51381877165271   12.68795908716860
C         9.87367984472456   11.47998537701959   11.46409850628935
C        10.62302745786303   12.19616754489737   12.40213009154838
C         8.83118595880767   12.12238639616474   10.82077814252466
F         8.17605176783292   11.38492526821956    9.87555333326956
F        11.00103347922241   14.24464719959246   13.57074599366237
F        10.85974458383797    3.73558528374276    9.10410308750890
C        13.43224619274157   13.02481573793449   11.49746940701069
H        12.61704127080808   13.71569806160625   11.65057430921561
C        14.46512916452015   10.88993363740648   11.84825700476688
H        14.44552764757679    9.89713391733247   12.27947834209280
C        15.56836566417925   11.29781526468138   11.12044951646740
H        16.39922365502767   10.62097112137315   10.98137069584710
C        13.38080889695264   11.74301345565304   12.03457111299440
C         8.47227928932876   13.43114688579789   11.09850137460231
C         9.21409072062104   14.12560270041647   12.05215190333267
F         8.89543877549056   15.40037425331060   12.34352943319307
F         7.44455146035838   14.03640092756538   10.47764724403251
C         8.49390205780931    7.10403809029508   12.81883800813994
H         7.76269268427933    6.98563292799730   13.61848935186341
H         9.41725208878271    6.59741969497369   13.09351016737292
H         8.10094707378266    6.66166121527550   11.90518937541032
C         7.13353754307095    9.48272125460181   12.17334835596834
H         6.40813243912145    9.01405750133080   12.83836289680903
H         6.90107020887805    9.23619499252312   11.13626331783293
H         7.09201667678416   10.56464575464096   12.29297075061733
C         9.06447197488625    9.45747278168689   14.26965591501437
H         9.07979909324657   10.54583830010521   14.27470604523210
H        10.01919191781609    9.08898514079733   14.64321728228268
H         8.25472748569536    9.09943977712240   14.90491363397980
C        15.60375059557968   12.56994351620937   10.57369446220835
H        16.46190065862120   12.89191197307312   10.00260839136409
C        14.53781637108801   13.43214720112874   10.77071476755724
H        14.56738878962274   14.43065855769652   10.35891982745846
C        12.91319631051357    9.61636917001421    8.62148892189713
H        12.86737581808762    8.52899464557722    8.59800767656975
H        13.63148344111690    9.92456484575509    9.38039632888270
H        13.22124688209127    9.99124246180149    7.64576718712323
C        11.47761914308834   12.04609805490710    8.70797541007783
H        11.95357151360936   12.17306057356609    7.73564961174535
H        12.10072137234006   12.49603883350350    9.47898087126653
H        10.50739884806981   12.53963905831707    8.70018907680460
C        10.25329709928982    9.75740180216165    7.60926213396960
H        10.62387706179268   10.23635625901512    6.70296338183040
H         9.21700305520347   10.04846491965034    7.78720065391334
H        10.29646111140318    8.67506924204887    7.49366113919367
C        11.39916991345687   12.15169342241192   15.54982634950944
H        10.36470434438256   12.03024205167048   15.25960491618459
C        12.41000908225773   11.85951992483424   14.63946656716164
C        13.73539375005687   12.00637521198443   15.03407778424660
H        14.53423790699469   11.77007227126516   14.34489761503715
C        11.70425745705951   12.62095002980238   16.81256394554504
H        10.90910157995709   12.86166639969616   17.50318631082715
C        13.02649896782693   12.78235346760726   17.19213398425379
H        13.26606136133023   13.15010819852250   18.17885326908537
C        14.03898077564083   12.47065373622018   16.30107250513831
H        15.07233489011342   12.59230532026273   16.59245593385985

