94
CSD_code = AJENAE | q = 0 | S = 0 | Stoichiometry = C32H54B2N4OZr | MND = 5
Zr        5.10348980311068    5.04411203543454    4.49019516651500
O         5.24923689971709    4.87427706617184    6.83991503636487
N         5.11347004860606    3.80825248711352    2.87134149454499
N         3.58590468113505    3.61643910291874    4.65849821697029
N         6.80438961431410    6.24329026338177    4.79580087192758
N         4.64865785145520    6.99940277912152    4.20013763314857
B         4.17146007675533    2.94574824074993    3.54284826501761
B         6.06666397760465    7.30528821724772    4.19549236526006
C         6.22834981270741    3.43431462000625    2.03314200372475
C         6.87294125676250    4.73679975471574    1.50666836600322
H         6.24572927165714    5.16764987319684    0.72762792046644
H         7.85859325039400    4.54280526849045    1.08473539139003
H         6.94980840650425    5.44922492484084    2.33762722888877
C         7.27459961540217    2.67031171989498    2.88150083523212
H         7.50928070882562    3.27038871594799    3.77073024936991
H         8.18763535590082    2.48178090547836    2.31777347050702
H         6.85840098439603    1.71556065581699    3.19892179570114
C         5.82929183839339    2.56606136638104    0.82446478647026
H         5.49503385393467    1.58546393743669    1.14918681747024
H         6.67706942601306    2.44506972823521    0.15288842477469
H         5.01527782155433    3.04344719472554    0.28415405241461
C         2.42192604332869    3.19683549047923    5.41110825131881
C         2.61452542479679    1.82786592645658    6.10473978536197
H         2.59747460605217    1.03083083491752    5.36750280371838
H         1.82237867143680    1.65124703815525    6.83049379939195
H         3.57667590701859    1.79260430251241    6.61542326996029
C         1.17532048334934    3.08764729290005    4.50524332738100
H         0.94046950440414    4.05390996596703    4.06419408764398
H         0.31555228338030    2.74357370724781    5.07783658517237
H         1.36814391128240    2.37922024753991    3.70530347496443
C         2.12651043093954    4.25520995853816    6.50092629747019
H         2.79247120436460    4.12406863065426    7.35066983561611
H         1.10224656335037    4.15779829034930    6.85827801589372
H         2.26621064838382    5.25526071785321    6.08213554369003
C         8.19499354702544    6.23356966462289    5.20078990116978
C         8.58655919025784    7.49998643200203    5.99190775576251
H         8.57381881979557    8.36567713590150    5.33706503129214
H         9.58480019794436    7.39127898839743    6.41236649422186
H         7.88100233571700    7.67626187177070    6.80235944264722
C         8.42099703115519    5.01093542136272    6.12500985053435
H         8.05284046329547    5.22892127126952    7.12590961045034
H         9.48082896070242    4.77140111035937    6.19818630188619
H         7.88308241880241    4.13994596859121    5.72938428753572
C         9.16125598288774    6.11395780191356    4.00020481248079
H         9.01397918223368    5.16747419630536    3.48475215983657
H        10.19457087826755    6.17044688372457    4.33861228737882
H         8.98035627490400    6.92879489654034    3.30476803949203
C         3.65701119745586    7.43847631408326    3.24167282832980
C         2.31762423178719    6.78532314500908    3.64662991806479
H         2.47431913253987    5.69834801470743    3.68956662459703
H         1.53524166555602    7.01802982322656    2.92548040319505
H         2.00758695201510    7.15626427488606    4.62507780255220
C         4.01427412109075    6.92572081325399    1.82682788607904
H         4.93047587531626    7.40505621049479    1.48675477675448
H         3.21841221344314    7.15142545580607    1.11783596700033
H         4.16632377956121    5.83756516629756    1.88497848002154
C         3.48135307103622    8.96843070978244    3.21261401858124
H         3.29038818098300    9.33612539385549    4.21834154880475
H         2.64637757627077    9.24248046240138    2.57133614175639
H         4.38293352640561    9.44524197032686    2.84063686823707
C         3.85972263041094    1.45214676321439    3.08121653095347
C         4.46522100158425    0.35385956581370    3.69266570201330
H         5.15662035367773    0.52051700737811    4.51132580843120
C         4.20280830558578   -0.94341578366022    3.28738985854941
H         4.69104272384916   -1.77379585118590    3.78053453327032
C         3.31480443150036   -1.18058939531896    2.25239889757353
H         3.10570923507550   -2.19229535026299    1.93430386049096
C         2.69921554686321   -0.10888403379564    1.62793028445411
H         2.00496243228161   -0.28402482805694    0.81704690454090
C         2.97283897625249    1.18393571591478    2.03722405753057
H         2.49627159668544    2.01341821529866    1.53159091870710
C         6.67640600108135    8.65948564125113    3.61833625741204
C         6.62965185138600    9.84231676292398    4.35908145781328
H         6.16618460693527    9.82724558661405    5.33697466706103
C         7.15465021934321   11.02705108302593    3.87545541362696
H         7.10319440571683   11.92624656618252    4.47461414276327
C         7.74574193306442   11.06476119200439    2.62356829963773
H         8.15771501662463   11.98820425382654    2.24168074093031
C         7.80084832935324    9.90810028647730    1.86556258912999
H         8.25762966336211    9.92702397115567    0.88509306219781
C         7.27366102515929    8.72681518370710    2.35913963825353
H         7.32445444242925    7.83405802287364    1.74811872953381
C         5.03057322028971    6.18964239862883    7.38675280706927
H         3.95444557412425    6.41682156671876    7.35137158327276
H         5.57338435106866    6.89863696890347    6.74936401524086
C         5.52159322476198    6.13157454655274    8.83095436642935
H         5.03055081971822    6.86574614873436    9.46483383014204
H         6.59950456232584    6.29098958262874    8.87911576040915
C         5.18038031052792    4.69241982079403    9.21007853869842
H         5.76672871027506    4.31912823950786   10.04630475824920
H         4.12199699600893    4.60981503689247    9.46007104023422
C         5.48895370502761    3.94859999795070    7.91165937105668
H         6.54164211848497    3.63515823572760    7.88569613629723
H         4.85789463515447    3.06628622409171    7.76487072960033

