81
CSD_code = AJENOT | q = 0 | S = 0 | Stoichiometry = C30H41F6NO2W | MND = 4
W         3.97117895373953   -3.17608353299671   -3.94051222026964
O         2.46993097850641   -2.24556976539874   -3.21697162138141
O         4.96470990088071   -3.06198586719474   -5.74658037184313
N         3.72837064600538   -4.92905680932096   -4.03203094846608
F         0.14791161666476   -0.87513612987212   -3.81161874120018
F         1.93239565278346    0.31922660050486   -3.81408185952451
F         0.50355617232932    0.52316443622627   -2.21791351638952
F         4.08058228236494    0.33389355128362   -6.21195624056797
F         4.40342302841590   -0.72966302196499   -4.35352702712905
F         2.95721647402784   -1.46957817261632   -5.76700479032329
C         3.37379444992274   -6.20309203868574   -4.25488205774265
C         4.26556868989146   -7.08765596079390   -4.90712981473864
C         3.86929645331639   -8.39402824980810   -5.12716710887434
H         4.53540430888369   -9.07895428164272   -5.62985285911952
C         2.62212089990823   -8.83893589810490   -4.72263714181730
H         2.33290718961726   -9.86493110226883   -4.89675939481398
C         1.72971992343508   -7.96461294412007   -4.12206928167689
H         0.74942422590235   -8.32291180518819   -3.84868121640327
C         2.08037874794631   -6.64976544783220   -3.88367157126583
C         5.57226143962878   -6.53692077804754   -5.42291066373531
H         5.75660600235520   -5.58102924436150   -4.90607596768178
C         5.41954315449203   -6.21249567898165   -6.91311362093578
H         6.36276915888133   -5.84994992115995   -7.31563792946631
H         4.66978556755776   -5.43320707188077   -7.03438729534497
H         5.11376240148963   -7.09363233129877   -7.47429137222458
C         6.74883572613722   -7.48087000633188   -5.18277745978145
H         6.78727583222510   -7.78109700847682   -4.13864468561342
H         7.68243701974349   -6.98267742101567   -5.43462046788102
H         6.66866836569634   -8.37366102071116   -5.79842481541330
C         1.13155557499775   -5.61516798937354   -3.32466575446439
H         1.71166549226302   -4.96742338356958   -2.64616618142737
C        -0.04791328366130   -6.20467112905276   -2.55664884480549
H        -0.60502127590520   -5.41077254635603   -2.06315995586490
H         0.29902888896014   -6.90284396557986   -1.79847673367538
H        -0.72860831926336   -6.72380082819156   -3.22738958232425
C         0.63987459211207   -4.73323449732758   -4.48394994377947
H        -0.09726122823590   -4.01190801588326   -4.13667911151215
H         0.18403712823182   -5.34738612341493   -5.25873937309376
H         1.48477197767207   -4.18450991906074   -4.92018984083711
C         1.10335196480007   -0.37535077568310   -3.01574053909105
C         1.85975981041654   -1.47855900216973   -2.24618068409828
C         0.84179733336580   -2.29066428624064   -1.43350890158009
H         0.12622595823716   -2.76387693796447   -2.10210929971816
H         0.31159748985820   -1.64408002463271   -0.73880788490284
H         1.37782946476535   -3.05813372439746   -0.88090515856617
C         2.88838259237653   -0.81486482109816   -1.31774845277415
H         3.55260003656577   -0.16747848372528   -1.88932591376890
H         3.47588945153221   -1.60128161669330   -0.84381629961983
H         2.38706605503769   -0.22444440233726   -0.55501556716954
C         5.24398464520941   -1.84077416346322   -6.29949022868415
C         4.18271398105233   -0.88675477803355   -5.69581662398465
C         6.64477071043896   -1.33186883553839   -5.90575342232226
H         7.38816474240876   -1.91231460694770   -6.44460784286021
H         6.79488802901413   -1.49158979301914   -4.83583855821795
H         6.76125289820420   -0.27769526673208   -6.14697117902883
C         5.06330915964985   -1.86166121678197   -7.82750913356076
H         5.75112384930615   -2.59279233217823   -8.24255490595747
H         5.26544839496896   -0.88234031192500   -8.25362693610598
H         4.04807287002025   -2.16573663517544   -8.07636409596084
C         5.41603778790979   -2.97737334547383   -2.60853542716578
H         5.64860436798676   -1.90860801258336   -2.43002456718112
C         6.16840024823644   -3.80566312262530   -1.59176423595474
C         6.38485771507662   -5.25106498774813   -2.06734863075751
H         5.44595982965844   -5.69770715224130   -2.38029941839874
H         6.81320850676102   -5.84720181892174   -1.26337272584316
H         7.06842013243624   -5.25687050248285   -2.91211443642383
C         7.55073675386294   -3.18933846326519   -1.32894672697903
H         7.46741299775937   -2.17362099962475   -0.94697912852428
H         8.10451935971717   -3.15517220720648   -2.26521039919276
H         8.11852151738712   -3.78935472114592   -0.62078738007623
C         5.29834722170348   -3.84227063436898   -0.33779872820826
C         5.71914475408392   -3.39228075767524    0.90685255017082
H         6.71263281236748   -2.99641838323690    1.04329879952209
C         4.87326215091150   -3.44321610439709    2.00486309889940
H         5.22141771349018   -3.08077463248683    2.96146672577593
C         3.59793398802302   -3.96050175453255    1.88474248245858
H         2.94437725616956   -4.00893058386014    2.74306056401983
C         3.16751413623844   -4.41892093735361    0.64872285834585
H         2.17696539222266   -4.84022737868843    0.54722365915883
C         4.00287853268000   -4.34731532203441   -0.44992293772125
H         3.65685257812346   -4.67457084347054   -1.42783698454967

