62
CSD_code = AJEPIP | q = 0 | S = 0 | Stoichiometry = C25H29FeN3O4 | MND = 5
Fe        2.36703594260051    4.96620153590325    4.34114099155826
O         3.95250997083903    5.42068166843844    3.04852739199878
O         3.83096101049384    6.13234681809261    5.08752813246646
O         1.37325119020043    3.87099768082410    3.09517273095856
O        -0.61251198946496    4.16365563310728    4.01582929929604
N         3.12047010764441    3.41289538767110    5.06764445801006
N         1.34402056461514    4.89979349583702    5.76458243701688
N         1.30758307950184    6.45380703023170    3.90249166555374
C         4.44942100250628    6.07857634166223    3.99297753337379
C         5.78143657006875    6.80053019207460    3.80413223484545
C         6.19001892814243    7.50284665633861    5.09516700533426
H         6.29533659687038    6.78065122637446    5.90077693690398
H         5.43127687660540    8.22361644786340    5.38892581236532
H         7.13692461732090    8.02070603681975    4.95736099600105
C         6.82352507034651    5.75244325166758    3.40137044610611
H         6.97224115763586    5.03553779031852    4.20649102589791
H         7.77476139837414    6.23298401097984    3.18123591269474
H         6.48473885850931    5.21689351807405    2.51805454531490
C         5.59666747849223    7.81377504844285    2.66965892985916
H         6.53992749418994    8.31118294466704    2.45246275022999
H         4.86097638043961    8.56583698852606    2.94794450484229
H         5.25076190191913    7.30474318795000    1.77347180811507
C         0.10729262747799    3.75719083635846    3.11031830007926
C        -0.48497679426442    3.08130921822359    1.85173394785712
C        -1.96423840903487    2.77617021300025    2.06390821077525
H        -2.08969912500439    2.06083099374634    2.87302168859441
H        -2.39973616620202    2.36345786743117    1.15557987939958
H        -2.49688480162412    3.68369414440687    2.33568111910286
C        -0.30272206888493    4.08469436151001    0.70820506806438
H        -0.84890350649691    5.00227059177352    0.92058091856768
H        -0.67226267923055    3.66616958482086   -0.22702377004799
H         0.75154516262024    4.32731635910378    0.59760426695570
C         0.29712029508675    1.80207977502475    1.55470481239806
H         0.16186109280771    1.08005800038049    2.35763555306766
H         1.35653263949325    2.03051937376646    1.47303335147324
H        -0.04627919716447    1.35590191260746    0.62247117235108
C         4.06107666650647    2.65269354644937    4.51814373923456
H         4.43589375560782    3.00689501252737    3.56936259992231
C         4.52634032730010    1.49335940809242    5.10543358926281
H         5.29025346654239    0.90716013365754    4.62025384266352
C         3.98950085569458    1.09716243468585    6.32821646212604
H         4.33431271522667    0.19717988899522    6.81403248217136
C         3.00136207749727    1.87228834089268    6.90173712190483
H         2.55285970611984    1.59140297298476    7.84130341490077
C         2.57451019267490    3.02688614886630    6.24771408267160
C         1.54082162668912    3.93675836836313    6.68657502502153
C         0.80455902596467    3.91312621649803    7.86530385281103
H         0.96311186299835    3.13349201893592    8.59323827620941
C        -0.13718953868902    4.90613715264859    8.08671107424181
H        -0.72423274873782    4.90481576928797    8.99190055313661
C        -0.32349979873708    5.90110832913449    7.13567562805828
H        -1.05227970876391    6.67948895531550    7.29358540435040
C         0.43424458041711    5.87145201668796    5.97445110085032
C         0.38409192295051    6.76845938909467    4.84074881999359
C        -0.51420783126510    7.81539688861557    4.65183053820693
H        -1.24121304674884    8.04279207912733    5.41459586562422
C        -0.47364690144765    8.53607873478975    3.47402910328421
H        -1.16509717556554    9.34672926780414    3.30096821451907
C         0.46581549075865    8.18833105295100    2.50818039113430
H         0.51927712820026    8.71656677272325    1.56952346296517
C         1.33172228155049    7.14443984204457    2.76899922260898
H         2.07912978981549    6.82783313480894    2.05568406474780

