90
CSD_code = AJEROW | q = 0 | S = 0 | Stoichiometry = C43H41Cl2NP2Ru | MND = 5
Ru        7.42988496042765    5.30495485949070    5.48832779572582
Cl        8.33481411254583    7.39010834409443    6.24420264999582
Cl        6.88034844135306    3.08173843493877    4.73547150619569
P         5.48780547079070    5.24964403173546    6.66518247485431
P         6.63753268543165    6.23751545698146    3.51111437347173
N         8.19987564300408    4.54196055527003    7.16109738160182
C         5.95370658927929    3.82328815595262    7.75583578205698
H         6.04253491540469    2.96404100979373    7.07877597171626
C         4.99779224755735    3.48118718076322    8.89051157450458
H         4.92038697654509    4.32188413350921    9.58500033021420
H         4.00272048289537    3.28056735772651    8.48719150035708
C         5.52248317367893    2.25495964585807    9.63310585755420
H         5.54578624752200    1.40039592481423    8.95362347442237
H         4.85648639478802    2.00846856811476   10.46213125442392
C         6.92783908518342    2.52457562035053   10.15949467027936
H         7.30984784582208    1.63966179874756   10.67208507004971
H         6.89073991207586    3.34164154556480   10.88458319442520
C         7.88215483755976    2.90139732844591    9.02835176046690
H         8.87087905406593    3.08677798651468    9.45154759500049
H         7.96635115948735    2.07549641168767    8.31743380426240
C         7.36226011290086    4.13535267264597    8.27980058456825
H         7.30456568492140    4.98791115718255    8.97869494857392
C         9.47634078183429    4.60621705027945    7.30051815969986
H         9.94891095353157    4.39640207412330    8.25863121126168
C        10.35159434884761    5.00356619865635    6.22321060965576
C        11.67996937671450    5.35710084933350    6.48054796544749
H        12.04984087868016    5.31861543854518    7.49499243488435
C        12.50204980710344    5.78192332341343    5.45625448976040
H        13.52145380221032    6.06741787389897    5.67013959050470
C        12.02377124939609    5.84674436299401    4.15644711885843
H        12.66756313088943    6.17805850673293    3.35579454491591
C        10.71548305612486    5.47754383717824    3.87895296653681
H        10.35135011959370    5.51049298573404    2.86179348137395
C         9.88309884206859    5.06497277137543    4.90094057937458
H         8.87824700785692    4.65527790857805    4.63858580381554
C         4.89412226163336    6.44864593260149    7.90990100712358
C         5.77311877867822    7.39850636815822    8.41945249752133
H         6.77118273218252    7.47920846684975    8.01085706941734
C         5.36563626923808    8.25801238219390    9.42548421820777
H         6.05471632613265    8.99627842704024    9.80829044894832
C         4.08126502848585    8.17402278912325    9.93438447891265
H         3.76141124095508    8.84645237297812   10.71701247002652
C         3.20375354780538    7.22382031141447    9.43593084827334
H         2.20134984657399    7.15202516782587    9.83295187221294
C         3.60503080434229    6.36216924046370    8.43231461514002
H         2.91466688955436    5.62321018852436    8.05181294485067
C         3.95605085802947    4.76624382190506    5.81858754030209
C         3.06654559642813    5.77205005657829    5.44039317524783
H         3.28793961951722    6.80116311607294    5.68878037995172
C         1.90678479339214    5.45917038041609    4.75704768447243
H         1.22167848502762    6.24619958421431    4.47545404786706
C         1.62857247382030    4.14179265677363    4.42927338784044
H         0.72140080247252    3.89678200360367    3.89620318203915
C         2.51950925693689    3.14235846704146    4.78100913394619
H         2.31284765746957    2.11616519696301    4.51486705362891
C         3.67891217553830    3.44805629930537    5.47141916817749
H         4.37238777641739    2.66094200523448    5.72031082005028
C         5.50350633865514    7.66132023491010    3.59911759329210
C         5.24928588545586    8.26065105730728    4.82464617501421
H         5.73022262260823    7.86971877006681    5.71256759478826
C         4.40992893968490    9.35895632188179    4.90228469873448
H         4.21623001998802    9.81933681417248    5.86051809325587
C         3.82422192955419    9.86319448421067    3.75389529277520
H         3.16584118436015   10.71783007308154    3.81165405610410
C         4.09059210005715    9.27833781222810    2.52464792215151
H         3.64188892615785    9.67994344549877    1.62742343753367
C         4.93274930594150    8.18619497569713    2.44220574671441
H         5.14913130538543    7.73547655986379    1.48318456767513
C         5.75014697457441    5.04750051962370    2.46183390876376
C         4.36926602594567    5.04765093221824    2.32119527875797
H         3.77978552761283    5.82461657336245    2.78566089769654
C         3.74797883445790    4.04904825639142    1.59165666648529
H         2.67263594560859    4.05654859949217    1.48690488874600
C         4.49611181909487    3.04134657296026    1.00886728592372
H         4.00673483416415    2.25964519420429    0.44616437085582
C         5.87436119480303    3.02924776304410    1.15522002606719
H         6.46014637927859    2.23677402122195    0.71277488883863
C         6.49822159490092    4.02281706098521    1.88287286380585
H         7.57367312684661    4.00765084787642    2.01510824882658
C         7.84688474596817    6.96958848626891    2.34424325571478
C         8.77184573235478    7.86365409522505    2.87912862461131
H         8.76940636058814    8.06002398966514    3.94257500580280
C         9.69024250032209    8.49325314054166    2.05999842761176
H        10.40566952459877    9.18063244664762    2.48690123658945
C         9.69314775639401    8.24055903114107    0.69799113775711
H        10.41279053957025    8.72786171472332    0.05624414161396
C         8.76657882063249    7.36392774439251    0.15885599811363
H         8.75988502972042    7.17017071309259   -0.90435141392360
C         7.84240678672865    6.73281534535159    0.97332377220367
H         7.12322877926571    6.05326980634934    0.53807475613999

