66
CSD_code = AJEVEQ | q = 0 | S = 0 | Stoichiometry = C28H32Cl2IrN2P | MND = 8
Ir        1.50055429391014    4.04521028998224    2.65693065514490
Cl       -0.19120139584296    3.77582148879991    4.29454580945162
Cl        0.07371174900587    5.29539286384119    1.25838110760847
P         0.38484099893752    2.23225613198624    1.82187013931774
N         3.79688815693329    0.10838359467430   -6.08519327217888
N         4.77042438455654    3.54906753927969   -5.89667214317343
C         3.13229449334795    5.59533889980860    2.61356686483335
C         3.46445671757628    4.47701128393343    1.75968351182788
C         3.64344387499961    3.32641368762148    2.58839644881810
C         3.28767556562302    3.69395571278035    3.91825964496704
C         3.01023487809002    5.11412776737818    3.93316701358433
C         3.04610753101187    7.00701484644464    2.13614703755335
C         3.83441414002828    4.59437754202522    0.31763309772261
C         4.21322570889023    2.02067938795897    2.13952308675119
C         3.40508626743386    2.86219822557009    5.15304520460806
C         2.76971450870630    5.89802598992759    5.18150934984826
C         0.44254950284165    0.75746905698832    2.89812639973379
C        -1.39880569187634    2.35115005009446    1.45670209216467
C         1.07349566220213    1.69553050627203    0.22722797788418
C         1.01979739872216    2.61406239357903   -0.81986933726303
C         1.55973340682405    2.30558905194795   -2.05078102048520
C         2.17095406352510    1.07015342413381   -2.26663492604472
C         2.23380576581790    0.16072735807041   -1.21379144503086
C         1.69832912676226    0.47127121131815    0.02272904588714
C         2.73800374807265    0.73747847558604   -3.58035921668437
C         3.41161153188809    1.69062136333988   -4.33679764746566
C         3.92377152995834    1.33588768443806   -5.58297336838424
C         3.15942835205092   -0.79534166103805   -5.36720729762879
C         2.61303774303975   -0.54353534581849   -4.11960073219862
C         4.63017692671990    2.32669146733393   -6.40701383406936
C         5.39263461145574    4.46248558760100   -6.61514201102645
C         5.91266727229950    4.22248070700609   -7.87909517159620
C         5.76979973125179    2.95035766706310   -8.41291257318700
C         5.11913908060546    1.98397103881850   -7.66840830855173
H         4.01173849929202    7.31955123820867    1.73618288936736
H         2.76576813210183    7.67965353777555    2.94244503775031
H         2.30464625975873    7.09856616971651    1.34263572570559
H         3.16929471226757    5.28942161103784   -0.18993913911604
H         3.77306332969503    3.63029280622859   -0.18263401470326
H         4.85589891645767    4.96820254414358    0.22295061668514
H         3.82519084738632    1.73297263864066    1.16359408989904
H         3.99173869307434    1.22688826022486    2.84905086349382
H         5.29807338021851    2.10929607737283    2.05774718754136
H         3.51053281420673    1.80704275579637    4.91331852609250
H         2.52315696843579    2.98649632286358    5.77926478935691
H         4.27673678742335    3.17468477214057    5.73069468731601
H         3.68417307313564    5.93872299603422    5.77620933720034
H         1.99433365771099    5.42795193513090    5.78494251239480
H         2.45490641374339    6.91342917509970    4.95514418498168
H        -0.07486698274164   -0.07785873937961    2.42881754141077
H        -0.05426395858417    1.02537009434397    3.82915340422087
H         1.47273020357189    0.48696855336835    3.11567862533362
H        -1.57172541785230    3.15105906996899    0.74021009468866
H        -1.91975138096976    2.58721421126491    2.38343755212699
H        -1.74648862671037    1.39938011225800    1.05463663084123
H         0.56253073185192    3.57816151993745   -0.64562108710024
H         1.49816711906069    3.01798491819503   -2.85967141789640
H         2.72861755600624   -0.78924671530771   -1.35722098623714
H         1.76868829486241   -0.24803310268936    0.82470895939179
H         3.56353657952847    2.69649772678887   -3.98060573563791
H         3.08049325324814   -1.77585971789903   -5.81980769043847
H         2.08207484057547   -1.31826524392089   -3.58828221197188
H         5.47753790371753    5.43783111094316   -6.15241129462406
H         6.41230668476260    5.00672990918591   -8.42630141431159
H         6.15944260865414    2.71866748843726   -9.39399550965939
H         4.97631647066925    0.97870067494404   -8.02942493646101

