57
CSD_code = AJEXOC | q = 0 | S = 0 | Stoichiometry = C24H21BClN7O2Ru | MND = 6
Ru       -0.31943339890566    0.20198139789430   10.39432071143917
Cl       -1.89100303733702    1.56562878756421    9.31904750626623
O        -0.82972042569104   -2.01214192678105    8.72138856064184
O        -1.42916939515542   -0.33759766526741   12.92243349781324
N        -0.60901588835054   -1.09360440846348    9.39159453745468
N         1.19243173268580   -0.75779582840947   11.48331960295063
N         2.28418135146088   -0.10114672362557   11.87661744247004
N        -0.00689422744429    1.77196879214873   11.68357881450696
N         1.21605547241842    2.11294674452695   12.10987067307327
N         1.37868750178583    1.25649272958571    9.34770968912517
N         2.45976115414648    1.58837381789127   10.05850607619678
C         1.30214712755004   -2.02137088066990   11.87386104839831
C         2.50866878893355   -2.18978115084876   12.54802616962765
C         3.09841495879243   -0.94193741410786   12.52626023070933
C        -0.87948236091184    2.60413863225405   12.24502225301785
C        -0.20352529570107    3.50989893994503   13.05558559127349
C         1.12635109002462    3.15944226355067   12.93787202310612
C         1.59891701626088    1.58503734926904    8.08516507920154
C         2.86775226303429    2.15181224442853    7.96614542618887
C         3.37746929788552    2.13482589602366    9.24778383284465
C        -1.71158166057550   -0.44554358024874   11.76383840017353
C        -2.91121017729505   -0.97399000235672   11.13184261299395
C        -3.16447968065368   -2.28038180867017   10.92686548522212
C        -4.25624259756709   -2.71783259246267   10.04994041521733
C        -4.94920757859064   -3.89524389302480   10.33004578389833
C        -5.97952901794343   -4.31425863811790    9.51031609668508
C        -6.32641362418920   -3.57212893262756    8.39315239539501
C        -5.63616355523462   -2.40720146275070    8.10014483689620
C        -4.60947592473657   -1.97998746671126    8.92054255051694
C        -2.31168473784994   -3.32494831645409   11.52435603871554
C        -1.78529634034961   -4.33217382736395   10.71730782082837
C        -0.95689925983874   -5.29903787530305   11.25632331370174
C        -0.65504967661287   -5.28189467387551   12.60881923816860
C        -1.18821468811867   -4.29407965485938   13.42031831694558
C        -2.01096325659087   -3.31937184166061   12.88432657770599
B         2.46972862980138    1.39867868859637   11.58217480004443
H         3.45752712243901    1.81797455525815   12.07233732479649
H         0.53301400801857   -2.74194641069704   11.66604170157417
H         2.88935479531987   -3.08873290421178   12.98518526022394
H         4.03277389228911   -0.60820685688578   12.92887894936698
H        -1.93308636218231    2.52981510114974   12.04300200426825
H        -0.62367963518516    4.30186755910696   13.63934174814134
H         1.99991549257772    3.58662138356722   13.38692957750181
H         0.85232025002884    1.41272618727671    7.33305058719971
H         3.33791234833305    2.51941849211712    7.07807583639052
H         4.32005950201636    2.47375659022100    9.62671201333201
H        -3.52997021577276   -0.21427625147885   10.66534280267614
H        -4.68237559195425   -4.47283362362591   11.20351008392915
H        -6.51337542918987   -5.22443527778195    9.74211260838515
H        -7.12847447449191   -3.90353776195192    7.75024103397246
H        -5.89618363484918   -1.83101120748063    7.22438500609784
H        -4.05909480907779   -1.08431796298451    8.67156358461035
H        -2.01698774498270   -4.33973492959662    9.66214803254003
H        -0.54631757657026   -6.06907413854660   10.61967665277458
H        -0.01020628985765   -6.03970548615259   13.02906955955373
H        -0.96263940209827   -4.28158316451716   14.47641245799137
H        -2.43169682801287   -2.55605960777610   13.52005972356288

