25
CSD_code = AJIBUR | q = 1 | S = 0 | Stoichiometry = C8H12AgN4(1+) | MND = 2
Ag        2.09630317538583    8.35797774418797   10.51287594592914
N         1.31616751392993    8.40850969682540    8.50579096326811
N         0.57476992886000    7.89496452642636    6.51679759475425
H         0.29302749679769    7.34678835162255    5.71893707037233
N         2.88508184090412    8.40699707933943   12.51635086202619
N         3.58154692946288    7.91285885364792   14.52631922089921
H         3.80922746726252    7.37663251558504   15.34917378159819
C         1.00605984626167    9.56650960577429    7.83974676325428
H         1.13564180599173   10.52966996583103    8.29289067127407
C         0.54328039899099    9.25771386179487    6.59999537415196
H         0.20558494921286    9.87806439662604    5.79690883101808
C         1.04493126798748    7.41188064257946    7.67981162223912
C         1.22448339576161    5.97102397090125    7.97203393360464
H         1.64466434893426    5.85218128000935    8.97214526749261
H         1.89904364783364    5.51313391356888    7.25037890308499
H         0.27089547273709    5.44721658100647    7.92568910214249
C         3.32040681499512    9.55598649048362   13.12567520083642
H         3.29003350332175   10.50486970827297   12.62708540723002
C         3.75627206765272    9.25911126199887   14.37797926858642
H         4.16311228577652    9.87767689712197   15.14975715937861
C         3.05508522178367    7.42757891309537   13.38860724352388
C         2.72232565741607    6.00149499573633   13.16690761979922
H         2.28821228954423    5.87899445543386   12.17339445884189
H         2.00555915703150    5.65384355482165   13.90918290994257
H         3.61498351616239    5.38222073730977   13.24066482474901

