84
CSD_code = AJIBIE | q = 1 | S = 0 | Stoichiometry = C43H35IrNO2P2(1+) | MND = 6
Ir        3.29356640137314   10.57524748422168    4.90614248826108
H         2.34970275806164    9.67745851239652    5.72683379982449
C         1.74064450582659   11.88529261993299    4.71760734387430
O         1.54804245227320   12.80209829146692    5.51413870059475
N         4.56243232538892   11.96133466257108    3.77033701001376
C         0.85843427089165   11.78796044327237    3.52797925487303
O         3.29724211377898   12.34366122945438    7.24874675521288
H         2.49027739096812   12.68393901620570    6.70618134880127
P         5.11131647277391    9.00301878758599    5.32691670564238
C         1.07803009359651   10.81049045102614    2.55204735123493
P         2.46307654410625    9.67620552828203    2.86459354392460
C         0.24005761351660   10.71880723780490    1.44982353523626
H         0.40881889537827    9.95191981591674    0.70668663814873
C        -0.81071354246369   11.61002211206836    1.31016490421684
H        -1.46315897052854   11.53928721298984    0.45316563817001
C        -1.03069176099349   12.58858544353356    2.27000158635122
H        -1.85386918521414   13.27719499068251    2.15716448006784
C        -0.20401483908667   12.67973878172232    3.37315968868677
H        -0.36861045315670   13.43042655768106    4.13192340678928
C         1.60818081327757    8.08060023525113    2.64682852153124
C         1.55684459584050    7.41399443306964    1.42665932445051
H         2.07661257918070    7.80675182216676    0.56379309595297
C         0.84066184408888    6.23465904525176    1.31838971861251
H         0.80376460459127    5.71880610626473    0.37058271690403
C         0.17193479512549    5.71886786342916    2.41639727421957
H        -0.38417637133350    4.79850082189707    2.32439866870241
C         0.21655676036467    6.38504141630253    3.63115558702721
H        -0.30435395764238    5.98656826468031    4.48831942515455
C         0.93115873922610    7.56215381002068    3.74760529073634
H         0.97904338945616    8.08489430634945    4.69300554743209
C         3.49396188823502    9.80908550668444    1.37278900278242
C         3.45222767884194   10.92237421995750    0.54095807501537
H         2.71862829464473   11.69828298045096    0.71322729607956
C         4.34437669191871   11.03172072221180   -0.51192425416453
H         4.29848669379412   11.89071955835263   -1.16432379642429
C         5.29367744549977   10.04648575046275   -0.72822405684214
H         5.98655626806422   10.13626906749564   -1.55076202141303
C         5.35504847403822    8.94463682665383    0.11185279083861
H         6.09875345016879    8.17890695689832   -0.04968158764127
C         4.46352325222053    8.82877862779656    1.16041547412303
H         4.51171526045268    7.97325694591725    1.82249110719353
C         3.87201865363767   11.35755470358796    6.65528335973072
C         5.04000877853711   10.83530368079695    7.37425526213467
C         5.75165331939099    9.73885501072619    6.86078128178117
C         6.88463195164175    9.27357155804980    7.51378599086399
H         7.43909155710051    8.44209438730723    7.10050719673793
C         7.30603148678107    9.87873525159240    8.68677016834202
H         8.18486688977909    9.51090251951923    9.19426946526450
C         6.60042706562780   10.95404576014554    9.21039798438425
H         6.93119675350965   11.41973846118665   10.12583961416567
C         5.48022201740194   11.43317918776948    8.56172011867596
H         4.93196573605865   12.27347940557502    8.95944075849005
C         4.58055155805169    7.33173885056297    5.82256304602181
C         3.90180032021652    6.58994873931087    4.85779400039550
H         3.71874282460188    7.02573586667842    3.88354689434950
C         3.44284092647154    5.31891740235007    5.14276001155837
H         2.91840313770351    4.75446933663002    4.38618807332859
C         3.64860265832786    4.78077461332346    6.40308898225777
H         3.28987527989360    3.78912818436088    6.63200367529154
C         4.30336777491022    5.52175902805541    7.37270799371854
H         4.45178460397083    5.10804533320169    8.35866350260504
C         4.76712198380974    6.79543962993372    7.09060275442462
H         5.26254994856551    7.36764649191163    7.86075472956922
C         6.66735503639489    8.68245465685054    4.42668679517157
C         7.62168954565978    9.69908652124385    4.38421403733601
H         7.45701112121351   10.61224116761628    4.94277211784487
C         8.77732733293586    9.53973981682853    3.64472690322811
H         9.51641646232438   10.32670710572246    3.62758218580406
C         8.98757592674126    8.37121704018005    2.92875084238924
H         9.89047384773311    8.24739982365317    2.35094533318567
C         8.04055043632990    7.36152955638456    2.96219069167458
H         8.20545004625919    6.44720431456609    2.41225976622002
C         6.88151346097444    7.51450258868857    3.70332959494593
H         6.15410288604563    6.71588071188532    3.73586041535006
C         4.43257155248135   13.28448599505410    3.89019970778234
H         3.67513317025995   13.64806320313264    4.56948039692082
C         5.21197174150337   14.18655253588138    3.19001509782666
H         5.05737752407225   15.24458010213297    3.32784300004265
C         6.18152810476352   13.70884757552258    2.32160756300719
H         6.80552443800757   14.38642924994952    1.76009678087430
C         6.32646241591462   12.33715567933431    2.20121849017363
H         7.06528049064815   11.90161548049798    1.54829470221904
C         5.49924724778615   11.51001875444576    2.93917094066589
H         5.60311570946804   10.43848025140237    2.85276239316053

