31
CSD_code = AJICON | q = 0 | S = 0 | Stoichiometry = C12H12Cl2N4Zn | MND = 5
Zn        3.08860925199084    8.78682749907016    8.07952193463333
Cl        1.25596046452649    8.93622120179604    6.77248680306561
Cl        5.18401356899090    8.98657839924349    7.39883085777789
N         2.86353194476374   10.71182586160896    9.09208420597186
N         0.99639251786680    9.71533399800455   10.01753528014391
N         1.61313615509701    8.59202802953631    9.72115499897907
N         3.07207336547416    6.69493818998856    8.64884997199084
C         3.62435590344000   11.76332341628813    8.82863653461508
H         4.53206259815742   11.55022569313971    8.28129303625352
C         3.28795454305803   13.04495262832052    9.22382057730425
H         3.92864396377168   13.87768176966495    8.98660083016519
C         2.10971642780033   13.22105412953043    9.93649735439176
H         1.81410920021176   14.20235875345788   10.27628673427757
C         1.31567749836593   12.12708458662906   10.22129702129039
H         0.41564090660969   12.25128547395450   10.80032249719009
C         1.72236219591436   10.86956455092923    9.76532508680600
C        -0.41691894546017    9.73125148903724   10.32782042889581
H        -0.92464798589985    9.03784580931759    9.65339813243545
H        -0.82764185609928   10.72107601491824   10.15785573553739
H        -0.59579978935707    9.43026251977183   11.36318208808344
C         1.14827911175464    7.40848822635134    9.83493380372594
H         0.16817672900271    7.15234554619151   10.22961498087750
C         1.98595108923065    6.33460427361487    9.34325784941407
C         1.66766601526978    4.99120890997442    9.54830125927260
H         0.78011392886031    4.72663358052792   10.10240023836919
C         2.50457565596703    4.01881235719104    9.03218067514156
H         2.27911918593154    2.97227134388201    9.17441478489778
C         3.63541748157452    4.40980692680080    8.32989528948485
H         4.31305418999352    3.68246713839115    7.91320873474675
C         3.87439681149878    5.76590682291800    8.16177086109316
H         4.73621787141380    6.12853485919157    7.61832141316754

