45
CSD_code = AJICAZ | q = 0 | S = 0 | Stoichiometry = C19H19IN2O2PdS | MND = 4
Pd        0.01981022681898    1.84782715598853    2.02712623025996
I        -1.80167667821333    1.08745567802768    3.65560247527640
N         1.77032651630443    0.97100962138108    3.10897021947207
C         1.69631015620217    0.29151651400875    4.22978785014206
H         0.75151433857170    0.32302217700713    4.75954159489870
C         2.76492856683014   -0.45160714990206    4.75458378076735
H         2.62937839244949   -0.98561102066714    5.68100834160851
C         3.94872219731148   -0.48731194163554    4.07187384523648
H         4.79353898368746   -1.05617491560682    4.43160798130335
C         4.07092370517031    0.23662279750174    2.86694923996546
C         2.93926983379191    0.97276934669003    2.41787065178025
C         3.06156812476211    1.72039281236859    1.22209369729154
C         4.22411144956321    1.69249476784567    0.49357711046388
H         4.28247521992383    2.24607067908033   -0.43109869698136
C         5.32784695720425    0.95321091615675    0.93626581000122
H         6.23124448368572    0.94978016059660    0.34653478196653
C         5.25579655128336    0.24584313006157    2.10452387867771
H         6.10096362435339   -0.32426007854873    2.46024524800902
S         1.69401816911690    2.67965282298816    0.58777737399918
C         1.96189819821125    4.35341551910632    1.39775412587899
C         0.96069613509002    5.26033629378834    0.69320550034945
H        -0.05493782353710    4.88657933896269    0.82430534683458
H         1.17105109816949    5.30929215582592   -0.37309542347996
H         1.01739953445250    6.26637928239564    1.10387311758906
C         3.38701113884889    4.81251975060915    1.13336722634315
H         3.51571049105181    5.82452374843253    1.51295485564829
H         3.59705017194433    4.82155382948503    0.06604598199065
H         4.11392615278055    4.17040173784337    1.62820565140018
C         1.67108952665944    4.26787694604263    2.89163854395045
H         1.72209253813177    5.26491605761563    3.32894853974005
H         2.40693222485595    3.64287182993364    3.40167780436778
H         0.65366799336694    3.86630140716128    3.07629916298745
C        -1.43477387794475    2.43240331344604    0.83286374351108
C        -2.21608198939850    3.57071460138050    1.01398370390418
H        -2.12389902507922    4.16345876249380    1.91956923574401
C        -3.14458299267163    3.92904363416740    0.05618384346089
H        -3.76016203498783    4.80827960384529    0.17153162484959
C        -3.30015152130553    3.13445326835973   -1.07571316095993
C        -2.55294478946400    1.97150416812214   -1.24598798902247
H        -2.71557294086032    1.36421607360089   -2.12370160309690
C        -1.62322237250161    1.62409427296995   -0.28720833130949
H        -1.04084892608107    0.70784322154851   -0.40361791447885
N        -4.24975541468755    3.51411444379193   -2.07821130061850
O        -4.86345955349953    4.55136281620624   -1.91698872932136
O        -4.38240276035778    2.78474044953052   -3.04212497040624

