30
CSD_code = AJIFAA | q = 1 | S = 0 | Stoichiometry = C11H12N4O2Rh(1+) | MND = 4
Rh        2.02495854982464    3.19748734461327    6.40557316533529
O         4.09897535054971    1.07182553966328    5.98204707981419
N        -0.60488931240978    2.02260120333254    5.76321420631891
N         0.30158642348459    0.71149589682917    7.19797079236582
C         3.31465268159802    1.87040193581630    6.17642783916349
C         0.50944855437582    1.84667237084997    6.51472635655109
C        -1.49325532185632    1.00422638502198    5.97518331569873
H        -2.43858505659550    0.94229513386592    5.47743260334649
C        -0.91528447396627    0.17460626566104    6.87687960864474
H        -1.27502344143109   -0.73609463379393    7.30921838769989
C        -0.80506357391043    3.19748588190010    4.94652737242315
H        -1.82098282419259    3.19749166830298    4.54266287709234
H        -0.08042655392818    3.19748134932531    4.11667763661112
C         1.21191377808580    0.13357765157157    8.15120601689451
H         1.66324395529717   -0.77460821876009    7.74769315914708
H         0.68077146521188   -0.11873677975880    9.06885741457286
H         1.99656616442425    0.85806246504527    8.38010432202858
C         3.31457043917306    4.52468598412985    6.17663880361433
O         4.09910596997364    5.32312016261410    5.98256309745389
N        -0.60488302775742    4.37237307232583    5.76321086764135
C         0.50943954538265    4.54829984355798    6.51474872645306
N         0.30157715423846    5.68349823972521    7.19795694340925
C        -0.91528442344073    6.22039177089751    6.87683527213264
C        -1.49324185235086    5.39076332282909    5.97513867636564
H        -2.43855984194468    5.45269650755962    5.47736529643109
H        -1.27502475560232    7.13110290500576    7.30915163050232
C         1.21189083686933    6.26144030315728    8.15118948655335
H         1.66331169086451    7.16955203135450    7.74761175979263
H         0.68071483940677    6.51388199234934    9.06878566310505
H         1.99647706062564    5.53692240500828    8.38020162283742

