83
CSD_code = AJIFOO | q = 0 | S = 0 | Stoichiometry = C44H32N2O2P2Pt | MND = 4
C        -1.67022759270519    0.33751634998916    8.41071789841802
C        -2.20102480415207    1.12891263217355    7.39651065862650
H        -2.13396513071532    2.20577514619891    7.46341433927671
C        -2.82746197407172    0.54665634610634    6.30904808392510
H        -3.23389967112018    1.17137343771775    5.52712299927968
C        -2.93339449052348   -0.83215147808579    6.23060356492126
H        -3.41111430002130   -1.29165842401110    5.37818606669658
C        -2.45173492172689   -1.61840308985303    7.26062333198449
H        -2.57720500930000   -2.69092092460684    7.24604992546228
C        -1.81151005602292   -1.05491202618525    8.35881032977543
C        -1.51185595639436   -2.00152587942603    9.50189269490804
C        -0.24500264235720   -2.46380362805488   11.47952483258032
C        -1.24828872254517   -3.07740000763127   12.21588317695351
H        -2.26801463542525   -3.02083590037908   11.87271290021338
C        -0.94288185579608   -3.74942749779141   13.38778831421294
H        -1.73570327356278   -4.21438782225265   13.95526341726358
C         0.36428528516853   -3.81417566391900   13.82840452825981
H         0.60604045366095   -4.33165587790822   14.74530832323322
C         1.37950445312727   -3.20752938752317   13.10593667454277
H         2.39550032602551   -3.26027702871319   13.45798830305287
C         1.09376857440605   -2.52305038519850   11.93189169081840
C         3.34532186893668   -2.19678160641332   11.17086701687135
C         4.32076192801024   -1.44206832621956   10.29073554575577
C         5.41533005100483   -2.18908343648970    9.86149767940478
H         5.42793902513609   -3.24281373612318   10.09741427632568
C         6.46186701663511   -1.60538752573339    9.17483564377690
H         7.29035302245050   -2.21003318828176    8.83734689012629
C         6.45511599650183   -0.23947041296192    8.94094506774675
H         7.28217974222180    0.23308131024887    8.43188946255953
C         5.38136646068966    0.52146450783604    9.36163858975267
H         5.37633062117653    1.58784840711381    9.18307564232200
C         4.30211044962001   -0.07107621884390   10.01625837392467
C        -1.81109776716520    0.80583391610653   11.23611661527452
C        -3.19456088673319    0.89876656697280   11.13889850922146
H        -3.64980839341744    1.16056886933155   10.19312760008039
C        -3.97732946031578    0.63564932086114   12.24881680695625
H        -5.05294895230833    0.69537956553212   12.17286371706896
C        -3.38564614943139    0.27924719804584   13.45015206948118
H        -4.00263719228905    0.05801429674435   14.30811286997650
C        -2.00572854751502    0.19221988694931   13.55149252826309
H        -1.54588168681676   -0.09777869970239   14.48419162872750
C        -1.21830711877067    0.45461799871541   12.44708948302893
H        -0.13193873042380    0.37301318010532   12.50950899243156
C        -0.63322662866352    2.81411404608789    9.54941581403930
C        -0.07408118312541    3.30945685877083    8.37358362914842
H         0.23164582450900    2.61759333020288    7.60130627609942
C         0.08321436557664    4.67051558449662    8.19848017547590
H         0.50096553406354    5.04967258204852    7.27802516040885
C        -0.28936166843915    5.54715998097375    9.20529038508478
H        -0.16027443118641    6.61049414935766    9.07003376584492
C        -0.82584135061118    5.05916557482006   10.38496035342404
H        -1.11326359594379    5.74140141761197   11.17143543087125
C        -0.99933188542995    3.69764196259440   10.55959343533723
H        -1.42598964952216    3.31646460499223   11.47738541562213
C         3.02085462786423    2.37032863277716    9.37949011501503
C         2.87754518442416    2.12684541261220    8.01465057336688
H         2.63775903864340    1.12044390357749    7.68840502162469
C         3.05105094493102    3.14994929256169    7.10418485762463
H         2.95735719759943    2.95635067837066    6.04567921546961
C         3.34291207633269    4.42928086562174    7.55421364444622
H         3.48202696687144    5.23163118215600    6.84480571182214
C         3.45674715141577    4.68003825280489    8.91100352380963
H         3.67755533786802    5.67834536762291    9.25884840547184
C         3.30342056225485    3.65320191016005    9.82737875458593
H         3.41294460667835    3.84629332744838   10.88492121818333
C         3.09969327155641    1.51188105427678   12.14073349125538
C         2.09811583972313    2.31970125907495   12.67913920327715
H         1.25726472131532    2.60303607698535   12.05479822862274
C         2.18717320550576    2.75066373786223   13.98818207203853
H         1.41214940173388    3.37701599472707   14.40515051213913
C         3.26847950340835    2.36801983962814   14.76860401283600
H         3.33430041229634    2.69794697915091   15.79465161917548
C         4.25872256684751    1.55759202825079   14.23870018973126
H         5.09492298266003    1.25550012186675   14.85131820019613
C         4.17840947623734    1.12494321877138   12.92583826142869
H         4.94432581131115    0.48426492179235   12.51185006692355
N        -0.49062921327694   -1.70783179484496   10.31774891535393
N         2.05516944190974   -1.83951605200049   11.15519501002152
O        -2.25243163135835   -2.97475288120920    9.61062612896508
O         3.82798479044619   -3.10829372304059   11.83917910023450
P        -0.72642088950472    1.01630002004083    9.79400892152696
P         2.84747861840037    0.91347425076196   10.44860814252598
Pt        0.99775731148824   -0.34976473415131   10.29201997750080

