53
CSD_code = AJIGAC | q = 0 | S = 0 | Stoichiometry = C23H25AuNOPS | MND = 2
Au        1.69918270152406    0.64140147668894    6.17131269129692
S         0.51669500920770   -1.34069080181992    5.90185423571008
P         2.88408484908296    2.53681367875840    6.52069185560604
O        -0.23747904534411    0.10075782531851    7.88851870091370
N        -1.37594835865617   -1.85913877821393    7.78722890888283
C        -0.50140015335078   -1.09983902020028    7.29682819114472
C        -1.69002968609347   -3.11734580327643    7.17192220286800
H        -1.95256034611360   -3.80690275175835    7.98058869508740
H        -0.82735570648355   -3.51600857640315    6.62092711309624
C        -2.87411562696885   -2.97034054240363    6.21403082103028
H        -2.58713838659606   -2.27963595619615    5.41840915454773
H        -3.71403199979701   -2.53119449301160    6.75718956347670
C        -3.27968012621478   -4.30975748305312    5.61612511552392
H        -4.11800554508972   -4.18492658336114    4.93409005827653
H        -3.57290075456373   -5.00512985977562    6.40015428536132
H        -2.44821578701675   -4.74372379458749    5.06547117621777
C        -1.02713195159526    0.42003133984067    9.01990557891084
H        -2.08659162109117    0.39267850766324    8.76002920520488
H        -0.73239575243065    1.42360025729389    9.32445213543693
H        -0.84691153827915   -0.29778531063466    9.82297718540080
C         3.24993594770896    2.85818489819451    8.26873463249584
C         4.19472024182553    3.80548752325372    8.65507032023078
H         4.73743923470069    4.36236151067293    7.90340672563422
C         4.43265922279374    4.02471151445117    9.99863089630950
H         5.16470128298104    4.75893854949315   10.30137337636722
C         3.73546782913236    3.30407320056968   10.95692327506550
H         3.92669572243631    3.47954458641128   12.00509425775206
C         2.79955070719993    2.35772532237439   10.57356704624298
H         2.26099739660510    1.79361262997340   11.32044026377114
C         2.55755547979703    2.13049106426046    9.23017199805590
H         1.83639273063589    1.38872003323715    8.91363778562218
C         4.53049480922613    2.57710512753340    5.75871518558210
C         5.22979589632862    1.37352040386110    5.73590272664580
H         4.75775646711194    0.48242460270996    6.13100217390111
C         6.50418017108987    1.32284778408729    5.20397177963678
H         7.04476174300916    0.38845590930268    5.18658837616801
C         7.08218932235945    2.47154994027717    4.68678297402663
H         8.07613468621269    2.43274266817627    4.26686835597143
C         6.38498593809917    3.66877699086458    4.70084723788584
H         6.83547094305850    4.56170969193370    4.29276527105059
C         5.11057424345075    3.72812624755271    5.23580632369496
H         4.56452775339126    4.66181480275899    5.23933817318416
C         2.09587559689756    4.05987902148858    5.93938417940563
C         1.59517705591524    5.03394134708964    6.79532523980357
H         1.72520007175515    4.93455295795693    7.86417295108369
C         0.93412474718707    6.13131264653478    6.27085530140757
H         0.54985726176721    6.89149074143694    6.93498664329396
C         0.76184348013204    6.25501232183054    4.90239231653239
H         0.24571687041221    7.11362678184907    4.49971267194193
C         1.24252746907198    5.27365174215032    4.04784867637534
H         1.09836376067525    5.36548184914631    2.98162174098310
C         1.89954679221281    4.17414076861843    4.56322272717611
H         2.27110895068952    3.39372148901646    3.91053152278443

