71
CSD_code = AJIHEH | q = 0 | S = 0 | Stoichiometry = C36H24Br2Cl6P2Pd | MND = 4
Pd        3.94365051714934    8.72413490242397    5.16442938841680
Br        5.21758329113409    9.63889085209188    7.02848436597717
P         4.62946558468244   10.48124355904333    3.91397225680778
C         6.43369659547934   10.60646521011360    4.09142014199092
C         7.09739968188672    9.37892330542711    4.10817021725914
H         6.51652722645280    8.45542660196032    4.02237914390822
C         8.46774242591184    9.32101909055894    4.25101841564236
H         8.98525348969906    8.37474288785921    4.26753892027858
C         9.17745763897787   10.50655622032750    4.39247599948601
C         8.52809722038922   11.73160777574465    4.40020796885033
H         9.09492023657272   12.63968778920943    4.53250976450409
C         7.15353529160065   11.78162563976881    4.24952125223329
H         6.64494928845049   12.73332806946605    4.27891879619272
Cl       10.89122261445059   10.45135501377455    4.57653793325778
C         3.88046242299561   12.04220987350877    4.45583118059415
C         2.99946803349184   12.01216027426788    5.53265438793332
H         2.80027189630921   11.06797764370529    6.04348302973239
C         2.37792284376735   13.16819151452613    5.96450356954850
H         1.69995875439514   13.15041022464379    6.80318719792903
C         2.63781958363813   14.36050318467033    5.30516989804101
C         3.49373352286102   14.40102667193858    4.21166850419556
H         3.66976294457993   15.33498964695688    3.70126063629147
C         4.10719408723996   13.24071657375161    3.78319813324991
H         4.75168594086201   13.25846213629057    2.91517453009097
Cl        1.87465927689674   15.81244399737325    5.83676479949662
C         4.38503331011726   10.58092775266011    2.11561404177524
C         3.08768072396426   10.79582165160884    1.65411130095490
H         2.27990985176370   10.91468381215050    2.36418232602901
C         2.82616122087239   10.84453725805089    0.30087644078726
H         1.82263077911411   11.00585123861602   -0.05905692048033
C         3.86979151228611   10.67077825058881   -0.59788104457299
C         5.16328678275119   10.44442500440239   -0.15304230942213
H         5.96216724557171   10.30445552845141   -0.86429435179807
C         5.41817211395969   10.39364866668320    1.20499746045479
H         6.42512736712823   10.21136503505263    1.55344591245905
Cl        3.55320603594937   10.73476693936502   -2.29120749608064
Br        2.66915385823457    7.80974430551004    3.30024593987518
P         3.25741703602223    6.96733470529538    6.41487676169739
C         1.45315416041672    6.84195396612312    6.23785771493222
C         0.78946159337803    8.06949338644131    6.22060414479349
H         1.37037695957418    8.99302568611274    6.30570820477296
C        -0.58092959576377    8.12735802201203    6.07819754058923
H        -1.09841357096545    9.07364211473692    6.06130499887511
C        -1.29073129591637    6.94175754818585    5.93771752211894
C        -0.64140591844219    5.71668091494200    5.93052722217722
H        -1.20831849572156    4.80854257088426    5.79899646033399
C         0.73321387029311    5.66671146736835    6.08074434827116
H         1.24174045634473    4.71496103012054    6.05183259111157
Cl       -3.00455221630423    6.99690680512108    5.75415661703848
C         4.00641453711032    5.40613202934249    5.87367090121895
C         4.88732050495513    5.43577418966106    4.79676071682046
H         5.08622337982970    6.37972163638726    4.28538895491897
C         5.50921329875513    4.27966382135479    4.36561069246561
H         6.18716791291726    4.29712897379085    3.52691236324830
C         5.24973341136185    3.08768669991452    5.02571586985104
C         4.39383953733247    3.04756709198228    6.11924829773126
H         4.21811452827038    2.11385882247610    6.63023044547962
C         3.78003769971770    4.20795720109398    6.54702609994481
H         3.13561617346970    4.19054156221460    7.41510816236535
Cl        6.01333525108669    1.63564830623140    4.49500269461031
C         3.50233211229394    6.86840133455212    8.21321157846590
C         4.79992736535398    6.65414985645137    8.67434017947903
H         5.60748680286440    6.53526816196749    7.96403164856676
C         5.06196840537264    6.60615614949826   10.02749405500320
H         6.06569618154658    6.44539490750349   10.38712200638776
C         4.01859703611257    6.77992995328897   10.92654999161551
C         2.72487162942170    7.00568338549659   10.48208080268871
H         1.92620941770918    7.14571823590210   11.19356422873145
C         2.46946831989885    7.05578330664552    9.12410759280658
H         1.46234176489705    7.23766660309012    8.77594242715796
Cl        4.33581053521578    6.71669545127393   12.61978443184032

