128
CSD_code = AJIHEG | q = 0 | S = 0 | Stoichiometry = C91H32O2P2Pt | MND = 4
Pt        4.76768688290631   12.35943103132642   25.23732391114009
P         5.77000770278358   12.36484230187054   27.31063086075274
P         4.24743852273185   14.55668872270292   24.72898769366500
O         7.30893965448428   15.95069401162117   27.96905326534432
O         5.58496405826034   17.27513663478791   27.36615390296789
C         4.60659643190914   10.41682130511211   24.49881438738461
C         4.28614406852617   11.43666057133519   23.46597829358203
C         2.93560905241529   11.44092731314549   22.89760240676777
C         1.94237443871445   10.60010963115329   23.36459935578804
C         2.25255876227724    9.59307463085712   24.36583028452959
C         3.53932384397539    9.47505869876911   24.86208006079191
C         4.10563309826339    8.16546075721029   25.03566107723285
C         5.49528827619687    8.22846182188082   24.67083281358952
C         5.78817655192850    9.57561948552168   24.26823852812414
C         6.65735375652645    9.79478984668097   23.21494947403436
C         6.34910344839989   10.80273810039452   22.21379608776956
C         5.18529501045230   11.54400945653741   22.31082053043857
C         4.40627585052335   11.79303694122641   21.13087266495895
C         3.01715296430637   11.73005512671901   21.49332706653971
C         2.08871369619574   11.20129734863000   20.60450873230469
C         1.05321903585748   10.33376651079721   21.09183541109503
C         0.98998720459446   10.03489590737352   22.44985778788367
C         0.70606230786590    8.68787144264633   22.87371923701779
C         1.48652849010265    8.41828914625642   24.05465846331517
C         2.02565638834440    7.15078832130708   24.25137693320930
C         3.36525222354259    7.02351776048797   24.75207331503998
C         3.98954077495390    5.90700099556854   24.08618661823977
C         5.33049518638790    5.96805692873106   23.73621103771598
C         6.10093497739931    7.14899787877959   24.03753086075137
C         7.00980472246806    7.38044620287105   22.95043563725139
C         7.27347906694087    8.68501607214453   22.54404800352467
C         7.35121920311058    8.99494051376308   21.13888333019597
C         6.78008754693592   10.30221838917801   20.93818371195204
C         6.03738551728239   10.56429991048754   19.79060085965176
C         4.82521149491173   11.32786092377635   19.89043420702353
C         3.86466720702800   10.76880436705747   18.97133450544595
C         2.52361229374009   10.70659591018476   19.32154050099784
C         1.75335194553933    9.52650195574012   19.01923534128586
C         0.84450123689310    9.29634420078195   20.11534153750524
C         0.56988741282756    7.99872960970756   20.52663609619091
C         0.49578353119544    7.68987167800333   21.93299925672204
C         1.06401539888446    6.38012427353561   22.13314869567884
C         1.81512890827161    6.11723852175500   23.27116697408126
C         3.02972315532545    5.34642855501155   23.16867295021495
C         3.44731491427469    4.86893835732574   21.93396531225402
C         4.84119346824046    4.93324546390562   21.57000736912103
C         5.76515848546144    5.47221627551927   22.45459511417853
C         6.80360154300901    6.34736297410087   21.96892157090198
C         6.87825782597844    6.64874931906719   20.61534867152805
C         7.16094759023182    7.99795368200840   20.19292011306290
C         6.38368859747192    8.26761918426402   19.00891800023896
C         5.83236212764446    9.52710896121468   18.81319192685175
C         4.48829204878560    9.65318832272274   18.30521739815886
C         3.74708254405437    8.51615666909969   18.01374534323327
C         2.35334481918928    8.45165233979902   18.37754821081403
C         2.06694567217716    7.10549016662285   18.80509916838236
C         1.19100406838111    6.88410176960214   19.85950789981819
C         1.49655748309980    5.88347913562028   20.85271546481044
C         2.66642602051231    5.14207502692704   20.75386992798892
C         3.57650984567921    5.37442572807948   19.66079262078909
C         4.92031243420392    5.24632307684715   20.16548678353493
C         5.92076513308033    6.08805702429385   19.69780787342609
C         5.61516565448021    7.08871632055365   18.70462525581467
C         4.32077699421709    7.20979603713227   18.21682220772341
C         3.28238557465285    6.33765624023852   18.70472859013098
C         5.43702626634139   11.11597246793810   28.59007848960729
C         5.51969359467286    9.79090792920979   28.16395405105839
H         5.79733765025250    9.58626891909374   27.13832456778856
C         5.25432005077034    8.75561842650225   29.03669162544990
H         5.32370316732291    7.73281192671188   28.69719549082698
C         4.89225372712652    9.03361711568264   30.34625065083023
H         4.68029726244086    8.22695810857185   31.03209035028375
C         4.79678743659592   10.34698292532193   30.77260857603041
H         4.51076631947127   10.56417477661722   31.79161810692235
C         5.06348508745635   11.38911880135308   29.89997284605920
H         4.98005981478738   12.40807276809451   30.24768367347095
C         7.50257251994027   11.99280969957048   26.89214422213051
C         7.87257636045828   12.06799637451066   25.55267983610803
H         7.12364963937295   12.35890051782977   24.81082506199669
C         9.16571182906434   11.76803802267331   25.16800658331881
H         9.44569526779470   11.81721685869238   24.12607029295816
C        10.09739974255436   11.39516279002146   26.12312512224162
H        11.10765935354520   11.15517650854092   25.82640488196307
C         9.73523361144217   11.32370885512174   27.45919978027828
H        10.46436942912659   11.03072105695816   28.20041203756664
C         8.44105283437996   11.61876922683721   27.84673548228253
H         8.15268459312466   11.54729257554041   28.88680230331114
C         5.97508801540264   13.93279337731886   28.27313029174931
H         5.03625187002917   14.16905947421400   28.78046886096493
H         6.76144122766257   13.79180037839738   29.02113447861468
C         6.39936821415778   15.07446073931236   27.33773482550422
H         6.92666457752609   14.64634884975908   26.47218363255005
C         5.24537990937526   15.99643242975515   26.87135522988283
H         4.28892951353410   15.67196173354886   27.31525084631104
C         5.08236337773867   16.08114166104568   25.35518763744589
H         6.05877011334333   16.19436667501441   24.87825488134145
H         4.48099460059276   16.96221400709747   25.11629843126879
C         6.64109066008839   17.15256722916753   28.29970400309387
C         7.60760456734355   18.32054452012567   28.12116138032427
H         7.99818948845136   18.31187810196595   27.10778859323179
H         8.42975286624838   18.22038900488447   28.82210690730116
H         7.08213759747087   19.25382822116337   28.29501058630055
C         6.09318309039274   17.10788133455918   29.73334748849850
H         5.35647142480406   16.31504891981331   29.83195101099086
H         5.62037079730291   18.05667026413215   29.96830429251840
H         6.90931931596127   16.92444088265502   30.42589074090185
C         4.13815382283595   14.87231233511543   22.94198104715205
C         5.32899177104862   14.97370880215757   22.22536013446809
H         6.27221427853308   14.97416484435681   22.75678459887643
C         5.30962200326118   15.04983306960010   20.84649434670855
H         6.23668049259673   15.12539991479558   20.29737349415669
C         4.10191405113114   15.00933920612412   20.16733150024991
H         4.08702684676751   15.05593130111532   19.08879074636187
C         2.91689645899883   14.88792971038675   20.87230472762264
H         1.97603396174502   14.83722332981876   20.34423495117542
C         2.93128941330580   14.81045222895750   22.25393463213963
H         2.00491137572528   14.69129249628311   22.79810742178218
C         2.54449487359088   14.75783534389148   25.32850414625573
C         1.95924240797994   13.63956278781616   25.91682465475806
H         2.54316142915413   12.71713168012605   25.99875122140410
C         0.66087918785018   13.69600801097657   26.38834825147903
H         0.21106448487495   12.82451579000363   26.84033854397077
C        -0.05984869151532   14.87406715238073   26.27739111082693
H        -1.07382950505618   14.92381397690078   26.64573070280900
C         0.51629268106263   15.98999575648169   25.68991611320110
H        -0.05056818415519   16.90518007399500   25.60028678510055
C         1.81318013033326   15.93569584002302   25.21260534164653
H         2.25152577707106   16.80395010484736   24.74075988591173

