109
CSD_code = AJIJOT | q = 0 | S = 0 | Stoichiometry = C48H45LaN6O6S3 | MND = 9
La       -7.17877548112676   10.53119949951010   12.29755549272185
N        -5.88105284732177    9.88956498453143   14.16219756204586
N        -7.44567426401297    8.26389889091362   11.84072361420533
N        -7.83146220240825   11.18891505389105   10.17023368368068
N       -10.93187580276201   12.62114061398270   12.28143164072664
H        -9.93521208683786   12.57366397701910   11.99695421069026
N       -11.15749584037173    9.14772794423817   10.40595653168891
H       -10.26753255802804    9.54797782655137   10.75821050248573
N        -3.41537991722038    8.39767555496014   12.37190010191414
H        -4.27013806106876    8.77673148465272   11.91959448859298
S        -3.59710585660623    9.41848085957716   15.64730159250451
S        -9.39327597302010    6.43500589258643   11.13005589490682
S        -8.29609777173344   13.09722191352319    8.22450496399646
O        -6.40712133674865   12.67371122826506   14.47842714076051
O        -8.38012763052358   12.60094483614052   12.79558319651193
O        -8.87677342006819   10.06363994558871   14.77971636652563
O        -9.63698044802013   10.11409032774517   12.26849493459702
O        -5.62548236402744   12.80237721736898   11.54743705994803
O        -4.93197144227241   10.30030459117194   11.47740733909882
C       -14.62632924522962   11.16526233989458    8.21884562143810
H       -15.47265117285022   10.60810676011488    8.61290406478933
H       -14.12435649508119   10.56751197063253    7.46122320807473
H       -15.00795940687686   12.06480425929365    7.73540971217778
C       -13.67106645170773   11.54008986975772    9.30690406299386
C       -14.06506345570665   11.55187994210922   10.63995993537910
H       -15.07557170583683   11.27033143609215   10.89890091529334
C       -13.18923850277941   11.91391142357314   11.64606344868442
H       -13.52114473640272   11.89039273009688   12.67259625585586
C       -11.88083010986331   12.27298378234212   11.32902246046375
C       -11.47379268801149   12.25385698084533    9.99407874959214
H       -10.45886160626650   12.52042188077576    9.74260712524434
C       -12.36046278888423   11.89704244406973    9.00141750373382
H       -12.02929963788318   11.88933141421555    7.97420726318741
C       -11.10133382395943   12.89315054673287   13.55477060504414
H       -12.11310233767807   12.96048143332892   13.94017196801475
C       -10.03483165850673   13.09810722281774   14.43771498393578
C       -10.27908263296827   13.44985156559308   15.79138935189303
H       -11.30019242093744   13.61728892182075   16.10025385628387
C        -9.25401232969655   13.57955708110567   16.67520805077649
H        -9.44399660358926   13.85843708291120   17.69994091897202
C        -7.92143201104899   13.33464820251650   16.27877663650372
H        -7.14193050968882   13.42170149303743   17.01915394083642
C        -7.63803706186708   12.97623191871538   14.99060909057307
C        -8.68308526566385   12.87815234757528   13.99728623611815
C        -5.29907015116559   12.81451686413244   15.34360311921124
H        -5.21474559927369   13.84525557786538   15.70439458516416
H        -4.41689215343657   12.55985153897187   14.75859048694803
H        -5.36604354495591   12.13258763465263   16.19611864767145
C       -11.22917506002805    8.38509714596669    4.78372309362964
H       -12.23252291673100    8.21123558106614    4.40299889185508
H       -10.61082867981781    7.52550622415359    4.52512620557583
H       -10.80690044715812    9.25676347173012    4.28771825427658
C       -11.23796730262644    8.57691328554936    6.26743462405937
C       -10.11433280133788    9.08155034691227    6.91838808787252
H        -9.23920769369148    9.34355944953710    6.34325038457082
C       -10.10481382901323    9.25382672141305    8.28493866153194
H        -9.22864325317886    9.64224325855314    8.78495880029337
C       -11.23191322488212    8.92353872659056    9.04057268609642
C       -12.35798227979528    8.41133684223236    8.40131540004220
H       -13.23908123460791    8.14643406052091    8.96454261363744
C       -12.35136918941000    8.24360483483133    7.02985425386561
H       -13.22932313801166    7.84391101073110    6.54236771044505
C       -12.00975006066174    8.85782582461291   11.35515048927576
H       -12.94782797845622    8.38367613524359   11.09168807916930
C       -11.73366591144432    9.08559385168526   12.71279053983704
C       -12.66496980771692    8.69951831294195   13.70729107435622
H       -13.62019223569058    8.30771859071619   13.39143907209375
C       -12.35726138840494    8.80313493573340   15.02928495562849
H       -13.06997100692537    8.51161121290604   15.78468517523189
C       -11.08719241143866    9.25574934957088   15.43778933819509
H       -10.86771534669370    9.28094648117451   16.49341884716565
C       -10.15589725989432    9.64178872817299   14.51288709893846
C       -10.46638125757586    9.63536911760247   13.10683490333515
C        -8.42539729143576    9.89591484479904   16.10915583691474
H        -8.57259926212063    8.86515406236592   16.44426641664543
H        -8.93774891237539   10.58609767423751   16.78821175165257
H        -7.35945848846449   10.11434967626986   16.09374573641187
C        -3.67073908692188    2.85369592098503   13.56911000457594
H        -2.68581584038614    2.39409818103873   13.59534293476730
H        -4.28486976141155    2.33748240695570   12.83451097160742
H        -4.13578114033548    2.71835769542046   14.54604696961283
C        -3.57661706525898    4.31265949306660   13.24871444957036
C        -2.39179581147956    5.01337311323317   13.44180434876229
H        -1.52119302959269    4.49379029348861   13.81515588660747
C        -2.30423241069479    6.36377715951428   13.16402817753662
H        -1.36871885629581    6.87924978173263   13.31636730142518
C        -3.41923272946259    7.04366870645296   12.68066935037632
C        -4.61375187175362    6.34956728453472   12.47970620270148
H        -5.48411424862951    6.88201529419916   12.12006418894324
C        -4.68548732169065    5.00314529810376   12.76624777121053
H        -5.61667969131542    4.47809012006022   12.61357612789521
C        -2.57098835844683    9.33009120174494   12.74032849663055
H        -1.67682490013638    9.04808149678600   13.28344584451552
C        -2.80303018048647   10.69425066365382   12.48524874770166
C        -1.85535170862789   11.66885899200724   12.88213319974500
H        -0.90813795891998   11.33223200820032   13.27519645814860
C        -2.13274614553920   12.99866293529759   12.77855274477958
H        -1.40145996729693   13.73639127710910   13.06936034986373
C        -3.39219295395077   13.43602807643837   12.32296049697167
H        -3.59327698343530   14.49578057762630   12.29841870956736
C        -4.34337803583510   12.52763783953735   11.94316808609175
C        -4.06123434818544   11.11425178081121   11.93933434600095
C        -5.96953726259908   14.15846738807573   11.35655685229174
H        -5.29029806929326   14.63967551238645   10.64570810670351
H        -5.96384326419523   14.70776339080068   12.30402894659073
H        -6.97817612485199   14.15645402828989   10.94648341427557
C        -4.91228385675719    9.67460295145920   14.79268660399876
C        -8.28512033752803    7.49507377237076   11.53478130041175
C        -7.99094960021606   12.01353629221614    9.34452450602618

