57
CSD_code = AJIJUY | q = 0 | S = 0 | Stoichiometry = C31H22Cl2SZr | MND = 12
Zr       -2.48982092479923    2.65214624177351   -0.76906318610731
Cl       -1.88924980512234    0.78331471274585   -2.03136951655274
Cl       -2.66696999625437    1.35606965100771    1.15458727290286
S        -5.29085985014545    5.32391144696872    3.14082496002811
C        -2.07848878620702    5.89456613578341   -1.60956995844522
H        -1.39463116215984    6.49834377145421   -2.21629824485350
H        -2.44076871231847    6.52595791420303   -0.79511853126323
C        -3.26177890842254    5.43389104939171   -2.49045568924107
H        -3.93877000274235    6.27017282134455   -2.68576199966112
H        -2.87488129065255    5.11774864014043   -3.46259991561365
C        -3.97693973981304    4.25535605714960   -1.87369243616255
C        -4.10569590166327    3.01454236253238   -2.56712865722900
C        -4.71148514916487    2.06794186114349   -1.71784932193298
H        -4.99698221039777    1.05764357045184   -1.98670336722022
C        -4.98602357100949    2.70390867270467   -0.47628455418823
C        -4.54990053597353    4.09053408890142   -0.56306879667071
C        -4.80138461002683    4.91901514559182    0.57826229921981
C        -4.75534688963310    6.34880417419050    0.78089696747233
C        -4.65588394866315    7.39526859255656   -0.13817921119289
H        -4.64267935731685    7.18484288183632   -1.19206417943135
C        -4.63830836581752    8.70562841808570    0.29091198679704
H        -4.55959038941394    9.50032783310642   -0.43588415815918
C        -4.73548567742788    9.01934050424770    1.64306112069130
H        -4.70825726348135   10.04989492180796    1.96173448290359
C        -4.91198423868904    8.01454802399548    2.57178437390369
H        -5.04416840389679    8.23627175030687    3.61921206219147
C        -4.94448400659076    6.70003121512590    2.13438934296272
C        -5.19968860935720    4.26649351549452    1.75518254835044
C        -5.57999147474558    2.91963929498284    1.83146541152172
H        -5.93163667749258    2.52324127395290    2.77023861308444
C        -5.53435543073310    2.15317611411173    0.70130923977122
H        -5.87673687632292    1.12780275040276    0.70472288039603
C        -3.69200578309692    2.73994909659078   -3.98711588813977
H        -4.15538846321006    3.45120195884685   -4.67248589467473
H        -4.00677560894743    1.73673790662962   -4.26849948094323
H        -2.60523667588831    2.79046761675036   -4.10419508934572
C        -1.35278835745686    4.70946879108457   -1.02652788640653
C        -0.51709831447518    3.79516158426863   -1.75394281896311
C        -0.21395849283306    3.67596116350002   -3.12660248353569
H        -0.61718335531880    4.38242499828211   -3.84164377055588
C         0.64774494895483    2.68626499158314   -3.53693635242368
H         0.88772346231934    2.59060062097956   -4.58568730137719
C         1.23575648982709    1.79819499791280   -2.62574005555504
H         1.90430390566943    1.03591734811169   -2.99433886113855
C         0.98045579761323    1.89258929052191   -1.27620094676440
H         1.44978870366870    1.21581825624647   -0.57543494279190
C         0.10570050445308    2.88381948423931   -0.81866110830874
C        -0.31880451996963    3.26293927200752    0.50410062289291
C         0.00491046563703    2.76568215396641    1.77194986081676
H         0.68132304527628    1.92786850486337    1.87051902949069
C        -0.55232101246064    3.35594705212106    2.88328844004185
H        -0.32122932381402    2.97655714605860    3.86638945399103
C        -1.41093339406307    4.45779894324351    2.76215681200349
H        -1.81578150514953    4.90592796792851    3.65753879532060
C        -1.73206291567833    4.99182632181819    1.53702596777547
H        -2.34009007447772    5.88437812553230    1.47408190097941
C        -1.20532076012431    4.39892099942153    0.36937015933904

