55
CSD_code = AJIKUZ | q = 0 | S = 0 | Stoichiometry = C22H24N4NiO4 | MND = 4
Ni        6.01687086008546    0.44243672539839   10.50602655784339
O         5.25574210421103    2.03402063701497   11.05387347349632
O         8.73232863828636    3.05345400725279    9.10715657497019
O         4.57426284363982   -0.47299009654629   11.20905396927034
O         7.13511759174667   -3.34323355541026    9.75193844330903
N         6.86585196839625    3.53031251838634   10.32303404480964
N         7.46137782054588    1.31085793561814    9.77059066848910
N         5.18368916369507   -2.64936005901478   10.70083722840534
N         6.82741931718896   -1.11826418992828    9.96653029477912
C         7.64432748838557    2.60752251921546    9.75553800036141
C         5.73917940631855    3.19397132243971   10.93221851297223
C         4.97049856979651    4.32156584048303   11.50981979624316
C         5.44075305177876    5.62928137261882   11.42686514207204
H         6.38271193146098    5.81123082471991   10.93529587278472
C         4.70180352403972    6.66429979790682   11.96804391959498
H         5.06721991871705    7.67893043130465   11.90290670871748
C         3.49203392150316    6.40441877653668   12.59313786885454
H         2.91615987591487    7.21635022311455   13.01318231131629
C         3.02066384077022    5.10372685040203   12.67940547117896
H         2.07769828683043    4.90289045985939   13.16718398096698
C         3.75529541802587    4.06470112855167   12.14136262780418
H         3.40578451484590    3.04475390764709   12.19773659133692
C         8.95924821797937    4.45962799884256    9.10882545361355
H         9.03236332654452    4.81043425765305   10.14345564109808
H         8.10804837476479    4.96134560830590    8.63684921222506
C        10.24613377537458    4.72236045580361    8.34592551135102
H        11.07738779488071    4.21386733770768    8.82681297430745
H        10.15859956020929    4.35558882912937    7.32688006949769
H        10.44680894254025    5.78946049597068    8.32417405205734
C         8.42629771735992    0.48062548077180    9.05354351156383
H         8.31711856909675    0.66889718224689    7.97841786065473
H         9.44307287407436    0.77021782088084    9.34195751489118
C         8.15900346168034   -0.99257624420639    9.37881908642107
H         8.89448451747288   -1.37268473461161   10.09817405656622
H         8.22102094005702   -1.61325802339550    8.47805607375746
C         6.35745901535649   -2.32587685009156   10.15539904589070
C         4.37389664665830   -1.71929608462355   11.18306965813056
C         3.10720873867439   -2.22249374883150   11.76504092827133
C         2.82543488676922   -3.58529670996638   11.80313737623762
H         3.54770025446020   -4.27502497241791   11.39728978110008
C         1.63903081147615   -4.02972369990918   12.35514683791097
H         1.42098606531403   -5.08753436404935   12.38488893248237
C         0.72736015543766   -3.12201366994683   12.87156093393461
H        -0.19909751057917   -3.47355809892169   13.30215322338498
C         1.00379638239716   -1.76440844678542   12.83602997152314
H         0.29261134356906   -1.05828377527247   13.23939081060988
C         2.18837515909828   -1.31387907305898   12.28563461975271
H         2.42275912006136   -0.26086120336119   12.24885192736578
C         6.62373353544893   -4.66130753035612    9.92525666284234
H         6.44352278514203   -4.83925803134080   10.99067836662108
H         5.66836671178836   -4.74851766336789    9.39747845793658
C         7.65082507604744   -5.63327085332404    9.37065696128624
H         7.81922898122025   -5.43849918172322    8.31496340100722
H         8.59422531122372   -5.52200926230878    9.89811881293568
H         7.29329840221705   -6.65157062301370    9.49162421319345

