57
CSD_code = AJILEL | q = 0 | S = 0 | Stoichiometry = C27H24AuClNOPS | MND = 2
Au        0.69768561895537    2.38217730327885    0.62667139619203
Cl        0.49728454889861    4.83077025441851    7.69871660733142
S        -0.06541397437332    3.14944229531791    2.69294019493972
P         1.41651321131811    1.73814304552028   -1.41779884008210
O         0.19482353421379    4.94330886141885    0.88905436318379
N        -0.64515579702287    5.80174700548936    2.80773441654928
C        -0.20122010010363    4.79813022468911    2.17769484012955
C        -0.99222388436123    5.83617335418269    4.13939411781713
C        -0.16914741249591    5.31638353075802    5.14047565126904
H         0.73970186141288    4.80012977624749    4.87552329919443
C        -0.53311030543026    5.47127953276525    6.46211858629005
C        -1.69664038555441    6.12721138527831    6.82738048427395
H        -1.95992217427128    6.23097904231588    7.86798872962684
C        -2.50570295563442    6.64496466479541    5.82873798294743
H        -3.41659778715205    7.15949050103825    6.09770267149681
C        -2.15904970540438    6.51317813007977    4.49989684486261
H        -2.78778352704365    6.91728714427605    3.72139485334759
C         0.13865067811499    6.25530205653252    0.33675730928742
H         0.70515193378224    6.93668141914445    0.98086237425837
H        -0.90520060765427    6.58958018267110    0.32529953359449
C         0.72161832839677    6.20457527535922   -1.06481972536890
H         0.66852954082637    7.18926277656004   -1.51962947853745
H         0.16742106507238    5.50034130020813   -1.68113636153526
H         1.76034673965223    5.88506565970126   -1.03031729156908
C         0.08071018403435    1.37821562954479   -2.58837697630858
C         0.10513802426965    0.31844258116560   -3.48743660506973
H         0.95633942803171   -0.34733610162067   -3.51833266337065
C        -0.96949606023581    0.11986943831982   -4.33694377918275
H        -0.95375430009798   -0.70393089102638   -5.03526201890694
C        -2.06234335579963    0.97014015406080   -4.29295970589284
H        -2.89679571134006    0.80908220708593   -4.95882111065893
C        -2.09175819565416    2.02270845474969   -3.39056949715270
H        -2.94802805224636    2.67928454896457   -3.35056796777419
C        -1.02663663062295    2.22258333316298   -2.53402509293274
H        -1.04021719565631    3.02713890461683   -1.80859640837231
C         2.49297972560455    0.28187103674344   -1.47882488201921
C         3.46454429584259    0.11062030323545   -2.46099571684251
H         3.60303793740019    0.86823947826481   -3.22067011945957
C         4.24865382713847   -1.02839842763345   -2.45434855785739
H         5.00389692323206   -1.16348955435922   -3.21458703255928
C         4.06870582925850   -1.99345476020219   -1.47543697153772
H         4.68655073917793   -2.87887856668098   -1.47392957484530
C         3.10402576018647   -1.82230304331890   -0.49521164672184
H         2.96976591188784   -2.57194193503028    0.27001605487792
C         2.31818326948149   -0.68460816630069   -0.49287794986330
H         1.56879984221628   -0.52806585714310    0.27299233436394
C         2.39435970599949    3.02203798756957   -2.24302060165134
C         3.49272174274942    3.50117661871618   -1.53088295409616
H         3.72194612789283    3.07144252533415   -0.56344966101637
C         4.26928617449596    4.51442375345338   -2.05720462104619
H         5.12157732260323    4.88391172591833   -1.50659112342754
C         3.94479251089854    5.06398522540835   -3.28899327071676
H         4.54716478914124    5.86123807437122   -3.69779612325750
C         2.84730268514698    4.59692853676075   -3.99240684095626
H         2.59480650917233    5.02909555270306   -4.94935418796967
C         2.06760332148711    3.57688728073430   -3.47414912941276
H         1.21007847029022    3.21287923043936   -4.02312815781508

