68
CSD_code = AJIMEM | q = 0 | S = 0 | Stoichiometry = C32H27N3O5Zn | MND = 5
C         5.21347741342205    4.61260128999653    9.78738901158820
H         4.98981865168381    3.57866272413560    9.56392060117047
C         6.41351378443410    4.99363791881375   10.37143210281917
H         7.15902076895489    4.25612559927608   10.62321277650961
C         6.61995378646266    6.33926589132634   10.62662632679154
H         7.53632464247067    6.67900336528618   11.08712206099596
C         5.63042971663679    7.24700980005312   10.28795960761804
H         5.76897154054007    8.29684359049915   10.48962247238569
C         4.45506510943211    6.77947107725922    9.70475455529048
C         3.32662713328082    7.64944427845812    9.33573104818254
C         3.34490593980499    9.03904791540766    9.38270718410019
H         4.23647466476529    9.57944135957881    9.65653697322106
C         2.19087570424054    9.74558010188138    9.04137598026723
C         1.06470041963966    9.02213323852324    8.64923565522928
H         0.15341643407077    9.54625233930304    8.41058538888035
C         1.13530366418122    7.63313080636581    8.60464853576761
C         0.03705969868076    6.74744758343749    8.18328738095567
C        -1.17775592592475    7.20754924805975    7.67817385236291
H        -1.37131643634079    8.26313136234188    7.57544228120057
C        -2.13884985898132    6.28605790993296    7.29793089556399
H        -3.08646927511112    6.62027335827279    6.90097855734997
C        -1.86588514798724    4.93453146220231    7.43292030635787
H        -2.58966271706489    4.18743099953807    7.14835893600611
C        -0.63021262539895    4.56196861364782    7.94380060555562
H        -0.35504247006727    3.52510483622740    8.07636897447819
C         2.16226475760980   11.21123130299966    9.09530572500620
C         2.81140662580575   11.90185164748079   10.12011309329687
H         3.32085161481509   11.35138066144521   10.89654886561124
C         2.77570131649046   13.27597030660179   10.17595972075706
H         3.26663220581912   13.81420926274867   10.97144864845859
C         2.09699714477217   14.01105218849457    9.20042535140714
C         1.45181813891048   13.33119830952620    8.17169379107002
H         0.91441861354439   13.86538671588678    7.40447681162062
C         1.48489128144839   11.95018886825390    8.13020056893603
H         0.99583224697784   11.44079434945926    7.31313025331325
C         1.46035356430437   16.17115854834337    8.41016031144930
H         1.85009844627076   15.99327701139216    7.39810813383320
H         1.72754506722262   17.19384469122708    8.70116192017721
C        -0.04244573829466   16.02126784681482    8.42673998119552
C        -0.69858559341481   15.62124985719515    9.58260656599318
H        -0.12496409507579   15.40689820209887   10.47233617925701
C        -2.07612060384520   15.49280195732123    9.59436512848909
H        -2.57659860333394   15.17624999715110   10.49739607544178
C        -2.81018460433310   15.77242086690715    8.45474045291211
H        -3.88543193955952   15.67396119627363    8.46455842398752
C        -2.16140308282935   16.17998154727307    7.30109326413382
H        -2.72931410419140   16.40072409576344    6.40939364263661
C        -0.78346604815150   16.30010508114216    7.28543810050143
H        -0.27789775535031   16.61337404645478    6.38251801801128
C         1.74270433787004    4.69003684628639   11.43757478023272
C         1.29772497861307    4.08068002943213   12.76394704003159
H         0.27813284873389    3.71719560928846   12.66677656388603
H         1.35715115014126    4.82270527075269   13.55468692273561
H         1.94020579978675    3.23579126076189   12.99826659536123
C         2.91080163477926    4.25985837736951    6.61608389543632
C         3.30908025396076    3.60616713660443    5.30101077448829
H         2.47019316541947    3.66069579722915    4.61102840927867
H         3.58042177914643    2.56891787661501    5.46920710321439
H         4.14347425517532    4.15002528448718    4.86572206294841
N         4.27310195246202    5.47984483465531    9.46876158596895
N         2.24177255323422    6.99945161212969    8.95181867368918
N         0.28295669541025    5.44237980609481    8.30175650579120
O         2.13400103500426   15.35961681125114    9.34890242180827
O         1.66798035915605    3.93188628189570   10.42735755919100
O         2.14540928693631    5.85326367573161   11.39165319252232
O         2.83501249209155    3.52638120933315    7.63537003784597
O         2.67088651928303    5.47445498120686    6.65435340076416
Zn        2.29124543137855    4.96422207078060    8.89738137666068

