91
CSD_code = AJIXOI | q = 0 | S = 0 | Stoichiometry = C38H46ClN2O2PPd | MND = 4
Pd        3.70950887075766    4.65552373743244   12.04351065972104
Cl        5.61289463045256    3.45018936571205   11.39201935364872
P         4.41157417544373    4.44188590434165   14.16247377484083
O         5.35341274238438    4.82611174977893   18.46034870800297
O         1.25107382665073    3.81917066951881   16.46968480394395
N         3.21181300634507    5.04095214329075   10.09340443923869
N         2.50046781670182    5.99486022622222    7.59462916900134
C         6.22890679482370    4.80341190547327   14.26936337195465
H         6.70425510017068    3.98182083016084   13.72077374885918
C         6.55363802250567    6.09647621592366   13.52075406345716
H         6.11112786429993    6.05963966160845   12.51024489740960
H         6.13551842108079    6.95386325007414   14.05435033633734
C         8.06781690283328    6.26106392196201   13.43460968268431
H         8.49163701545150    5.42265354853686   12.87852076986707
H         8.31436980641693    7.17969791385207   12.89805092776927
C         8.66541489400973    6.30378316015004   14.83910096966159
H         8.27801899301171    7.17803619455366   15.36840380827605
H         9.75127484963595    6.40307664962074   14.77870984826162
C         8.30418194725723    5.04309520349032   15.62038067485882
H         8.71516250120000    5.10251490906241   16.63101523726663
H         8.74943232486344    4.17528458509117   15.12776716607917
C         6.78833235443639    4.86365817175694   15.68543255241092
H         6.34056498240625    5.69962624202198   16.22717674869748
H         6.54424510481845    3.94916695669978   16.22969417331630
C         4.17175131425363    2.68803552483321   14.73369989709689
H         4.00508980327126    2.66909371924940   15.81388106411295
C         5.34334504790136    1.76447862496270   14.39826622568351
H         5.55780639741261    1.81836210041841   13.32882167795158
H         6.23765402195048    2.06823528805459   14.94511242856641
C         4.99728014203337    0.32497357209602   14.77345459821028
H         5.84052539573064   -0.32556659884295   14.53336488860197
H         4.81918999269589    0.26177240611700   15.85129546151268
C         3.75235390177202   -0.14139816800769   14.02719504773868
H         3.51746994260186   -1.17380670435331   14.29526784601563
H         3.94222134757531   -0.10576295585836   12.95277352175227
C         2.57637597334542    0.76900717518602   14.36336129411331
H         2.37055059377965    0.70258629720741   15.43592618197402
H         1.68278078390964    0.44598354172019   13.82423747144825
C         2.90946851066807    2.21199656549161   14.00129923819294
H         3.08744255191146    2.28454574947290   12.90939023230364
H         2.07197853818415    2.87177430873008   14.24703578599150
C         3.75514696373874    5.65693606528716   15.37145846257561
C         3.67581958114051    6.92574817028010   14.78677469691402
H         3.87694149463498    7.01383582882845   13.71976501248041
C         3.30361146005255    8.03896925984646   15.50939967600300
H         3.25702011883799    9.00709570189628   15.03235060961406
C         2.97691560564444    7.89898076121390   16.84950702235828
H         2.68122395332742    8.75855983842129   17.43302747556526
C         3.00643078510907    6.64672382316860   17.42867353860734
H         2.72447844198351    6.52588486514748   18.46477503135128
C         3.38879280518595    5.51479406147246   16.71012848834392
C         3.33596121224507    4.23028730814314   17.44964914127531
C         4.34974609616398    3.91078450065629   18.35876437506032
C         4.28368860849324    2.72433203400628   19.08216261804224
H         5.06695188091892    2.44662951845368   19.76801852685923
C         3.18783210355378    1.89600209269984   18.93054672088528
H         3.13603083969506    0.97855513236764   19.49723473714650
C         2.14808230886210    2.22527723080987   18.08067054675085
H         1.29625995225079    1.56924719119854   18.00984426226810
C         2.21515741360127    3.39883974818808   17.33722442543082
C         6.42497949536210    4.55916438642338   19.33050322930781
H         6.96264936780162    3.64992587170055   19.04280723290516
H         6.09012274477653    4.47079158039274   20.36899431774864
H         7.09356033324001    5.41377318104636   19.24061573608367
C         0.09113342719291    3.03221377872354   16.32514239751181
H        -0.50921418306204    3.52743348392572   15.56348661757123
H        -0.47580251099054    2.98277774547536   17.26025183953136
H         0.32827905249649    2.01942840923989   15.98733680190719
C         3.93463322427140    4.75281519872591    9.01654990384824
H         4.81332298312667    4.13266670376604    9.15601148771988
C         3.56882095737131    5.22760893995512    7.76565709704456
H         4.14395502186031    4.99349990620746    6.88203668516461
C         1.78746140476603    6.28076023766526    8.66414404900708
H         0.92757033419234    6.91412338328183    8.49999001120669
C         2.11151523034231    5.81055843482033    9.94430949054265
C         1.35993619360436    6.05045828055065   11.16202944321197
C         0.12410112281121    6.70237592492496   11.17660870448663
H        -0.30173764419129    7.08256383081630   10.25940307849068
C        -0.56035872841347    6.86091537113549   12.36048293221007
H        -1.50917629877536    7.37864747609896   12.36995731677501
C        -0.04395051321112    6.34029598669190   13.54367144231205
C         1.17355810387470    5.67059648010125   13.51615396989644
H         1.53706705739459    5.25541703426389   14.44684648914444
C         1.92301643525327    5.53861200432854   12.35313613433553
C        -0.56257606578621    7.99219738865679   15.33028930714333
H        -0.94061069776845    8.70262893311389   14.59869106418020
H         0.49688817019195    8.18423334262413   15.48335652779172
H        -1.08503042357695    8.15108369913482   16.27104926490399
C        -0.76489951090262    6.55626488272963   14.84305227667419
H        -1.83379347305905    6.36644817778739   14.71398125572275
H        -0.37473944256534    5.87376325085102   15.59897578129052

