60
CSD_code = AJIYUP | q = 1 | S = 0 | Stoichiometry = C26H23N8O2Zn(1+) | MND = 6
Zn        2.42563624854252    1.03409798337967    3.17771427712428
N         4.24834458072308    2.01023584675738    3.70352341290833
N         2.27450325190665    1.09249150782599    5.12071857571874
N         1.15684927819897    0.59708517741729    5.63705786276302
N        -3.39439511170721   -1.37436992724140    6.04187006876936
N         1.51977839379360    2.73873558705352    2.26356116810016
N         2.20089306505445    0.51927432425748    1.13170115086876
N         2.62973504272128   -0.71532396758415    0.85456215839795
H         2.37692723289396   -1.19426138346741   -0.00614275856062
N         4.63410034222615   -5.34010642258582    1.15108864379925
O         0.63481171396762    0.07248456659543    3.46183848819507
O         3.55489978994646   -0.79094569943721    2.90323313088656
C         5.23713551738325    2.44533899437713    2.94085178526455
H         5.06547038284653    2.40444374056111    1.87400651863150
C         6.42941024325271    2.93162813692492    3.45114937737312
H         7.20858011983690    3.27306076422235    2.78983707404109
C         6.58885372238116    2.96299710299040    4.82996884052761
H         7.50292445747824    3.33265043426312    5.26865028121692
C         5.55897744634338    2.51261050983630    5.63394039702473
H         5.65718605211351    2.52504418066337    6.70666612194819
C         4.38700828070850    2.03264199493397    5.04187772617975
C         3.26564691450728    1.52790651068537    5.82466015821711
C         3.28250280640293    1.51300858725202    7.31655861213146
H         3.43048873951135    2.51552551987059    7.71451343968917
H         4.08365556830617    0.87446920897227    7.68529066869787
H         2.33062920035082    1.12398610334509    7.66766035546000
C         0.35104413317242    0.11132867641050    4.69200928564552
C        -0.94537173667488   -0.40672712685990    5.17326461061395
C        -1.26853337866211   -0.41240166669116    6.52865630439760
H        -0.56254803033068   -0.03902935693056    7.25105489786889
C        -2.50731969223599   -0.90845010491164    6.90336155100297
H        -2.80770169795895   -0.93511208253859    7.94211974957630
C        -3.08825534475437   -1.37080472706592    4.75707357415980
H        -3.84785708986741   -1.76414908303335    4.09455482673275
C        -1.88118438847069   -0.90013064275374    4.26624686734064
H        -1.65601786217374   -0.90825544072562    3.21114977309303
C         1.19077679296819    3.85190999572472    2.89505521506132
H         1.60369910496908    3.97463076296995    3.88674381778879
C         0.36489495916517    4.81875822501209    2.33932521819613
H         0.12137879673039    5.71145869177435    2.89158505689303
C        -0.13740737558249    4.60023608679107    1.06667828166375
H        -0.78811986857359    5.32252705987072    0.59840897061572
C         0.20666931904198    3.43464410433757    0.40064284418593
H        -0.17770112471291    3.24779151179808   -0.58828311145220
C         1.04470713774605    2.51560892568062    1.03004441785866
C         1.42922126757271    1.23933106620715    0.41031303609296
C         0.89596098128642    0.88022201474247   -0.93874372690513
H         1.30168984553266   -0.05842846847591   -1.30763061711271
H         1.14321563080473    1.65864114742661   -1.65855747329342
H        -0.18895433316338    0.79088428032872   -0.89694973189266
C         3.30126388109669   -1.36569588366652    1.85347685271912
C         3.73005502267848   -2.75188860238172    1.57457834131487
C         4.82320236593676   -3.25476276641493    2.28155080173330
H         5.32717331576566   -2.63143169572991    3.00251142279851
C         5.23430732753291   -4.55465870551293    2.02548359211492
H         6.07847710015800   -4.98679282936243    2.54427783423095
C         3.58783034622397   -4.87608784727924    0.49533888512951
H         3.12458077091675   -5.56539264942882   -0.19709849642443
C         3.08937621897287   -3.59106610947494    0.66243255099737
H         2.20579432519110   -3.28851614170352    0.12126704187853

