47
CSD_code = AJIYIC | q = 0 | S = 0 | Stoichiometry = C20H20F2N2O2Pt | MND = 4
Pt        8.58080673451819    8.58023305422451   -0.00091472045884
O         8.42985019639016    6.66843464992494    0.59104522776388
N        10.40420539025460    8.78007507539134    0.62475982148067
F        12.32641965259770    3.48137081421774    2.65797810886174
C         9.40096104218606    5.98094367881420    1.06490759023118
C         9.15867227659164    4.60401013430762    1.33797604876585
H         8.17060309132020    4.23521188363209    1.11125368343379
C        10.11337009869251    3.77895988758253    1.85848125402778
H         9.91292516732446    2.73787969118467    2.05794068989223
C        11.37900219051918    4.30113795838064    2.13979534241577
C        11.67710599874098    5.61195494159137    1.90670535547547
H        12.66499612814135    5.98210909158040    2.13726126709305
C        10.71033927426486    6.48570360191216    1.36376582165857
C        11.10357697036908    7.83906860534045    1.17468914448558
H        12.10012045128506    8.06978528441894    1.54339275700024
C        10.86587046005476   10.17438968709527    0.61326777834559
C        10.36518857945618   10.80100914324188    1.92561549502940
H         9.27508112418196   10.80133595155981    1.94789277618750
H        10.73072321901845   11.81737167418288    2.03740329692654
H        10.72143871078192   10.21113672405880    2.76755275158449
C        12.39390357992554   10.28609161414309    0.54126332998163
H        12.83774466149351   10.09486534848238    1.51497016877523
H        12.68921086269938   11.28804539501948    0.24600500705285
H        12.80260093110267    9.58002406383302   -0.17668942351231
O         6.66837920904686    8.42983367403251   -0.59094644276118
N         8.78007849436719   10.40429175445894   -0.62467488347776
F         3.48139230883306   12.32640953411123   -2.65800245665039
C         5.98090690338125    9.40097694732540   -1.06478270453893
C         4.60399225865073    9.15867876590938   -1.33793125143018
H         4.23518826827493    8.17060795781509   -1.11122666694683
C         3.77895954268252   10.11336745643995   -1.85848073480059
H         2.73787457286366    9.91293458739692   -2.05792785419306
C         4.30115065964450   11.37898918752717   -2.13980999580345
C         5.61196369920371   11.67709179807878   -1.90669610142544
H         5.98211390426532   12.66498644257360   -2.13723973426046
C         6.48569728630754   10.71034066462292   -1.36370546891124
C         7.83905108421732   11.10362744408559   -1.17460491524230
H         8.06977373042094   12.10012156762221   -1.54344085669614
C        10.17438877612060   10.86593481827835   -0.61321866261001
C        10.80092609149098   10.36514098478135   -1.92555513021948
H        10.80114431485377    9.27502976048356   -1.94774143219736
H        11.81731641358106   10.73059228068757   -2.03739272564516
H        10.21107008260334   10.72139067387913   -2.76750529761609
C        10.28611301465621   12.39396597647559   -0.54123014323877
H        10.09488159218672   12.83779586896798   -1.51494161426550
H        11.28807072767493   12.68927069614115   -0.24598468739484
H         9.58005027276273   12.80267320418551    0.17672118782766

