39
CSD_code = AJIYEY | q = 0 | S = 0 | Stoichiometry = C20H14N2O2Pt | MND = 4
Pt        1.72488617663050    1.87724037790779    7.28177942861342
O         1.88047225802245    0.80079560696333    8.96226028739395
O         3.67432734611654    2.28438460324588    7.48353768227972
N        -0.17310987351395    1.50587812860377    7.04466413937252
N         1.52756930844474    2.91193137539081    5.64254893205729
C         0.91815999860431    0.15886582823377    9.50613096998914
C         1.20162091256318   -0.56055968110176   10.70287677174013
H         2.21699339789647   -0.50728726158689   11.06462002276820
C         0.25027098197230   -1.28033013587527   11.36199077492670
H         0.50491543821767   -1.81300326440178   12.26665781507691
C        -1.06587525968697   -1.33787656462832   10.87448590110181
H        -1.81172419351943   -1.91061468640564   11.40342903506734
C        -1.38585087490835   -0.66511537511693    9.73296902635019
H        -2.39693117753453   -0.70381968520383    9.35112573424383
C        -0.43279412739122    0.09800695653406    9.01215447789866
C        -0.88310734065411    0.75273628787537    7.84796134846601
H        -1.93521175667700    0.59662264445007    7.61951300858350
C        -0.70151173237903    2.12553598241953    5.91068505050299
C         0.22201451443663    2.88715219664770    5.14859648369542
C        -0.22137159058753    3.53941307550672    3.99844905259734
H         0.45730014540072    4.12508859748848    3.39934053610977
C        -1.54175917357421    3.44959760311870    3.60406827068003
H        -1.86826110869711    3.96090376471639    2.71176000341295
C        -2.44460023967833    2.70856371352580    4.35037414737936
H        -3.47635806904180    2.64227128964255    4.04147332363467
C        -2.02999704751218    2.05263874385233    5.49268881145876
H        -2.75536666066171    1.48594791200650    6.05417476765395
C         4.35416271380631    3.00414396317042    6.67504100199813
C         5.73582106069389    3.19380415972380    6.96687610543748
H         6.10721052408919    2.71248999220163    7.85856123691514
C         6.55237467286303    3.93914539973750    6.16988437310207
H         7.59530868043182    4.05851707848799    6.42483427598783
C         6.04943626312205    4.55755446165662    5.01321569105817
H         6.70412884582825    5.14485851120836    4.38825539023867
C         4.73299202384896    4.40706520116003    4.69338151999083
H         4.33760161747615    4.88057451708883    3.80509616951901
C         3.84354877354392    3.64229175607452    5.48980047876383
C         2.50403520000631    3.56165432231203    5.05859609928791
H         2.29047937200207    4.10733260336903    4.14204185464653

