71
CSD_code = AJIYAU | q = 0 | S = 0 | Stoichiometry = C34H33BrP2Pd | MND = 4
Pd        1.92668703692769    4.91115465949984    1.96970163413603
Br        2.63764200080407    7.34075085199914    1.66816930178687
P         2.84619579902549    3.97939751109497   -0.44076585201602
P         1.98170124360292    5.16855876770175    4.26688835981846
C         1.21539260155151    4.16350215004372    0.18590836867472
H         0.57510936939141    4.88786440747176   -0.32229021654100
C         0.76161184373606    3.34655366769817    1.25349297851411
H        -0.31134358508960    3.41211889133086    1.47555324592771
C         1.33572161151194    1.99670046833634    1.48186292345765
C         1.17602004024965    1.00902757933001    0.51224312940783
H         0.64388856538112    1.23563853552940   -0.40129217687835
C         1.67593874884698   -0.26493008972956    0.71576996321853
H         1.55058743459290   -1.01641318230895   -0.05106867820477
C         2.32427377146364   -0.57857238838313    1.89830219902810
H         2.70709329752493   -1.57597787375432    2.05807138767556
C         2.47835677379960    0.39296982808545    2.87371008779817
H         2.98422846759086    0.15668258834882    3.79873858940966
C         1.99415500318411    1.66982568308140    2.66454522892665
H         2.14112167481994    2.43801831360464    3.41858791149624
C         2.95941624586849    2.77378687760175   -1.80731625761608
C         1.80311340237686    2.45091808528000   -2.50497766386856
H         0.85999684978321    2.88226584939591   -2.19271509227860
C         1.86036997406924    1.59085809395272   -3.58627724287713
H         0.95882140009771    1.33708015256878   -4.12423885703836
C         3.07726675312078    1.05669180881007   -3.97713599224201
H         3.12344356476800    0.37981164709641   -4.81703045032430
C         4.23683079548398    1.39535953275237   -3.29763525000084
H         5.18611208010663    0.98756818763217   -3.61217799635234
C         4.18207391666219    2.25716584366721   -2.21770794400152
H         5.08465272463925    2.53046176448867   -1.68789496007500
C         4.11307322466676    3.47502400631919    0.76340759090198
C         4.43487324030363    2.13315633408432    0.94538752673566
H         3.94382678185922    1.37277631675835    0.35416930950259
C         5.38698005200447    1.77599369801226    1.88444041612175
H         5.62831001324978    0.73270240772843    2.02419081226146
C         6.02206911414372    2.74780355945126    2.63784347099163
H         6.76193572580810    2.46608948887198    3.37180151088762
C         5.72005333124151    4.08721784939238    2.44300793538531
H         6.23047587994829    4.84698438434040    3.01458817664199
C         4.76492411907596    4.45991096654772    1.51346456257984
H         4.57103309485685    5.51397667927609    1.33732067338615
C         3.35989760578036    5.50636668998592   -1.26984037124273
H         2.69619066894869    5.65439708334266   -2.12410728039791
H         4.38645480897579    5.39583465915520   -1.62050003596615
H         3.27582898466744    6.36243904083445   -0.59103693194365
C         1.06263794487940    4.10120266918604    5.43656742200355
C        -0.03426924440561    3.40296938532984    4.94835996663613
H        -0.27168449286022    3.47462469205988    3.89237984946244
C        -0.81077039135798    2.63122525858881    5.79310135927583
H        -1.66091742996030    2.08928634229358    5.40430912794964
C        -0.49268851609006    2.55420061364943    7.13841184935272
H        -1.09221474420767    1.94871194175298    7.80244367351401
C         0.59348822542433    3.25777771988806    7.63488005846403
H         0.83634879555287    3.20333097659019    8.68649820821037
C         1.36676394706620    4.03334555348701    6.79094341854448
H         2.21254315899957    4.58257730783053    7.18139819899140
C         3.66482898340653    5.13677493249904    4.95869326353283
C         4.45156013312421    6.28467435179825    4.96054091080620
H         4.05546468835463    7.21170902189593    4.57305685683524
C         5.74798832895578    6.23813214198206    5.44172982091810
H         6.34941511908675    7.13563774875916    5.44564563172189
C         6.27436954041653    5.04804456839162    5.91666560950760
H         7.28355416558887    5.01641155004776    6.30144367802613
C         5.50652877274379    3.89479282294424    5.88675227364476
H         5.91665015021373    2.96123019147833    6.24535073603190
C         4.21418249716602    3.93530800714735    5.39963732547367
H         3.61880777610025    3.03183846303560    5.37294327348066
C         1.33191283062536    6.77709472159838    4.87113373138052
H         0.25424105398694    6.78437526445292    4.69659732587652
H         1.77427818789841    7.59904223416546    4.31086538262556
H         1.53127446778371    6.89147014247481    5.93669300422956

