60
CSD_code = AJIZAW | q = 1 | S = 0 | Stoichiometry = C26H23N8NiO2(1+) | MND = 6
Ni        2.30011793794085    0.89342063429915    3.35574511309190
N         4.08726786645180    1.72209598163201    3.61981161564151
N         2.20356897057963    1.03945253398574    5.12775415078791
N         1.09419692093885    0.62404999161569    5.69921611491233
N        -3.48393523175953   -1.39239613689066    6.11000441911636
N         1.48716500193766    2.79044586028475    2.47717648856603
N         2.28314838022741    0.53249659130872    1.43940945751673
N         2.78919375474492   -0.66004780313099    1.05529523008881
H         2.66037171161232   -0.98708325758606    0.10291770828983
N         4.50256443209946   -5.40863860176621    0.90288758276561
O         0.54877135328876    0.10889791456212    3.56871660098396
O         3.44612806096589   -1.07712001590842    3.16495331105267
C         5.02329167407946    2.05880466942840    2.74743034194118
H         4.78848128674465    1.92120132350729    1.70020249834050
C         6.25515719402040    2.57049106992112    3.12663377834328
H         6.98761229186305    2.82731683929540    2.37918661306654
C         6.51932100741450    2.73917361288880    4.47827650023417
H         7.46903827499243    3.13173733487102    4.80696700470156
C         5.54546737164048    2.39677564733080    5.39805277288938
H         5.71588535681339    2.51522030747738    6.45540304388848
C         4.33031369283621    1.88633376272271    4.94032930165223
C         3.22831729897731    1.48659168202491    5.78949563881467
C         3.25854469705271    1.57274106240675    7.27733435464734
H         3.44711368978100    2.59637521456258    7.59740697485680
H         4.04943385988826    0.93883258753518    7.67578707213737
H         2.30391052184193    1.24121436870679    7.67568493333609
C         0.25320080560637    0.13089779405326    4.80310877810853
C        -1.03992684779445   -0.39641385183197    5.26686841124104
C        -1.38416006795586   -0.38410658489322    6.61765067567092
H        -0.70076147383565    0.01275056884739    7.34964218449961
C        -2.62103001338681   -0.89593893271675    6.97855618622468
H        -2.93887367332872   -0.91068632563376    8.01217409601662
C        -3.15698432604422   -1.40489202363952    4.83045350097884
H        -3.89760505062688   -1.82309358605274    4.16219558763580
C        -1.95042133877692   -0.92061669483992    4.35071850846108
H        -1.70803426329517   -0.94269965890440    3.29988142415199
C         0.95036581424215    3.82895102267517    3.09830737582217
H         1.28800459269465    4.00332548020324    4.11202863580100
C         0.01476609551685    4.66798607125737    2.50878412292890
H        -0.38941006742098    5.50419522514861    3.05537469513464
C        -0.38290666553427    4.40043561839705    1.20909659055778
H        -1.11720490390051    5.01968663571664    0.71761791087242
C         0.17540358024953    3.31980465323385    0.54599576545055
H        -0.13998968135864    3.08268272029040   -0.45682625467890
C         1.11650512259481    2.53475200891211    1.20923123288449
C         1.72435958793983    1.34219285960041    0.60779718207166
C         1.64929280281340    1.10182649189155   -0.86775254995153
H         1.53254752240379    2.03945930056050   -1.40169745924462
H         0.79813853020385    0.46381568841210   -1.11000761396021
H         2.55689092356589    0.62389733774945   -1.23505970724898
C         3.30159605788191   -1.48870380747392    2.02526784959734
C         3.69109867647321   -2.84797635225819    1.59337954473916
C         4.67101326520914   -3.51246989208772    2.33080877248811
H         5.12127224087173   -3.02803216493691    3.18228647818998
C         5.04111443923070   -4.78988021308365    1.93695390757122
H         5.79907345757639   -5.34326800150547    2.47340518701777
C         3.56109188470569   -4.79144905697472    0.21514608311580
H         3.14268884728065   -5.34847772312212   -0.61183940938250
C         3.11447882630088   -3.51058890079033    0.51015642017841
H         2.31495792291386   -3.07734888128984   -0.07178273461184

