88
CSD_code = AJOBAE | q = 0 | S = 0 | Stoichiometry = C41H40ClOP3RuSi | MND = 5
Ru        1.35145013330540   22.16784532265941   14.01595722849061
Cl        2.47842451130139   21.98700036027706   16.04665187005811
P         2.93155522594077   21.47770740720596   12.51166947579023
P         0.46179711340941   20.08588705073599   14.41006738353234
P         1.97848438816958   24.35192729004837   14.29169006165119
Si        3.67674460059296   21.29079040642560    9.47868880809656
O        -0.82153391453668   22.96488132537203   12.13530766010201
C         2.56239229603060   21.77155513350609   10.91660883067777
H         1.62026421237849   22.25131166386720   10.67312621738103
C         5.37650212681393   20.76583989450072   10.15195445525329
H         6.04933309342983   20.45362677179835    9.35933710726175
H         5.27123113742825   19.93809029631481   10.84579027924171
H         5.84958789205441   21.58217645514065   10.68827539588196
C         2.86974829066590   19.84184412321806    8.52940481651042
H         3.50296292666366   19.49592220136877    7.71832196414414
H         1.91779248481656   20.13742878043015    8.09933884547680
H         2.68563583131633   19.00042775341229    9.19059014103864
C         3.85788326669572   22.79205041213796    8.31019536014921
H         4.45356231777289   22.54481373863666    7.43697306904778
H         4.33987304120865   23.62527478905504    8.81265729508275
H         2.88879702051726   23.13407778598253    7.95981976090234
C         0.06476970958866   22.60466440229963   12.78804248415876
C         0.13569333324988   18.86904301634981   13.09577992281178
C         0.05680499025987   19.31083066991968   11.78025310229116
H         0.19811000294409   20.36293940883068   11.57016948432890
C        -0.18847944385073   18.41149357776006   10.75845645985438
H        -0.24437676852502   18.75913364078266    9.73784245629183
C        -0.35670810581755   17.06703569659017   11.04579855842540
H        -0.54477468523707   16.36283503194339   10.24871734348670
C        -0.27983171657938   16.62192861892395   12.35637023794988
H        -0.41118586670495   15.57303254640941   12.57972050538217
C        -0.03232806311448   17.51654897225489   13.38107186334174
H         0.03420221147904   17.16979829730780   14.40371338815169
C         1.35040666261134   19.05421088138556   15.61525319295848
C         2.64102620045802   18.67493293383536   15.25358476053497
H         3.03452836707891   18.99469315269735   14.29409544154836
C         3.40774815448225   17.92142116535254   16.11920573833362
H         4.41115145007416   17.63314908078876   15.84192072425846
C         2.89186678943329   17.54651845575128   17.35079284829879
H         3.49352516933196   16.96321681414233   18.03252976628516
C         1.61172435650848   17.92796042750288   17.71377884040889
H         1.21452522410676   17.64208051830393   18.67723231324590
C         0.83667084186712   18.68418185190292   16.85085026962299
H        -0.15987314642125   18.99055752170071   17.13994236232993
C        -1.16353871611440   20.35413686796140   15.18217972005971
C        -2.30277128432266   19.61131224059421   14.89694752678795
H        -2.25429146378822   18.79861514913348   14.18590370427880
C        -3.49833570819209   19.92307292918324   15.52131896867425
H        -4.38452883096479   19.34707151874110   15.29740595530498
C        -3.56379852792318   20.96880593871850   16.42746567451704
H        -4.50075441664522   21.20559214513801   16.91009946835527
C        -2.43046365229861   21.71512955430496   16.71129367262561
H        -2.47753049457016   22.53330518754127   17.41532909218867
C        -1.23651318208640   21.41413908528664   16.08560858754300
H        -0.34428385807580   21.99626691454981   16.30426669489685
C         0.96677397832974   24.90369284975040   15.69526252310693
C         1.48562592694673   25.18672153766674   16.95310102028126
H         2.55434937183401   25.16073935261158   17.11380941879399
C         0.62731074015305   25.47843856373743   17.99931789901745
H         1.03159338171152   25.69495885487161   18.97752573285062
C        -0.74334682152892   25.48421692643447   17.79989721496974
H        -1.40690011701279   25.71177405519923   18.62170421823204
C        -1.26560845675889   25.18494300612809   16.55044549473631
H        -2.33494128525728   25.17665442331075   16.39459355915947
C        -0.41544132720845   24.88481920799846   15.50354178511891
H        -0.81360940989936   24.63171669074997   14.52593455411459
C         3.67446489263495   24.87520502707929   14.68576235565012
C         4.73164615662072   23.98137186919352   14.58722020097630
H         4.53934909224883   22.95113665061452   14.31286401707159
C         6.02089117172482   24.40636603325160   14.85651776421308
H         6.84207063479628   23.70839744613716   14.78646633152228
C         6.25657272020728   25.72197669989442   15.21756658593353
H         7.26266776151041   26.05208936120064   15.43151236378604
C         5.20330790307821   26.62036213983960   15.30207801771729
H         5.38962170944331   27.64835785669465   15.57776115849133
C         3.91455894375915   26.20316628404824   15.03171196085258
H         3.08878636893610   26.90061406958058   15.08798409549385
C         1.61112447313128   25.56359709830776   12.98020676211335
C         2.13283773640074   25.24948472217326   11.72783092301241
H         2.68825034281583   24.32515222239264   11.60913645944243
C         1.93394710350207   26.09944834108062   10.65778383369523
H         2.33544456651812   25.84849513960620    9.68705243943826
C         1.21333033514614   27.27087387442123   10.83284270077788
H         1.05117525102161   27.93600738491192    9.99739663557331
C         0.69844587844469   27.58914181210855   12.07813890310584
H         0.13794625612368   28.50300464607909   12.21350219491712
C         0.89620382661444   26.74122318830690   13.15447591028503
H         0.48747736578907   26.99361948861570   14.12368781019315

