58
CSD_code = AJOCIM | q = 0 | S = 0 | Stoichiometry = C28H20CdN4O5 | MND = 6
Cd       10.07340832134866   16.96185890624974   10.58839823307851
N         8.84265878719669   18.32692637392314    9.58431872286321
N        10.45327899375804   16.42480793449439    8.47335005755524
N         8.96384389908352   17.06906644995542   12.73348242570344
N         8.45998501725233   15.17595389827377   10.82646502785638
O        11.75104100679280   18.21412141233748   10.74206791436807
O        12.19460384515171   17.55164096878028   12.81332395646503
O         9.51041711575816   19.95332890629522   11.17419550096066
O        10.74621499869128   20.79790889495380    9.47115632578336
O        11.47922047756146   15.29893119487074   11.65938156818936
H        11.16492933021519   14.77028271483240   12.39854103264629
H        11.91043230103285   16.09459349773009   12.09211905834037
C         8.39256770515968   19.47176501344392   10.27867652783332
H         7.67089130945106   19.17929443861949   11.06099337643593
C         7.85822629785072   20.57629754787692    9.43497495415385
H         7.34328543089088   21.37158714977255    9.95299307074335
C         8.04062107410615   20.58066791874249    8.11060286636172
H         7.65498557789725   21.38219773266067    7.49627110808146
C         8.76755154874468   19.51840173895776    7.47559510595755
C         9.06158179115475   19.52772708952707    6.10694031846579
H         8.71701454253677   20.36522980373604    5.51577869806729
C         9.77363737416779   18.51915530411831    5.51429809186050
H         9.99541143537551   18.53930119955429    4.45756752922046
C        10.25640932359377   17.45072521508848    6.29320348348093
C        11.04667364498296   16.41092753877868    5.76500630867151
H        11.27811160807067   16.41193403293704    4.70861786148109
C        11.52421504457579   15.42761596319427    6.59190519901333
H        12.14285331968577   14.62795764653386    6.21348634403634
C        11.21073942665664   15.48260638139936    7.95586843074810
H        11.59115479504047   14.73709258750291    8.64520857106413
C         9.96791418047429   17.40299451713187    7.68788172511954
C         9.18129845881639   18.44554284032574    8.29386568092693
C         9.18849923688970   17.99652865421024   13.63489668647644
H         9.92757586950203   18.74428444553255   13.38529923241373
C         8.51928579398435   18.04461918818249   14.86527256959830
H         8.75010001306243   18.82774492335785   15.56970411907356
C         7.58119710116044   17.08496996964908   15.14937841932459
H         7.04453175599511   17.08148108762095   16.08754645777572
C         7.31094742056327   16.08849207291149   14.19499061224130
C         6.34285294960929   15.06740119765023   14.41279707636515
H         5.80740179528049   15.06554131707227   15.35088747636045
C         6.09751797218753   14.12706937175548   13.46982642573948
H         5.36150965596690   13.35384619191141   13.63431925025443
C         6.80029487461467   14.13458218613015   12.23193458641184
C         6.56528564285553   13.18219845452242   11.22539809371769
H         5.82876301656411   12.40827048031523   11.38825862337410
C         7.27581283091119   13.25601126716138   10.05297012604919
H         7.11909786015413   12.54305438449128    9.25896797100869
C         8.21818616550291   14.28002154699086    9.89971782032844
H         8.79538733013250   14.36981230501399    8.98930521308236
C         7.77612999561120   15.12829493149428   11.97794560603008
C         8.04014875095338   16.12692417069989   12.98318527266360
C        12.08205309606992   18.43056817172298   11.93449594379425
C        12.30992940761468   19.86929863307816   12.30682602666751
H        13.02084169158343   20.07938906930394   13.09332838625113
C        11.60396722041450   20.81329214808681   11.69860424345940
H        11.72443730843528   21.86545806366923   11.91785739441511
C        10.60146726130694   20.49750295486200   10.62435129155189

