95
CSD_code = AJOKIV | q = 0 | S = 0 | Stoichiometry = C52H39NP2Ru | MND = 8
Ru       11.57371607220616    7.44542023667906    5.96833784334105
P        13.26959272446017    7.22731278441564    4.46962954516846
P         9.83495467674714    7.46259980291982    4.51167173961413
N         8.83311724222508   -4.67574731966548    7.32496864432556
C        11.30132316821925    5.47809635165694    6.04985060925178
C        11.05568247371316    4.30265811978118    6.28030977416097
C        10.76877476560566    2.99716813536871    6.46359323468854
C        10.48232234474812    1.82607169646469    6.62788617576552
C        10.14532724703669    0.47602489074887    6.77928844153631
C        10.26167147542088   -0.15829484094089    8.02466947124189
H        10.61953170751499    0.40760344135873    8.87282907260266
C         9.92591369977590   -1.48425290281774    8.16639938910040
H        10.01575827078439   -1.97469464189779    9.12530627893106
C         9.46357843961008   -2.21143543465847    7.06451067601115
C         9.34480815362322   -1.58654680906803    5.81849672709128
H         8.98726989796712   -2.15546135346634    4.97189083333949
C         9.68152539479935   -0.26104847401742    5.67908631379937
H         9.59373901392802    0.22814204281204    4.71935279708976
C        11.97389198005773    7.58440097960338    8.18316672224107
H        12.24081054794346    6.79299435047488    8.87197270126381
C        10.65666048960145    8.04042930816479    7.91432033783603
H         9.75529917865310    7.70138833876708    8.40862046227546
C        10.76255180358746    9.20950796066011    7.10742253669186
H         9.93553050434940    9.85889582957067    6.84451979170119
C        12.12390667152920    9.45178810457389    6.84894014719610
H        12.54199611934593   10.33983611719207    6.39259916409836
C        12.87715363951803    8.43558057447881    7.50869253606095
H        13.95509459483588    8.42480813618817    7.62171683777607
C         9.11899142439323   -3.56982147118931    7.20808177905170
C        13.72436568250453    8.84249177210269    3.75833244385919
C        13.09457978746197    9.28482508353563    2.59771360909244
H        12.41702568390431    8.62018536292673    2.07892699422130
C        13.33246260393259   10.55658827879405    2.11178320135856
H        12.84618515208752   10.88442850529391    1.20437058822149
C        14.18411658403893   11.41128528393708    2.79300371295881
H        14.36870320160733   12.40657373072368    2.41613312285810
C        14.79414657506307   10.98941981613269    3.96367685278951
H        15.45091193861264   11.65802209677441    4.50201875062457
C        14.56337948421691    9.71466176780882    4.44736482180214
H        15.04056415923232    9.38714697672102    5.36185737726526
C        14.84181499292623    6.64792449576377    5.20841256581194
C        16.08018145615660    6.93944277780869    4.64459131524145
H        16.14118649233594    7.56889316053683    3.76776294501398
C        17.23374093346417    6.43017120426845    5.21129380051079
H        18.19438961284185    6.66742093707540    4.77725422970994
C        17.16129093059254    5.61390138383344    6.32913907106339
H        18.06597069562497    5.21899937760592    6.76765077376963
C        15.92888441175832    5.29936535513197    6.87700725418609
H        15.86901316369103    4.65268437165711    7.74021704702059
C        14.77279853154969    5.81309244784995    6.31755200546681
H        13.80045110685847    5.56845628908474    6.73088479948011
C        13.34254211920125    6.10062252885796    3.02955172982807
C        14.07762609794584    6.37596158044428    1.88078107455374
H        14.56273476510026    7.33359607153827    1.75543731500144
C        14.18497188001123    5.42150958319188    0.88550865194787
H        14.74894179050286    5.64408575272359   -0.00916148646304
C        13.58453517684303    4.18218558724977    1.03543769452269
H        13.67917016445301    3.43968887754634    0.25657761991788
C        12.87008046495722    3.89720089400003    2.18677563343712
H        12.40548381958001    2.93093833727899    2.31431841837580
C        12.74731477517919    4.85236358808885    3.17842897940813
H        12.18183459353646    4.64814553079654    4.07801447158181
C         9.57514738379658    8.90499100636350    3.41727122211913
C         8.63702640829409    8.87477343931973    2.38606480321249
H         8.06677167305023    7.97313589428796    2.20809973386615
C         8.43887519818828    9.99171326366659    1.59711653972884
H         7.71230677672865    9.96199772062599    0.79800928379684
C         9.16546617084096   11.15018789112584    1.83012793354714
H         9.00555621133230   12.02073836217505    1.21097256078956
C        10.09374614887283   11.18822347533554    2.85556363585486
H        10.66322957502360   12.08753885743678    3.04097949891154
C        10.29756511627542   10.06827253457654    3.64276201393031
H        11.03227232022222   10.08759989802419    4.43570993254583
C         9.62696733013356    6.10224904318842    3.30834954585235
C        10.22821456476664    6.22642926908498    2.05805231439893
H        10.75153592133743    7.13928484313520    1.80755903146972
C        10.15023241097634    5.20147125177951    1.13567572042496
H        10.61201096030747    5.31470212807273    0.16572332534647
C         9.48998507930772    4.02784899529852    1.46029046957798
H         9.43217100746361    3.22372200506595    0.74159307701950
C         8.90509277318656    3.88982635436003    2.70746847410773
H         8.39130495809594    2.97553166376987    2.96619773680464
C         8.96847365670664    4.92027807574802    3.62849419275870
H         8.49890094827926    4.80511007395462    4.59306805558462
C         8.24835474776442    7.42489119462781    5.42711947245865
C         8.11027341749347    6.45499104390365    6.41983591423454
H         8.93197102297856    5.77484273480357    6.61115228561389
C         6.95077898884959    6.37534339025277    7.16763724830020
H         6.85289244787954    5.61308548616879    7.92718941663063
C         5.92150070196155    7.27769432184659    6.95096251528144
H         5.01707018932701    7.22121212278748    7.53863143451553
C         6.06328094535827    8.26079412387281    5.98731998173705
H         5.27076969617850    8.97719251428076    5.82505945171815
C         7.21819848125386    8.33714342762727    5.22702582737396
H         7.31256421766923    9.11578083249274    4.48406938306281

