65
CSD_code = AJOXON | q = 0 | S = 0 | Stoichiometry = C34H26AuNO3 | MND = 4
C         4.58835978687432    5.79475521232310   -1.18734353360845
C         5.06348763246219    5.38148240404414   -2.41906432399483
H         4.82236035101155    4.38156293176889   -2.74550489718189
C         5.84560523459664    6.21679590328434   -3.21435916133439
C         6.21732468848408    7.47303783985439   -2.72171015817980
H         6.89070725356463    8.07739908874718   -3.30906776948322
C         5.74340522348273    7.91111020650950   -1.50945543374558
H         6.09880821477540    8.85237874268797   -1.11843304898419
C         4.87470947473223    7.10971586457918   -0.75704475863163
C         4.30893662578045    7.48566930735832    0.51912505380396
C         4.15536317737606    8.82234381487998    1.00124962050676
C         4.21023232655885    9.96209322693857    0.17457391672419
H         4.29012506229706    9.84003198923774   -0.89323075253863
C         4.09433638884838   11.21852041666816    0.70825918395428
H         4.13046411318730   12.08277990796181    0.06212884572776
C         3.91158127092419   11.39557461329876    2.08584801983063
H         3.84654709026951   12.39444342328209    2.49088188418845
C         3.76642413064866   10.30729946479598    2.90214772305906
H         3.56135091900262   10.42761980770122    3.95576385843371
C         3.84847810175433    9.00408128927738    2.37674956903224
C         3.57868770343955    7.85893775346534    3.15995002390039
H         3.35453904011195    7.96279411951538    4.20939759245780
C         3.53915862192254    6.63931513806308    2.55498500683967
H         3.24092721865068    5.74166052530443    3.07715508261967
C         6.01684889709278    4.62967394770669   -4.97551294166826
H         6.42489780875778    3.82223718679000   -4.35944174238996
H         6.48386373854583    4.60478284719683   -5.95895316679427
H         4.93579598508343    4.49622474301825   -5.08230157744902
C         2.82756248442323    3.72739415332561    1.66684137281636
C         2.30409592776627    3.12759027085001    2.57597278768580
C         1.69535363754794    2.43280868612803    3.65039691106666
C         1.27962449199909    3.10676465218938    4.79513243752654
H         1.41897979473341    4.17706621143256    4.86399056320089
C         0.68844978958314    2.42825052663414    5.84574189593322
H         0.37867785915083    2.98296284073412    6.71827905247017
C         0.50241254451340    1.05286342786956    5.76629244514347
C         0.91693014754566    0.37219647619701    4.61930053152934
H         0.76346649985676   -0.69505394415543    4.57579653267721
C         1.50450315294052    1.05044057339208    3.57661651357407
H         1.82528896752004    0.52131284086201    2.69128119756375
C        -0.49900260707390    0.90571230133897    7.92152463818317
H         0.33164896184220    1.38421794537816    8.45210805437822
H        -0.91049022777398    0.11124921009093    8.54270303913494
H        -1.27922772788667    1.64920111103661    7.72405528579429
C         3.48150625510238    3.18465554402075   -0.87497173222449
C         3.37708344541560    2.20941235381494   -1.57570861211299
C         3.26269256779267    1.06940078441527   -2.40868988732485
C         2.49288925137052   -0.01972246137722   -2.00948856937638
H         1.98228025181947    0.01737766266956   -1.05846149519943
C         2.37610374910066   -1.13895533846147   -2.81273252766494
H         1.77135315625820   -1.96544683987364   -2.47279015493258
C         3.03319617632453   -1.18798420182309   -4.03797743387430
C         3.80607378947071   -0.09723880042570   -4.44232060073767
H         4.30885069882652   -0.15241056200423   -5.39543932035606
C         3.91933883431557    1.01514774809394   -3.64037109577502
H         4.52088887101562    1.85299516698493   -3.96251933784526
C         2.23553059367944   -3.37013227403594   -4.55868763262738
H         2.60905681705531   -3.83542352437642   -3.64040411496491
H         2.34975391033394   -4.06824149104003   -5.38671399412131
H         1.17501359710833   -3.12580080568269   -4.43647136983297
N         3.90162130633601    6.45827637578998    1.27300666011237
O         6.32928241112514    5.89356515927639   -4.43740239688646
O        -0.06715606606494    0.28120673851240    6.73991823919289
O         2.99068308193319   -2.23730481033748   -4.90882827076423
Au        3.67005752470074    4.71332457684940    0.22262827354892

