62
CSD_code = AJOXED | q = 0 | S = 0 | Stoichiometry = C31H26AuNO3 | MND = 4
C         2.23715135107383    0.98153691062360   -0.05037706589914
C         2.98495933909271    0.24557283720762   -0.65064716784027
C         3.83666631864784   -0.62614976224237   -1.37392600331305
C         3.80726058082322   -0.64951505742635   -2.77065267761424
H         3.13846212049319    0.01471927792851   -3.30075020320032
C         4.62719288672906   -1.50363017389242   -3.47219304032027
H         4.61460459904779   -1.53009233511267   -4.55097884277601
C         5.50060907735172   -2.36010667150897   -2.79946224667207
C         5.53619817950488   -2.34069625501732   -1.40950800020296
H         6.20149076598140   -2.98985148689945   -0.86113517063761
C         4.71089061347026   -1.48080683419265   -0.70818150730451
H         4.74011869426465   -1.46789851206930    0.37180358747526
C         7.17516857999356   -4.04378355350851   -2.97703341495074
H         7.92303089522687   -3.50164956740157   -2.38843124224223
H         7.67267681546175   -4.57264817993055   -3.78885088136651
H         6.66431754919484   -4.76890055785790   -2.33432880320943
C         2.13279060289454    2.39004594201734    2.25779568681356
C         2.87720686133379    2.52576964720982    3.19595477738910
C         3.73495479532895    2.70157620233129    4.30947719065066
C         3.29340508512793    3.38543126740622    5.44489031173020
H         2.28951184378831    3.78345186268444    5.46969032173139
C         4.12912204925336    3.55084748770917    6.52553053017838
H         3.80182627896578    4.07614981293444    7.40935910749914
C         5.42853767979882    3.03940475414011    6.50383518237185
C         5.87331315450534    2.35907083120401    5.37521432314925
H         6.87226000198953    1.95339804157199    5.32805989529817
C         5.03090396303844    2.19396234893793    4.29086402778301
H         5.37750330200484    1.66562973873551    3.41471963448129
C         7.48513005080152    2.76626608448319    7.67291249403080
H         7.50997533052324    1.67538208899310    7.57914355401770
H         7.87522902855684    3.05100352743623    8.64908652312887
H         8.10985060899874    3.21161976219703    6.89118476699453
C        -0.44535844107450    3.37739593486705    1.57017816405704
C        -0.43535581268449    4.08682451655842    2.75179096626754
H         0.41577540863781    4.02811634019750    3.41306934803765
C        -1.50637703428073    4.89957093530932    3.13858667975040
C        -2.62060335249937    5.00121192917509    2.30831021287673
H        -3.46339848153878    5.61940857297974    2.57615208104496
C        -2.65171598790691    4.30090807477688    1.11986837690264
H        -3.52450930014403    4.39440023125766    0.49000304001466
C        -1.58364613456867    3.49152661505744    0.73767584811297
C        -1.55589635463895    2.73152186428667   -0.49422916927196
C        -2.57937128408970    2.69782727815588   -1.44848127109734
H        -3.47696585324038    3.27338096797930   -1.29180522423273
C        -2.44009909488466    1.93034320751582   -2.58208041600242
H        -3.22884824997549    1.90107842598200   -3.32020188371079
C        -1.27606275274064    1.18397415696376   -2.78013278645564
C        -0.30644902048066    1.26637011695742   -1.79784464995975
H         0.62297691361021    0.71807716282258   -1.87611900205484
C        -2.40074771820646    6.37287843545237    4.78025016226954
H        -2.58125719178775    7.20337312419066    4.08990537830065
H        -2.06365280969006    6.76862411518019    5.73704099939896
H        -3.33068129238254    5.81410735700485    4.92831745832916
C        -1.08579575518176    0.33672785167762   -3.99566594355592
H        -0.14149184088321   -0.19884267669899   -3.94832308036336
H        -1.09399336832630    0.95534612020999   -4.89246325742377
H        -1.89547810221058   -0.38640551486562   -4.08376136602450
N        -0.43898617587382    2.00762897747097   -0.70336035970751
O         6.26655219915457   -3.16736045969225   -3.59324254443973
O         6.17025834384034    3.25983064329217    7.62908494759248
O        -1.36301521724940    5.53865814169185    4.32592839967404
Au        0.95087475792298    2.16598807545734    0.79888324447760

