58
CSD_code = AJOXAZ | q = 0 | S = 0 | Stoichiometry = C30H24AuNO2 | MND = 4
Au        5.61352055959572    4.88222006648710    3.04083365223989
O         3.39558504160861    7.61847041864969   -4.94219698820117
O         3.56668547385832   -3.20784868240565    0.70604612099137
N         6.13049392517842    6.75294028989086    3.70775721578561
C         6.15573974426398    4.38656422614470    4.90393328293832
C         6.17265132289493    3.14227174435086    5.51494343686295
H         5.85158233524544    2.28060495012248    4.94565138652816
C         6.59107781349988    2.96555546460285    6.82834673302561
C         7.00582607531342    4.07907632085028    7.55524255066243
H         7.33413458642462    3.95622677267023    8.57787587035404
C         7.00342634022013    5.33140508557604    6.98270229553330
H         7.33214200012089    6.17836345046329    7.56729395673424
C         6.58263409730954    5.49744636320618    5.66065378618246
C         6.55735944404264    6.78093003469226    4.98648369292974
C         6.93532713385137    7.99928543034397    5.56075639861960
H         7.27561282655701    8.02700859817446    6.58286004473709
C         6.87142836388950    9.15930228993844    4.81918361319026
H         7.16240362939835   10.10295219433081    5.25630872624394
C         6.42751395850436    9.09885401020703    3.50281967644041
H         6.36244135312036    9.98269268052734    2.88993343223565
C         6.06667567925447    7.86966240671288    2.99208363880429
H         5.71034377762575    7.75242348605973    1.97760156167182
C         6.59341226797645    1.61038836686972    7.46271032074652
H         6.37059418908954    0.83884764683128    6.73019304101941
H         5.84439338817767    1.56520678738759    8.25373034870186
H         7.56303686054985    1.40096239510985    7.91255585845353
C         5.12073244307767    5.46131952686248    1.25176643278206
C         4.82814299860292    5.84979085761450    0.14533173063809
C         4.48422212840704    6.32289026722936   -1.14539991601137
C         5.02816692692844    7.50443381223962   -1.64100608315337
H         5.72679353200768    8.06565525808524   -1.03523242506665
C         4.69314985982166    7.96982120911157   -2.89992829928305
H         5.13565351175721    8.88900765457987   -3.25262598719149
C         3.79958773526087    7.25435621380284   -3.68851372351124
C         3.25163103723468    6.06790263691520   -3.19580129378488
H         2.56110421146679    5.52552430919523   -3.82283012911696
C         3.58815546799173    5.60745370272107   -1.94390613082478
H         3.16388812404803    4.68865588573704   -1.56646088217536
C         3.91898500687556    8.79710263790392   -5.49843918809804
H         3.46744072624017    8.88437520820632   -6.48566787190317
H         5.00810632976215    8.74496356694873   -5.60381812408842
H         3.65444710985625    9.67752841484558   -4.90259632325615
C         5.16234347787228    3.11324819108141    2.55112031182525
C         4.86710960894407    1.99138252820441    2.22369382853241
C         4.52582261356998    0.66497013732946    1.86315084876490
C         3.89987282159726   -0.17891309874976    2.77619130388209
H         3.67070521997152    0.18769093337504    3.76671780279886
C         3.56266985943118   -1.47488879999164    2.43008914953018
H         3.07558366444878   -2.10166329651390    3.16129077947615
C         3.85153046298570   -1.95076003722188    1.15564755510294
C         4.48059770626580   -1.10671877645023    0.23734366979532
H         4.69591329502634   -1.49337914463704   -0.74663597711122
C         4.81238723729675    0.18284125821355    0.58367744262955
H         5.29664761809471    0.83333254494881   -0.12931499245194
C         2.92923901557689   -4.10473424204541    1.57994033306829
H         2.80364979393052   -5.02792527421226    1.01599565403862
H         1.94586779077183   -3.73559282123672    1.89057658899496
H         3.53851047605215   -4.30508406338942    2.46794026182000

