100
CSD_code = AJOYAB | q = 0 | S = 0 | Stoichiometry = C43H46ClF6N3Pd | MND = 4
Pd        0.38587346926711    3.71013880082881    0.17813583097448
Cl        2.10321168443595    5.20800543371698   -0.39941109987602
F         5.63002343161336    1.87250539885240   -2.91717059876230
F         5.82807939033909    3.07487263101397   -4.68956053000455
F         4.74054562194609    1.22135197539470   -4.75855969084446
F         2.19278044347510    7.19612525479188   -3.76241888448192
F         2.30899490978021    6.32056627193920   -5.71739894679365
F         0.45278062214836    6.29045547526822   -4.63962412950212
N         0.79783919369871    2.49980596337365   -1.42221198331475
N         0.07363514436066    4.73733529598352    3.01444876937923
N        -0.35546110659747    6.20463145862214    1.49327864392009
C        -0.05217462684971    4.90363686510192    1.67877181734428
C        -0.82093949788683    2.17659940770290    0.61476696511479
C        -1.76167528068936    1.99488244487635    1.62212730919146
H        -2.03603296921208    2.83014681858137    2.25133648261713
C        -2.37267613953867    0.77123133847016    1.84007052514061
H        -3.09715185188871    0.66208303702882    2.63542792148491
C        -2.05762398858132   -0.32494806451638    1.05037242349737
H        -2.51942433241149   -1.28280425544993    1.24016556556921
C        -1.16657195600341   -0.17778876192240    0.00997607567106
H        -0.93142500284607   -1.02575824518808   -0.61671899097658
C        -0.56281441292972    1.06190324575887   -0.22274894078157
C         0.29840461121595    1.31066247735164   -1.36349050528415
C         0.47561045610988    0.28813449439808   -2.44336658196109
H        -0.49203609315405   -0.12378782829585   -2.72388194245058
H         1.09780032777620   -0.53087017609246   -2.08295359806348
H         0.94379231323557    0.72134553611950   -3.32485272021953
C         1.63211090601054    3.00005875858010   -2.40372330181028
C         1.29882633436163    4.23773278084304   -2.97311411176543
H         0.37383166511397    4.72837392242345   -2.68809575940749
C         2.15153587825921    4.82353741431416   -3.89011869904680
C         3.35982369035758    4.22744771133328   -4.23547146088451
H         4.02752599197026    4.70231894123019   -4.93651851254689
C         3.69022326276491    3.01747783086667   -3.64861877341460
C         2.83871490210513    2.39491391833359   -2.74507536037077
H         3.13837251422357    1.47218713392637   -2.26987663360413
C         4.97083342063412    2.31682622302696   -3.99987015050830
C         1.78203834586337    6.14965886788511   -4.49179064584695
C        -0.13952178877527    5.93506663163226    3.65533046665829
H        -0.04784452902012    6.04425833812050    4.71525506501937
C        -0.41125278451101    6.85227210304025    2.70068564351244
H        -0.65704485499475    7.88977840899719    2.78602211278716
C         0.28799361835466    3.48446726444331    3.65369381511723
C         1.44168096851866    2.75028373755644    3.34992550663769
C         1.57371106018184    1.47845247395402    3.89582410968131
H         2.44943228632707    0.89214906097467    3.66687220425404
C         0.61131398703707    0.95860917802072    4.73575931964199
H         0.72636062200189   -0.03444641453992    5.14382548006124
C        -0.48524051978995    1.72319334057590    5.08073157552164
H        -1.20800693376308    1.32289496480200    5.77376260886436
C        -0.67457202567623    2.99128336528286    4.54883211193868
C        -1.86784476726188    3.80399341496353    5.00861536568390
H        -1.99073526287358    4.67497004007571    4.35775310563437
C        -3.18612931649930    3.02741848607107    4.97237099077233
H        -3.38494535584450    2.64147167535251    3.97682970665173
H        -4.00243659915236    3.69109887245479    5.25072030301415
H        -3.17939309835657    2.19483799882750    5.67011805790835
C        -1.60848014071779    4.29672258931053    6.43791746545141
H        -2.41039845116944    4.95677260418189    6.76118281280151
H        -0.66651511651143    4.83642695389922    6.50641426310908
H        -1.55805708406385    3.45378390501565    7.12282369987058
C         2.59883575602083    3.32663159498518    2.56336785924277
H         2.31082683010201    4.27827109944732    2.10257872515047
C         3.76027269557422    3.61249831331725    3.52099574280794
H         4.10453411944753    2.69847576514412    4.00024391517486
H         3.45453551145814    4.31130929469739    4.29740521400755
H         4.58928133585259    4.04991830587413    2.97062168767828
C         3.04636414576870    2.38873767529922    1.43588541556493
H         3.58033661802437    1.52318250667812    1.82273686336750
H         3.70817697260256    2.92847018517834    0.75991926672906
H         2.16864528609765    2.03764682009100    0.87494359101814
C        -0.50423400468743    6.82970174448421    0.22153803324362
C        -1.50539555312437    6.37829290509514   -0.65031536023497
C        -1.60576432038451    6.97600779666208   -1.90207872710662
H        -2.36624350578945    6.64613457097420   -2.59261045850882
C        -0.75185853310939    7.99291353445836   -2.27752855046455
H        -0.83869318561921    8.43602141612682   -3.25766009183851
C         0.20785071318145    8.44464363379107   -1.39505656157495
H         0.86496140251902    9.24349622676434   -1.69678044594960
C         0.35636558214814    7.87753848288697   -0.13636701979724
C         1.41729437950214    8.43211737958884    0.78688387414403
H         1.53089854884312    7.77090951681458    1.65007519124984
C         0.99460933238031    9.82131653777982    1.27836020387823
H         0.93931912452272   10.51559713149991    0.44339457234370
H         1.72059909103599   10.20135558805802    1.99370177824158
H         0.01711745660112    9.79738174168219    1.75747261439517
C         2.78449503040088    8.50952380128239    0.10516629553586
H         3.04120982099251    7.53848936131235   -0.30727217720532
H         3.54036706200798    8.79178493962350    0.83502617346097
H         2.79409568144013    9.24251516657505   -0.69612055867461
C        -2.55074538785843    5.35501522532217   -0.25154537952663
H        -2.27740471576167    4.89243263912277    0.70397321437973
C        -3.90177404582607    6.05325642371615   -0.06871435927959
H        -3.83291448494630    6.82822515192226    0.69219940318232
H        -4.65567175916907    5.33214136229034    0.23916638214505
H        -4.22601243554039    6.51658968933411   -0.99719375723701
C        -2.65354444933614    4.23234782534939   -1.28874705611079
H        -3.05936144206505    4.59505419292496   -2.22964431178191
H        -3.30076670534508    3.44022574121968   -0.91726330633372
H        -1.65678315368332    3.81037392305322   -1.47055946327817

