50
CSD_code = AJUJUM | q = 0 | S = 0 | Stoichiometry = C18H19MoN3O9 | MND = 6
Mo        4.33377189044030    3.83883940556178    6.69077105316693
O         5.29413999109529    5.16869890100607    6.64627070565360
O         5.12202345760044    2.81872341806333    5.40833285608562
O         3.95258616525574    4.04363636312361    8.61079295965456
O         6.51655525245384    2.82132577694131    7.94979945003969
O         2.79667446293251    4.04415288834840    6.13391111401147
O         2.79979789028041    2.06889851188963   11.32552173235954
N         3.45673415914118    1.83689265855223    8.74808236630447
O         5.84203899799618    2.64770540665375    2.90605360748031
N         3.94363602852668    1.84462046229942    7.47183980539346
C         3.47836217435385    3.02860394268860    9.24604792315115
C         3.87150179928711    0.73222780287106    6.81878883866177
H         3.42849454930709   -0.12859588180599    7.32068510533971
C         2.91964940267334    3.28410746993269   10.63010775090551
H         3.59273074434069    3.98323742594663   11.14812367945610
H         1.94029763719669    3.77038016407844   10.50411373126160
C         4.30914896780185    0.58531966638069    5.46770867057013
C         2.20067020112603    2.05644315517392   12.53487544860817
C         5.29917959670155    1.53214051354434    3.43833550294821
C         1.73091285762091    3.18433281491387   13.21217399888938
H         1.82308933485853    4.16893022662299   12.78368716071503
C         4.91111781207173    1.67290595479084    4.79992566458874
C         4.13077431041258   -0.63177114248954    4.78103076414315
H         3.67505745457490   -1.46187668576927    5.29816785823578
C         5.09582947427922    0.32531465084573    2.79373190234909
H         5.38120589790194    0.20095461870993    1.76125792542125
C         1.47998890747418    0.65476475864541   14.35916597240860
H         1.36949810007405   -0.31188314564993   14.82587114728972
C         6.58691404199823    4.09801647498833    1.19462413851819
H         5.80697080806629    4.80335775863180    1.46689084417599
H         6.79991840958877    4.18573551802040    0.13312968341387
H         7.48042093775426    4.34018806586869    1.76257855127073
C         4.51867931691286   -0.75067566553816    3.47172271272266
H         4.37561793474821   -1.68195627853167    2.94634807312491
C         2.06778808212551    0.79140893355898   13.12600747705159
H         2.43755897506672   -0.06197759745633   12.58183381962785
C         1.01452919571159    1.78744346057638   15.02579796804862
C         6.13268720602289    2.68467989867172    1.52067196435950
H         5.23462479191674    2.42783143180708    0.94287405770788
H         6.92474621272700    1.96050345557094    1.28260837264984
C         1.14096444093882    3.04624347289475   14.45208456866452
H         0.77291288292214    3.90701665659390   14.98950951727495
N         0.40172725809058    1.65208417969116   16.31515740472483
O         0.31017984048652    0.53522434724566   16.78282768717395
O         0.01028888645298    2.66205168381910   16.86459793070598
C         7.67461288187029    3.61118973773252    7.70454559100429
H         7.35711797417951    4.40485240575908    7.02824906306686
H         8.45765901304673    3.00623826224826    7.23685448545851
H         8.05057593013554    4.05068657213750    8.63167207128816
H         6.72593746150213    2.18032712383262    8.64163932287743

