112
CSD_code = AJUKEW | q = 0 | S = 0 | Stoichiometry = C35H66CrO3Si7 | MND = 9
Si        4.52727186568365    5.42884251378167    8.08259504457751
C         3.42527372390224    6.66373120829828    9.00113168349287
H         2.45397150978940    6.33834259200069    9.35785487216328
C         3.59156373530611    8.01315252582472    8.76867855197015
H         2.78471102712173    8.71347441119906    8.97722279527468
C         4.83524900875362    8.58342512923841    8.35510001920804
H         4.88472216240136    9.66990756676303    8.33534630686139
C         5.99712490277717    7.87615116109483    8.12380591953781
H         6.88225475333630    8.47355881733155    7.90839982994086
C         6.08209449643127    6.45928657983403    7.63081655721532
H         6.24050352973467    6.47839746140604    6.54923372700278
H         6.98386875217645    6.00039170899340    8.04923358041974
Cr        5.19197004201843    7.35057030450288   10.12884854490903
H         5.07777388197546    4.45338550703431    9.07105167139689
C         4.76927708505341    6.33986544336440   11.59198049627038
O         4.51043730110072    5.79553943367699   12.57563241831438
C         6.92741202982352    7.29630988916911   10.68976936542404
O         8.00738159391073    7.35528638363891   11.09405669881011
C         5.18928582728625    8.67905066823957   11.36363368303260
O         5.24215566413824    9.45573380829699   12.21968948600826
C         3.66671583693033    4.62748988592860    6.60354574666242
C         3.33654159542960    3.26457897799542    6.66089570377631
C         2.94084948458700    2.61034475006515    5.50406762215792
H         2.75108412570668    1.55103648660379    5.55843481797321
C         2.77241286344737    3.26693267412220    4.29698077617596
C         2.99391697501262    4.63669802704229    4.27793681233750
H         2.82005445477438    5.18719894794624    3.36830485385995
C         3.43934969604297    5.32116120025012    5.39950990316598
C         3.36898344428274    2.46270963241198    7.91805781925110
H         3.55358344962865    3.13482275294219    8.75409228001282
C         2.31503333927308    2.51069324130784    3.09557511003032
H         2.17283182508040    1.47312770733284    3.41825275681217
C         3.60502315434253    6.80495106666401    5.29739620364065
H         4.01718882462920    7.17190343415583    6.23853799888935
Si        1.62446436960364    1.75770956421271    8.33648935496654
Si        4.87576109765221    1.26260381641617    7.89846625837304
Si        0.56139808743392    3.08058081301072    2.54274308929198
Si        3.71416862903245    2.39266852353333    1.77951497618840
Si        1.86937131639875    7.65319639498813    5.23808366166234
Si        4.89260848788586    7.32045775635952    3.95790941382533
C         0.44699641005690    3.25867452394358    8.42428004520118
H        -0.55311228355924    2.96659317304362    8.72900581010141
H         0.36532438004742    3.74231067011514    7.45566244738208
H         0.80192624441908    3.99907015239521    9.13440807462610
C         1.73056391408623    0.92084026151602   10.04643921781926
H         0.74099176407317    0.68572038572543   10.42486303910134
H         2.21384486140955    1.56362722479616   10.77447620027817
H         2.29063135500569   -0.00733104269178   10.00257311045206
C         0.84947057566833    0.50877756831925    7.11540583805854
H         1.52492526579957   -0.30231179259142    6.86644099254543
H         0.54732677501854    0.98845885157541    6.18993811036720
H        -0.03896752309489    0.06562089098508    7.55669520338796
C         4.47237683584339   -0.45675992015257    7.17370233248730
H         4.12218990696908   -0.39298900205543    6.14877432446009
H         3.71296822861955   -0.96760362293949    7.75642074288433
H         5.35873484834877   -1.08383725282585    7.17330440540004
C         5.50823323290206    1.04411088907268    9.68396724960973
H         6.39370904789673    0.41697729169050    9.71060317966705
H         4.76187521657262    0.58094898935712   10.31977529582804
H         5.77085440817984    1.99769365717327   10.13098804634132
C         6.25271175032832    2.05224290805276    6.83768689426096
H         7.13737509594566    1.42426675732225    6.79763854043666
H         6.54936566347697    3.01797129018830    7.23473620715120
H         5.91428369029926    2.21060263406322    5.81882261110651
C        -0.38543304532019    3.68846296202292    4.08733320467926
H         0.20692514683533    4.38826601418108    4.66807868982198
H        -0.63324644935267    2.85779945549967    4.74159259169722
H        -1.31606082499283    4.18030013985492    3.82072830653127
C        -0.36322617133848    1.56539645749418    1.83989171748707
H        -1.37027612553050    1.83176271989996    1.53486347982247
H        -0.44585197191584    0.77203199360273    2.57620100510477
H         0.14231607848914    1.15484026414621    0.97269763815668
C         0.57408147211200    4.42994029262875    1.19357118286255
H         0.92063406120462    4.02750388836209    0.24693148339763
H         1.21104511301181    5.26914320616732    1.44893431493496
H        -0.42705692997351    4.81898914510478    1.03340433554183
C         4.21434204861181    4.03571551659695    0.95468853224809
H         4.99211000169800    3.86040329688515    0.21682482395307
H         4.60601834838325    4.74014333271459    1.67923939900470
H         3.38326256528860    4.50654878180561    0.44173869800405
C         5.24854945427001    1.69375112756403    2.67683045744054
H         5.03417484308424    0.74447313338918    3.15800217922950
H         5.58859535790284    2.37822768537154    3.44820397650904
H         6.07627921213534    1.53477771130337    1.99261278106664
C         3.16410615962207    1.17551118496524    0.41667635936579
H         2.80180442485293    0.24149248100068    0.83347167433208
H         3.99027127352036    0.93807853821556   -0.24580743248306
H         2.36978218654114    1.59461019901593   -0.19207334096708
C         0.86632536776479    7.42918244957953    3.63314108060498
H         0.59565200372629    6.39228120419413    3.47029657259734
H         1.39746653797394    7.78030167097041    2.75645056912745
H        -0.05668862784527    7.99864031901712    3.69950691234694
C         2.13474781844240    9.52428140943293    5.51169445704303
H         1.19423293093431   10.01849725490473    5.73355639722061
H         2.54797571825585    9.99865732214371    4.62763755272140
H         2.81069817411293    9.72249773509785    6.33696200728970
C         0.80951620966007    6.93437077855014    6.65719751430299
H        -0.24260588201028    6.91165992050117    6.39032831845754
H         0.89866610463442    7.51825478659960    7.56700171769025
H         1.11048750412226    5.91756746520116    6.88957871292711
C         6.19991242044858    5.93412205406856    3.76439090077210
H         5.77956971335452    4.95896338016352    3.99131155319350
H         7.05083264056016    6.08404406874317    4.42224046712204
H         6.58891833395558    5.89681699912103    2.75133325256514
C         4.15753600558017    7.72009529795184    2.24271615659900
H         4.95495848838020    7.87521683053763    1.52151597919676
H         3.56932635616557    8.63167793707053    2.27303628363767
H         3.52532880891985    6.92808832428467    1.85778930195178
C         5.76729534328432    8.91524640200410    4.54219640008662
H         6.48158821820480    9.25560896548159    3.79833404241355
H         6.31061803071023    8.77259150632249    5.47055232710657
H         5.05735193569860    9.71982213361232    4.70301113463968

