112
CSD_code = AJUKUM | q = 0 | S = 0 | Stoichiometry = C35H65ClCrO3Si7 | MND = 9
Si        1.68236380147925   19.81921961366318    1.52811954112506
Cl        3.07317046308941   19.72403723424515    3.06798852932658
C         1.75517476601207   21.63771559352968    1.02692980951872
H         2.71426464270577   22.11016429624430    0.84299818804366
C         0.65379749794631   22.23163172825172    0.45076838106451
H         0.77180366416438   23.10854112940770   -0.18273100992654
C        -0.67558495206018   21.72263006206250    0.60629628106029
H        -1.46010288787450   22.15908946061852   -0.00376598489966
C        -1.00914216784627   20.77572633660004    1.54234197019171
H        -2.04777489066233   20.45796295526775    1.59238013854808
C        -0.03677439460537   20.00007845096617    2.36710879093365
H        -0.50354401196978   19.08177419852150    2.72105372689525
H         0.18828141071511   20.59873642692935    3.29889859670893
Cr        0.10393983401948   22.39986374960636    2.58418077759495
C         1.33571222416064   23.01383913948154    3.79205461941387
O         2.07221718595437   23.51198233256541    4.52464373163273
C        -1.21654244592957   22.71356401495844    3.81164210966012
O        -2.03874305384014   23.06265402704157    4.54278838115061
C        -0.11582278897113   24.19252304255599    2.42516461216306
O        -0.28186384428033   25.33657275917887    2.43317537879258
C         1.93477607585341   18.35276551107541    0.35384525866706
C         1.81805897720067   17.03734780566401    0.84793437677979
C         2.11695742632213   15.96129020588877    0.02547314202477
H         2.02244672566947   14.96535261346765    0.42536320826556
C         2.53792146936853   16.13022150706229   -1.28551933171096
C         2.62449969856961   17.42658191518040   -1.76367264242204
H         2.93662497894333   17.59402354649965   -2.78119192382918
C         2.32909646969998   18.53310273626859   -0.98187449624327
C         1.36060987526526   16.74444127447936    2.23710085961604
H         1.25464701445330   17.68895052515327    2.77027275304275
C         2.87740444398564   14.98247341067789   -2.17328337640125
H         3.10332165888407   15.40689150505504   -3.15793105341494
C         2.44114257799644   19.87065338762457   -1.63184287688741
H         2.14941919548067   20.62975709421600   -0.90744015406852
Si       -0.42222650665752   16.01070031502434    2.21381716513604
Si        2.72747597807428   15.84024002031456    3.26144838547421
Si        1.35082874242804   13.85008775010766   -2.47726517008867
Si        4.54014900474481   14.17036956973125   -1.63462256980402
Si        1.11347614866107   20.03611705571256   -3.01626791268239
Si        4.29132515421717   20.27663330471884   -1.97713863520216
C        -1.50150536035383   17.07449900123781    1.03786709937392
H        -2.18499452193444   17.72006255531278    1.58112035637911
H        -2.10833790245678   16.44584248438295    0.39328720941257
H        -0.89135981862713   17.70165070406996    0.39499086991801
C        -1.11125492280985   16.12204508228048    3.99148538491441
H        -2.17935305875714   15.92901733992469    4.00593875415760
H        -0.94986735622600   17.09801761898077    4.43881274123933
H        -0.64166202027484   15.38799136277050    4.63768134118695
C        -0.60140896501662   14.20812869581177    1.62196500314951
H        -1.63636284515159   13.89263717493858    1.72274641610772
H         0.00236748975706   13.51969054480924    2.20108670095553
H        -0.33071623810367   14.09833848730898    0.57775571252416
C         2.59587759555827   16.47770378430755    5.05363124331913
H         2.77163747305625   17.54735260963474    5.10094818326443
H         3.33013696642430   15.99847015626227    5.69330382875851
H         1.61698687836413   16.28553174500768    5.48027033704223
C         2.54977854448169   13.93925514332549    3.31843579780325
H         3.42787865944634   13.49805709226813    3.78034045319539
H         2.44287845085963   13.49190430862744    2.33690401618968
H         1.69132539285256   13.64623849464898    3.91423477171630
C         4.43240770392355   16.31629230312469    2.55105569357365
H         5.23001245145935   15.72856128137922    2.99519890104473
H         4.64516367049401   17.36132765781520    2.75084672396091
H         4.47554404801050   16.17783255021693    1.47535804459190
C         1.23620730496600   12.35655351162467   -1.29570960829342
H         2.01219472365636   11.62979048073579   -1.51413870027447
H         0.28037764637130   11.85347006075783   -1.40831693968261
H         1.33305557332197   12.63984159598418   -0.25373716934168
C        -0.22150062669549   14.92658835312147   -2.34337051793803
H        -1.12469159423737   14.32815070647065   -2.41575502734276
H        -0.25344198379755   15.66303217554928   -3.14111630215162
H        -0.25433821041584   15.46786761196473   -1.40326561123300
C         1.46108671250233   13.17366164636813   -4.25919706949084
H         1.46239712104350   13.97532598931292   -4.99111977754012
H         0.61654247548537   12.52996910303336   -4.48403236766464
H         2.36375601475094   12.59178767660379   -4.41031077577235
C         4.51764638480974   13.25754888318105    0.03711963115249
H         4.31120920078840   13.93037386496565    0.86132020404773
H         5.48749285779331   12.80489762010119    0.22329831091381
H         3.78161849582800   12.46194489046603    0.05958572762179
C         5.06427871320088   12.92950739821373   -2.98670575017351
H         6.08303769556382   12.59199675404416   -2.82532942946743
H         5.02005179304211   13.36945233813646   -3.97766228215238
H         4.42757359423847   12.05103521291125   -2.98737063541911
C         5.83058956174363   15.57549511049915   -1.53328136923843
H         6.08521639552600   15.95361729226608   -2.51884047694748
H         6.75166462788961   15.23907799403316   -1.06765683463602
H         5.45392693178002   16.41100842279516   -0.95055911601485
C         0.83732074460863   21.88402724041213   -3.40000103784844
H         0.03125341162384   22.01118090785009   -4.11572737579773
H         1.72356385764548   22.34297064720990   -3.82343826372782
H         0.57218812420370   22.44429225453719   -2.51021324396714
C        -0.49666125094709   19.29975565796087   -2.29724537553042
H        -0.38165557645123   18.23908930806170   -2.09598324993082
H        -1.33367415890046   19.41643455189206   -2.97888656818320
H        -0.76610513452770   19.78287395225605   -1.36221541880807
C         1.48763271347015   19.15826213308324   -4.66875053828599
H         0.68891699839691   19.35123808302135   -5.37895099709626
H         1.56497943320051   18.08244455435585   -4.55469287321736
H         2.40905751327093   19.51602911596948   -5.11601426844148
C         4.43512432115069   22.12762680319998   -2.41777220676437
H         4.14619669030104   22.31599358376996   -3.44645717260133
H         5.45797082040678   22.47135448108859   -2.30180881945605
H         3.80967559653370   22.74600605586228   -1.78259051631268
C         5.11140552295205   19.26330668409409   -3.36974206971791
H         6.09934856263108   19.65977793881194   -3.58497631190104
H         4.54208073872161   19.29458922853047   -4.29242198813010
H         5.23325781420513   18.22339920768604   -3.08723916489430
C         5.22638735831796   19.91923196473330   -0.35167445875031
H         6.29676592075989   20.06131469388617   -0.46468115973743
H         5.06296335410521   18.89552595412702   -0.02781711689010
H         4.89479773841442   20.56572452005237    0.45484492735291

