41
CSD_code = AJUMUP | q = 0 | S = 0 | Stoichiometry = C16H14Cl2CoN5O3 | MND = 6
Co        0.54190133893566    7.89486735603620    0.05685053054444
Cl       -6.39376798808434    9.69491774293218   -0.18309284576771
Cl        6.76368586338452    5.30404322739015    2.59593653089191
N        -0.16337136983983    9.08982635073517   -1.17107634812081
N         2.21458770773194    8.54593324505207   -0.40666678869795
N         0.42733937240626    9.13135876517961    1.40904613525392
N         0.00909614053953    8.90522384058917    2.48422194243577
N        -0.35749053075992    8.88047238526249    3.55383167569692
O        -1.16198179105636    7.20684686746134    0.46254052064412
O         1.25242832263375    6.57919076092806    1.18806446653568
O         0.59916579675538    6.28160883100543   -1.49177662376010
C        -2.47663743128117    8.93461604475262   -0.54371940921138
C        -2.28823381038710    7.80759032673037    0.31449461452897
C        -3.43031863793924    7.30984324379361    0.99242942521836
H        -3.28772707332207    6.46371579992100    1.64602375807443
C        -4.66299552871803    7.88357989354811    0.84384397957674
H        -5.51601708416360    7.49491625190706    1.37827788125000
C        -4.82428267311707    8.98650191177117   -0.00261122639371
C        -3.75483020573033    9.50269593671067   -0.68578519347873
H        -3.88451573983120   10.35488145771814   -1.33595746467350
C        -1.38875209499566    9.46962437210435   -1.28555011069635
H        -1.63224639665128   10.24384048204943   -2.01556629128559
C         0.84904985676984    9.64532717359712   -2.04002680127935
H         0.55327398024137   10.62358096609073   -2.43484645701208
H         0.99815564595949    8.95395459503391   -2.87836992351562
C         2.13663538590675    9.73671882592838   -1.22511171360088
H         3.01551703192936    9.84197812190015   -1.87042517811088
H         2.07702679064970   10.60280782489909   -0.55578734224026
C         3.36650266291967    8.14244745205171    0.00873281377046
H         4.25936189803386    8.66189320590484   -0.34397852940932
C         3.58145729543885    7.07025158488649    0.91501191312617
C         2.48102090700074    6.35699339961290    1.48367490009750
C         2.78654861346023    5.32340322055284    2.40828961618163
H         1.95570502332951    4.79393818423552    2.84766693251905
C         4.07504554553583    5.01140339902000    2.74204903464352
H         4.28241964344586    4.22452164183731    3.45063138611048
C         5.13771141904357    5.71827072499925    2.16625407894445
C         4.89843857479830    6.72979227028458    1.27477574246528
H         5.72131740068585    7.27795496186117    0.84101563356754
H        -0.30648178679291    5.95966604517294   -1.40277281356448
H         1.15165792513571    5.61040130855198   -1.07464245125962

