73
CSD_code = AJUSOP | q = 0 | S = 0 | Stoichiometry = C31H37ClN2RuS | MND = 9
Ru        2.81606001908876   12.05641724693809    4.12794547361812
S         2.70397013406587    9.72076629385299    3.47810956018879
Cl        0.73292735582647   12.21482923321900    3.02986726166980
N         3.32930918156749   13.83799427428579    1.72582075022338
N         4.62887532123607   12.13321764168398    1.64064161749491
C         2.64539334260644   11.16180155032829    6.10261428573064
C         4.04971898102701   11.36091376170598    5.87404535277549
C         4.50620338734653   12.64214371980368    5.53801034572914
H         5.56900839821551   12.81214450393963    5.39173186255431
C         3.62512793678861   13.76978511668193    5.54781160229533
C         2.27994383445874   13.56373740868510    5.85287639440292
H         1.60498957357691   14.41136789053532    5.92113409079151
C         1.76246920935198   12.25632283132476    6.10634428618425
C         5.00009870623786   10.20822134381185    6.02207248729176
H         4.86929361506394    9.74189070863677    6.99906430462087
H         6.03167986575226   10.54077065411196    5.92067789415741
H         4.80357459451446    9.44426930755805    5.26707302580501
C         4.18587466649746   15.14848376337212    5.34169045349592
H         4.73209281408155   15.45887187422557    6.23455518172262
H         3.39301158387771   15.87028383028973    5.15782635014899
H         4.88007762332625   15.16438659762118    4.50237455345485
C         0.29579188017785   12.10272976675417    6.38075387107465
H        -0.04817113171668   12.88324744492440    7.05906276284700
H         0.07245207903260   11.12771560097387    6.80748916340551
H        -0.25783809689206   12.19831441590329    5.44221886383087
C         2.09262683435281    9.05378650776694    4.97871539015548
C         2.14561318792337    9.77089088476016    6.18125164046276
C         1.71621550668831    9.18778074813785    7.36351981110204
H         1.77300604725122    9.75300951421891    8.28465159594957
C         1.22479068642171    7.89469332492739    7.36096190138829
H         0.89090780546576    7.44135853145983    8.28257191140822
C         1.14894463920636    7.19170529584473    6.16910157836946
H         0.73871555949793    6.19156449459210    6.15620376510932
C         1.57541145160132    7.75318549832764    4.97628917414842
C         1.45582980540321    7.00339057547977    3.70620623263166
C         0.40348281862484    7.29164178453282    2.83434670747747
C         0.28781934604649    6.56260859276642    1.66189251736340
H        -0.52577453491737    6.78010766783371    0.98351615301270
C         1.19269683955544    5.56169318509173    1.33643227158191
C         2.23816127778318    5.30157935155063    2.20816972703496
H         2.95773699763660    4.53159465655450    1.96349646339654
C         2.38276024948729    6.01229221361296    3.39027493038887
C        -0.57215221411430    8.38081422674015    3.15612424149849
H        -0.90712699287075    8.31240889436437    4.19044394541405
H        -1.43654409279464    8.33502759802090    2.49826531915745
H        -0.09850421828940    9.35477012935750    3.02489665733111
C         1.03334705708822    4.78838274054618    0.06062186674835
H         1.80297033752495    4.02573134362041   -0.03228438693043
H         1.10058784168270    5.45613025121798   -0.79779822344883
H         0.05795119256348    4.30383158528145    0.02891201641035
C         3.53268358719938    5.73525300497540    4.31405958391198
H         4.09008835066963    6.65222190787217    4.50280689707393
H         4.20603464391755    4.99844230225983    3.88211097442147
H         3.17704010110697    5.36165943888517    5.27390282014805
C         3.64392011247053   12.69461551095220    2.37491239265481
C         4.08803443686586   13.97937514268950    0.58344070779164
C         4.91076411988878   12.89831361768794    0.52856853262803
C         2.34989021942166   14.80762094694081    2.13354933109278
H         1.90698117232437   14.48537673712334    3.07641133400748
H         1.55359991458591   14.87436117090265    1.39153599475719
H         2.81709427542575   15.78729065719838    2.25308866930341
C         3.93815821226662   15.14141169971070   -0.32941285097787
H         4.61027752758888   15.04003662018273   -1.17610912104064
H         4.16921524847331   16.07376264281034    0.18604147940783
H         2.91647458435181   15.20537723349692   -0.70163389935252
C         5.94146177604954   12.50510694716628   -0.46634194559790
H         5.93933366478134   13.20108870237449   -1.29977185713681
H         5.74088677177678   11.50468369127066   -0.84677837049514
H         6.93625756488463   12.50538808512563   -0.01978004228675
C         5.32277869923647   10.91389128398370    1.94908569242182
H         5.06007119080131   10.61210187096545    2.96245729345422
H         6.39985884674441   11.06778916290838    1.87458811222020
H         5.02058667522996   10.11752524477105    1.26737326891725

