42
CSD_code = AJUWEJ | q = 0 | S = 0 | Stoichiometry = C17H19NO3PtS | MND = 4
Pt        3.35888323968193    4.57872881709745    8.93152928186600
S         4.75284549136281    6.88335639090115   10.87278697060370
O         5.33411411537850    3.93055790863885    9.33624461251430
O         3.08523117180161    2.85256328719094    7.87984746540697
O        -1.57323395250661    4.77526154116880    6.85424765498175
N         2.39763788909858    7.06303524625729    9.99042770103776
C         3.47167284607869    6.24403000549124    9.93438084128065
C         2.55302257376893    8.18747517111277   10.77866560420821
C         1.48695576568025    9.20200298678403   11.01907462443915
C         3.78716745919181    8.25748163379503   11.33850643781933
C         4.34170799654149    9.30564626533522   12.24018728812329
C         1.29757708859427    6.59675310307384    9.21932161893220
C         1.54742142478060    5.34158676642421    8.61290913820060
C         0.55157925229325    4.78500890250955    7.83520447936446
C        -0.67317208778042    5.43102230976904    7.63922353007421
C        -2.82038126377903    5.37682052086217    6.61199006264500
C        -0.88896144286778    6.66719001100387    8.23156356875644
C         0.09614592563567    7.24975155220802    9.01777503841374
C         7.30099004288223    2.61585864543170    9.32852847069153
C         5.85735381535111    2.86074498709978    8.93510889859908
C         5.23746668894878    1.87289341837984    8.16316918796607
C         3.92314191041116    1.92465197950642    7.69948135959384
C         3.44000623636846    0.74156504380979    6.88290038590622
H         1.24324762264952    9.73720858524516   10.10262371118275
H         1.84028684109956    9.92316701221045   11.75031177133301
H         0.58807672089403    8.72849616234253   11.40929035938638
H         4.30872780384022   10.28538340586090   11.76482584355135
H         5.37538634730242    9.07180748381068   12.47727734949767
H         3.77800133186796    9.35582314758359   13.17160473130641
H         0.70342415455980    3.82989776198956    7.35690464597881
H        -2.71175388450255    6.33741008585570    6.09736766763202
H        -3.38397348127075    5.52402717408139    7.53943732586754
H        -3.36273842523081    4.68525417902927    5.96888931592220
H        -1.81577341309673    7.20128315460148    8.09382904037191
H        -0.11877654870043    8.21419818879130    9.44057355550453
H         7.66462506211168    3.45029482335343    9.92282155335459
H         7.91668237302579    2.51111174441442    8.43757745282701
H         7.37927969599347    1.69812261769522    9.90761169393276
H         5.82187948050832    1.00237425799067    7.90587399093340
H         4.03601793883489    0.64641288311600    5.97726399081316
H         2.39690786854241    0.88564668184708    6.61280158768795
H         3.54190032465630   -0.17710584367001    7.45694019149229

