69
CSD_code = AJUXIO | q = 0 | S = 0 | Stoichiometry = C28H32Cl2O6Os | MND = 9
Os        2.60649211700083    4.31841153707607   21.78659487613480
Cl       -1.26498993083255    1.93909864261294   24.57042842390121
Cl        0.46520269808990    2.03998146007761   27.14657986120440
O         1.26833611989168    2.84552395637454   22.30937103874317
O         2.03012394194301    2.65294170767208   20.27626534209811
O        -0.04933791057673    0.59530726506097   22.34060864787287
O         3.50888764223201    1.71747466816030   27.49440255972015
O         4.02105271540927    3.06899333151121   22.57902077792013
O         2.36361790171168    5.36133111107393   23.52323417858107
C         1.34425730335145    2.21889909767962   21.22160057808284
C         0.56358540400106    0.90835335195208   21.10905199272549
H        -0.25136709107094    1.02681610385363   20.39059725709196
H         1.23172797508771    0.11657057735551   20.74881666104443
C         0.76002096943086    0.59385616610862   23.43514568608936
C         0.27733902222205    1.20073487048997   24.60207014956271
C         1.05902832058815    1.24134590614551   25.74876564455348
C         2.30243269684432    0.61119059227772   25.77843039535203
C         2.75409953307815   -0.02716442026683   24.62909060074719
H         3.71383874319288   -0.52000725527620   24.64573864262246
C         2.01135325504110   -0.01453118728516   23.46666082531952
H         2.40253859759989   -0.48495139447654   22.57871339787487
C         3.18001430753148    0.66815526301936   26.98593419004191
C         3.63613676852512   -0.64575676357120   27.51195099136179
C         2.93648699651604   -1.75447511696218   27.28561926540674
H         2.03767226360035   -1.75661810538577   26.69280840432524
H         3.23453823630352   -2.69877263956085   27.71113929571646
C         4.88171317284404   -0.61759955596229   28.35007162762312
H         4.89796850207632   -1.47624119276202   29.02237090879796
H         4.87876459877220    0.29845093317508   28.94356115296621
C         6.12903698353601   -0.63592174197075   27.46480847364130
H         6.13948326524294   -1.52683541489356   26.83996251343061
H         7.02531829513039   -0.63325858470382   28.07982140562388
H         6.15279930434889    0.24001037444754   26.82072217943897
C         4.26993329943822    3.06705417695234   23.82392809052677
C         5.35397389598197    2.10265939921742   24.25975074949398
H         5.41933886605073    1.27710886285930   23.55630248349561
H         5.15724012792990    1.73431814804938   25.26041505559614
H         6.30789622766205    2.62896177201334   24.26466169895378
C         3.69270853440837    3.85739121753363   24.81115607487976
H         3.96348863020929    3.63824279211293   25.83190245026401
C         2.76503743590576    4.89240186846614   24.62410072014456
C         2.23085462743301    5.54827226363546   25.87615975898192
H         1.51188136499785    6.31808377891075   25.61163959752336
H         3.04542573883846    5.98981052328095   26.44469263684875
H         1.75063094013489    4.79912348792431   26.49999329382007
C         2.55027262160449    6.06143057067808   19.54309811530254
C         1.18035126695286    6.68268844537941   19.39609405214504
H         1.18535816597950    7.64530627383122   19.92206343423570
C         0.75548370364189    6.92775116802056   17.95059279746964
H         0.60141634171402    5.98891173426715   17.42495974005883
H         1.50977306779616    7.50655082898101   17.42278047636036
H        -0.18044047325202    7.48174855976781   17.92988121978601
C         0.17953920203176    5.75383638371290   20.09953842912889
H         0.13744564089264    4.79665381674851   19.58007092837230
H        -0.81820056975775    6.18931098066493   20.10596735797456
H         0.48250952071114    5.57769850307401   21.14143206670192
C         3.20042675019096    6.21737744484125   20.79698699714274
H         2.89292565337404    7.03648854036635   21.44946450728000
C         4.43053146010601    5.56176635190104   21.04021607416399
H         5.02867955536321    5.84245618711305   21.90427021745193
C         5.03954441978817    4.79904367200087   20.01696072689877
C         6.36897993488640    4.15973536376732   20.27220960311097
H         6.25040356662623    3.38435455103615   21.02728745473043
H         7.08227757128207    4.89105402523852   20.64924841042437
H         6.76765670038132    3.70937108173664   19.36743248446355
C         4.38691769218271    4.66831367559906   18.81105145863296
H         4.83566637846517    4.08688800747835   18.01946411757051
C         3.14821048514890    5.27588615654819   18.58158327672838
H         2.67278893616484    5.12763584332007   17.62508549765853

