53
CSD_code = AJUZOU | q = 1 | S = 0 | Stoichiometry = C21H23FN4O3Re(1+) | MND = 6
Re        0.65960303598055    5.73954824566064   11.16937269417568
F         3.29597152415149   10.27393188875146    7.16200716161271
N        -0.69715814701477    7.33465254395306   11.66907752043551
N        -1.31198062210764    4.94104812070875   10.48080106209290
N         0.53482969557744    6.62070804305381    8.97432783136620
O         3.26955653193390    7.24744770097557   11.86607396567335
O         2.26983267204675    3.26577909022264   10.24066737071501
O         0.42845817199876    4.59205036817507   14.03096699612827
C         2.31517126074059    6.67197594947906   11.62455279643230
C         1.70295814942947    4.19312309727554   10.58417841063500
C         0.54518782004601    5.00765411632068   12.97726873625748
C        -2.38585256822302    5.65965156151032   11.18769215177985
H        -3.32418537330245    5.64068499196076   10.61853068540696
H        -2.56834370849174    5.15231687521113   12.14376256975387
C        -2.00204589441942    7.08067497154233   11.51466353205792
C        -2.97409565796423    8.05301816790048   11.70863644270780
H        -4.01455514431596    7.80646058006962   11.56681850082189
C        -2.59016953210667    9.32595767590890   12.09429420035254
H        -3.32723617570615   10.09655188325792   12.25378423304481
C        -1.23866965587995    9.58021875454456   12.27720982957037
H        -0.88945903780268   10.55019439564479   12.58958255875477
C        -0.33230931514985    8.56132233911657   12.05141547565722
H         0.72769974861557    8.72786618655083   12.18669448032104
C        -1.39968214241445    5.06477937189668    9.01531719894682
H        -2.43593924866412    4.95137617788997    8.67105191078407
H        -0.81012155580413    4.25698697000935    8.57257176038532
C        -0.86218869501776    6.41506477992053    8.54139318174179
H        -1.47902146504308    7.21751533055601    8.96053388084139
H        -0.96434412735377    6.46126251862272    7.45320544759708
C         0.88652441781021    8.05657491873104    8.93562740905805
H         0.16864390744615    8.63079204853510    9.52653198560243
H         1.87850281179877    8.16826569611823    9.38154993769531
C         0.94515190027235    8.63298347041674    7.52107818602673
H         1.21724618299577    9.68397017013184    7.59261455627987
H        -0.04490486309612    8.57746696353771    7.03405317026075
N         1.93970924079081    7.90623380168648    6.76607594811191
C         1.58858416192020    6.51269892765522    6.66296472892684
H         2.38561791855326    5.97881689728546    6.14344891867607
H         0.65170678260084    6.35679093237598    6.09946002999048
C         1.48829471821481    5.92485781624164    8.07685053398319
H         1.22173411823747    4.86878628817008    8.00576365241034
H         2.47625773113617    6.00056701450216    8.53865677239369
C         2.58542231316711    8.54092910862972    5.69831323347755
C         3.28381285809312    9.73238488222538    5.91562335182673
C         3.97200541484766   10.38383670052451    4.91556080948373
H         4.49011074626601   11.30033787746448    5.14816436551499
C         3.99907465717094    9.83672797861833    3.64373350124265
H         4.53975326473185   10.33372932524746    2.85497970231307
C         3.33341136583513    8.64942860297051    3.40022024051614
H         3.34889646698637    8.21376857143870    2.41336715854778
C         2.63324317331508    8.01215411033606    4.40965981610544
H         2.11109234651093    7.09514362336582    4.18580257654945
H        -1.42380217934036    3.94883157709855   10.69694682895210

