33
CSD_code = AKABAQ | q = 0 | S = 0 | Stoichiometry = C14H8I2N2O6Os | MND = 6
Os        4.26675011994456    3.11904436996465   12.82457502834384
I         2.93563209610488    3.27256501669573   15.19672082089333
I         5.58682691914741    3.22493448617940   10.44475412340112
O         2.51678934073040    0.82527005429700   11.87907992914147
O         6.17354242452251    1.01993396037702   13.90861295642100
O         6.79866982618967    9.53259671774339   14.23919125837524
O         8.40266008724250    8.29344479653194   15.18230291351341
H         8.79100369810068    9.15339737769995   15.40927821511860
O         1.24370783765136    9.23770037275971   11.10267935616352
O        -0.28724122073751    7.83309285892813   10.27767350158358
H        -0.74678548884654    8.64855819894496   10.02139167400364
N         5.35090769058260    4.80261880567439   13.41518062609952
N         3.06399736745340    4.68142071042512   12.13849215368102
C         3.17739041155671    1.68710175788188   12.23490225095991
C         5.45496294107654    1.80885703354034   13.50007907958744
C         6.51505658924463    4.78568545308879   14.06550643113998
H         6.93157696381450    3.81159963491557   14.29225576327673
C         7.18644980882589    5.92913175343616   14.44900703440480
H         8.12439896506847    5.86531916109091   14.97445709760603
C         6.62068457119993    7.16408917469576   14.14059882120536
C         5.41139241381945    7.19265774649467   13.46004184899705
H         4.97616522346563    8.14907797181242   13.22095755524867
C         4.79652105053333    5.99612619061182   13.10870059204985
C         3.51883101453351    5.92831925290323   12.39184949357284
C         2.80826306523836    7.05440637675488   11.99168118228403
H         3.16350053704839    8.05258486466640   12.18857023881160
C         1.60470703523440    6.89800724255714   11.31834539393186
C         1.14419378146113    5.60884171735987   11.06079288780996
H         0.21531933352379    5.44616532705140   10.54054611188265
C         1.90766605671756    4.54157840186606   11.48902946161934
H         1.57433814067750    3.52787242319820   11.30178349388018
C         7.26193728506631    8.45766438339976   14.51262458372628
C         0.85678411380859    8.11783640645193   10.89963812126677

