101
CSD_code = AKAFOJ | q = 0 | S = 0 | Stoichiometry = C33H58Cl2N4Si3Zn | MND = 3
Zn       12.82151183458214    0.37217096673536   13.93771322622259
Cl       13.47911527923003    0.94062901398396   16.01484094542829
Cl       12.14693672368504   -1.74604728738737   13.55141545171223
Si       12.99127718451647    2.06712947980904   12.27012522330584
Si       13.13907700876922    4.63424945803176   13.91240966633414
Si       10.48636539446998    3.32940711566056   13.26639412977503
N        14.53251181062214    2.36030526447666   11.25208843519022
N        12.62676646611668    1.84963358643133   10.48048070587028
N        14.44491687513023    1.73515052865146    8.92641760564190
N        12.22004381794524    3.49020048074488   12.88287818000560
C        13.90934106977398    1.97892109634318   10.12789175266700
C        15.92529826359855    2.26783524664146   11.49730663506718
C        16.52301548921553    1.01902766194667   11.71806888897230
C        17.89351706944772    0.97231304871854   11.94502884559487
H        18.36777704696645    0.02092488330543   12.12756067345433
C        18.65918833361411    2.11920766857384   11.93705553552719
H        19.72389551954919    2.06127398868227   12.10518697451322
C        18.06027849937501    3.34597004116380   11.71881193228649
H        18.67094051204506    4.23361826913071   11.71420458814331
C        16.69260124271819    3.44762757096984   11.51072051141008
C        15.74141035243839   -0.27354526136154   11.72415513804527
H        14.69200519655297   -0.06559456093789   11.49465822529898
C        16.25465338845288   -1.25536827358134   10.66712567849138
H        15.64506332265509   -2.15548498546341   10.68496242892750
H        17.28646967688932   -1.53777754476056   10.85911234483402
H        16.19978610096681   -0.82261312513495    9.67030912367266
C        15.80075658752394   -0.92160510833283   13.10978712351936
H        15.14678842843145   -1.79062640267328   13.13981268503536
H        15.48455236685580   -0.21694012694116   13.88237064992805
H        16.81180229811949   -1.24512011522444   13.34606918081882
C        16.04253693756105    4.79486564144803   11.28165258907971
H        15.01491206066702    4.72442601052666   11.64572534158467
C        15.99298144868617    5.15656565901323    9.79217444950073
H        15.66322601376783    6.18722828271646    9.68074001161565
H        15.29407937154690    4.52090031360332    9.25679498540620
H        16.97770489806811    5.06223807936663    9.33747069812215
C        16.74923539214929    5.91442013885004   12.04637389655963
H        16.13939958483612    6.81381530461324   12.02239564017096
H        17.70843192387954    6.15606718605854   11.59436667389062
H        16.90833569897891    5.63300401526575   13.08333812674979
C        15.82852550338927    1.96436701690990    8.56531879954693
H        15.86163239417516    2.60083975237937    7.67690190113177
H        16.31025910939511    1.01414487852908    8.31909724534992
H        16.38388269031927    2.43755728653147    9.36338617044315
C        13.73074406110568    1.12254666753384    7.82448475382231
H        14.22832914195813    0.18828963918291    7.55031886434458
H        13.75397957933555    1.78730241865262    6.95699015562955
H        12.69935714094151    0.91322349497852    8.07613056411947
C        11.50520644828299    1.81644554281973    9.62993566713136
C        11.15831451143234    2.97220791142747    8.91686098266983
C        10.06703359973144    2.91489453509874    8.05955904453625
H         9.78094515809421    3.79247783782172    7.50022217786558
C         9.33938510706930    1.75053564254622    7.91244299171572
H         8.50234664915902    1.71979572888193    7.23115535505018
C         9.67023218426462    0.62832489522853    8.64979618751027
H         9.08314850651924   -0.26845554234026    8.53874777081605
C        10.74197749869426    0.64076039275235    9.53097108976441
C        12.46992827633479    4.77410922532316    7.74690954521483
H        13.06497238577851    5.67095979883887    7.90574310698956
H        11.66409837068334    5.01970318745937    7.06011137629612
H        13.10023199877733    4.02326796529066    7.27558674658714
C        11.91859479435308    4.26840783741637    9.08267212876844
H        12.76052983413624    4.10199504391807    9.76005588915748
C        11.01901758009780    5.32644493324182    9.72590165619744
H        11.55326658712916    6.27075510418939    9.80570343305047
H        10.72743191397877    5.00752104079705   10.72264910238309
H        10.12338285568812    5.49015609970694    9.13145416721255
C        11.08602075886994   -0.57515623624603   10.35845958485616
H        11.50814032914183   -0.22886748727769   11.30525829578498
C        12.15434978992686   -1.44003763255318    9.68256847028703
H        12.32850690695502   -2.31904840399353   10.29704115272069
H        13.09384923395376   -0.90174157215182    9.58982016847119
H        11.82795351980980   -1.75764917060681    8.69347235747295
C         9.87164367307704   -1.43868924084376   10.69750922263425
H        10.14302848347499   -2.10373172371916   11.51341294053337
H         9.56296512202216   -2.04485178308291    9.84871657313368
H         9.03198107357819   -0.82603167143570   11.01827852486957
C        14.80045675404746    3.87228067492432   14.41888970578920
H        15.41967204681960    4.61099254741921   14.91814896653862
H        15.37480383451161    3.45356079509558   13.60360845372037
H        14.62028535056058    3.07106127014873   15.13092256381494
C        13.23227569432668    6.26331646441014   12.90734641428959
H        14.13330585090154    6.81239161675468   13.15770968541449
H        12.39489019465187    6.91190069734951   13.14599561949891
H        13.22020027746826    6.10027905243696   11.83532574644889
C        12.32919541379528    5.05021699961120   15.58463208623797
H        12.82042702849663    5.91950333710290   16.01226858803471
H        12.46399586556508    4.23364089430109   16.28613148581470
H        11.27126447437805    5.26956217518448   15.52396975666712
C        10.27922007437924    2.33123946553760   14.87314681227361
H        10.38816711539339    1.26121351775373   14.67970504673133
H         9.28876936951161    2.46980357168629   15.29676604237505
H        11.00211947394152    2.59659676773585   15.63610190877655
C         9.69725165442522    5.06731088367461   13.36346509622733
H         8.92320873600555    5.17307102689486   12.60965032018047
H        10.41193434691300    5.86695283179612   13.21819036256216
H         9.22060877931983    5.21976769506547   14.32590332040064
C         9.46025765818081    2.38068757499293   11.97795806051897
H         8.42741804959820    2.36003628041707   12.31393808768245
H         9.78697418187466    1.35261362783121   11.88376609449712
H         9.46869851292417    2.82742360902854   10.99122071309212

