53
CSD_code = AKAGID | q = 0 | S = 0 | Stoichiometry = C16H31Cl2N3Ti | MND = 5
C         1.77647358888508    3.08518089993554    5.44650891759408
C         2.93035019352506    3.87732941677813    5.18775410265860
C         3.88094345391630    4.03503414639616    6.17515552466830
H         4.76790081816657    4.61898965203629    5.98121715880662
C         3.72135702973234    3.45444996692336    7.42436433506675
H         4.47998716638560    3.58509392499903    8.18188891651921
C         2.58230625049254    2.71760560697953    7.70012291191407
H         2.46004734338302    2.28189000378069    8.68165971480792
C         1.60330412165028    2.53011275930799    6.74399737345332
C         0.34867332943827    1.74095629445298    7.03899902886892
H        -0.30743312393480    1.83772602121098    6.15618393300335
C        -0.40059279333666    2.30789263217960    8.24619625341829
H         0.18260679867733    2.19578071753024    9.15726136177414
H        -1.34669439932208    1.78667324184233    8.37725697756210
H        -0.60682518332567    3.36506956467211    8.09589420021305
C         0.67148771206062    0.25920605999689    7.25711145146164
H         1.25164740379063   -0.13423604524075    6.42326876042671
H        -0.24544087307636   -0.31985481837624    7.35743224748231
H         1.25781398833673    0.12922758635898    8.16440709249862
C         3.06165849684953    4.48861150606484    3.81094843535749
H         2.04272508810476    4.75077344573065    3.47847293813980
C         3.92581006963480    5.74687948421616    3.77621841981711
H         3.61206813385711    6.45297604504755    4.54210174271362
H         3.83871466041698    6.22852220906261    2.80405610802379
H         4.97340150499211    5.50230142568710    3.93400784833492
C         3.59889885134503    3.43799050956174    2.83226064354516
H         4.55617673771228    3.05270473427199    3.17776680876627
H         3.73125701524768    3.87212201145621    1.84320205289895
H         2.88547802199969    2.61593072507145    2.75853069059975
C         1.47705064331837   -0.07511665814865    3.36407569456704
H         1.61459626975034   -1.15561464611230    3.51450753978371
H         2.07561601430901    0.47466654301180    4.09474344359191
H         1.82152699624794    0.18521649210012    2.35943211129180
C        -0.76928349908642   -0.43539545645958    2.56145748088265
H        -0.49799837243556   -0.15958499944313    1.53826460762110
H        -1.82034713858662   -0.18800381249647    2.73235971677798
H        -0.63795753985127   -1.52058317997934    2.67861823502692
C        -1.23771831666519    5.18600331007830    4.17833177841365
H        -1.51592237988062    6.22119053315910    3.93419148990219
H        -0.35499493495327    5.18598185318634    4.82344617253934
H        -2.06348103410052    4.71527276375885    4.71908797423072
C        -2.09016983402825    4.42867523968776    2.04767605542732
H        -2.94715541668669    3.93924255517822    2.51836793539516
H        -1.82834208002935    3.89009385819646    1.13285691703480
H        -2.37583330144555    5.45696079618032    1.78383428123879
N         0.87659002753804    2.87098840080659    4.48894862368837
N         0.07195847205058    0.30818074935021    3.49994277951717
H        -0.23169364609362    0.07318706627467    4.45251389294477
N        -0.95628927072138    4.40874353710773    2.97110254992389
H        -0.15258780067928    4.83315498719746    2.49243581829864
Cl        0.40612191041253    2.36242069307295    1.22455401458653
Cl       -2.34174259656420    1.96047805806027    4.22406518287247
Ti       -0.29644457743173    2.41120158829377    3.37123975404262

