39
CSD_code = AKAGUP | q = 0 | S = 0 | Stoichiometry = C15H19MoNO3 | MND = 9
C        -1.52682900341714   13.65178533635911   10.76001663528329
C        -0.89850522590720   11.48271354691327   12.03517963954258
C         0.50552822122704   12.22112848727022    9.99309472090831
C         0.06542517180346   14.31888695660649   13.67607902006396
C         0.85631299037594   13.16187553197143   13.93438860619979
C         1.94820765627865   12.83656717216887   13.07000505232474
C         2.28702130095780   13.73276393348930   12.04352876384701
H         3.17408549482362   13.54874720420219   11.44767674300449
C         1.57064495569760   14.92275705438324   11.83568753533942
H         1.91050129853144   15.64929429901430   11.10470482509499
C         0.44822903837995   15.18149441530396   12.62954334476383
H        -0.08713620312026   16.11387626000696   12.48926450892306
C        -1.05225468636528   14.71796163656277   14.61981567599594
H        -1.53509794960369   13.81013574092651   15.00441150477256
C        -0.45361690474439   15.49120662415028   15.80166047531446
H         0.01026364586773   16.41129327166865   15.45033585313599
H         0.30402554039043   14.89653305628187   16.30836490656158
H        -1.23063384191650   15.74927456901046   16.51733398219503
C        -2.15560558273920   15.53367799884281   13.94491283404620
H        -1.82646945212091   16.54454223931675   13.71571008665770
H        -3.00944132338745   15.60984641760183   14.61441025011582
H        -2.48335430070690   15.04855878609728   13.02665304492647
C         2.83337231762043   11.64024857227199   13.35817958686206
H         2.22129725555647   10.83978854551085   13.79365488428186
C         3.90452780098512   12.04599022122035   14.37812377615376
H         4.54201331850408   12.82421333380633   13.96202336897197
H         4.52677341999055   11.19154810578569   14.63350103176116
H         3.44580880280194   12.42805155557879   15.28810773251233
C         3.47606022664372   11.04826871028536   12.10311644133700
H         2.72699830499374   10.89440029863750   11.32722704150523
H         3.92149696995814   10.08581871691552   12.34447829625036
H         4.26505181977495   11.68763432050988   11.71422487320860
Mo        0.08195337087071   13.09137972328465   11.65717097846476
O        -2.48129566291339   14.03129077463783   10.25421966837174
O        -1.44316974177122   10.52266051283181   12.34978009185340
O         0.81319374925538   11.71063692525878    9.01572567889611
N         0.64509158899719   12.42457212257966   15.07913287303778
H        -0.28073002081493   12.48255288150114   15.47722430151747
H         0.99425563924183   11.47752414123589   15.06613136599851

