53
CSD_code = AKAJUT | q = 0 | S = 0 | Stoichiometry = C20H20ClN6OReS4 | MND = 6
Re        2.19271755092132    9.14227841834409    2.80377637925702
Cl        1.03382152292141    8.85504842303509    4.68924949548227
S         4.39268556457565    5.05338413053094    2.18668891004067
S         0.42943468271664    7.79419390039378    1.66373227788162
S         5.64103904336673    8.20915801540491   -0.24090864330420
S         4.14592274862959   10.04242565290733    4.09372130990203
O         1.72656973739235   10.60762553303909    2.18887480781189
N         3.05012049411309    7.10466215925557    3.07171259803811
N         2.55420610312978    6.30222298121098    0.85756846910282
N         0.91112471508245    6.62481516960175   -0.65824047459858
N         3.60328960231692    9.04434686800878    1.12346411515574
N         5.61757553987613    8.53822587459322    2.33483627115104
N         6.46272609493446    8.83083565360408    4.40128247125379
C         4.64878189503936    5.56692309544770    3.83049111690428
C         3.81286923501485    6.65513502325369    4.13411838516896
C         3.79579568265809    7.14580670501749    5.43773031693599
H         3.11144026591578    7.93514560390282    5.70840974466906
C         4.63726358741252    6.58519291578419    6.37700512079223
H         4.61743372270402    6.96099574384381    7.38860086374750
C         5.49840019964935    5.54446950153279    6.04736147098069
H         6.15262369997375    5.12826698711257    6.79849309187782
C         5.50262716152121    5.01786123219802    4.76972584198903
H         6.13921754775383    4.18964436680470    4.50216377167510
C         3.17689192908543    6.31287621435186    2.01538431664713
C         1.40428415959681    6.86613264979057    0.55705784341436
C         1.61354005523670    5.78477613010373   -1.59813785377347
H         1.94427767399624    6.38081754436551   -2.45138863396171
H         0.94982998113174    4.99299382236200   -1.94913359803147
H         2.47887670206899    5.34896396376273   -1.10702188427019
C        -0.35955963344184    7.13173772086953   -1.10356491952604
H        -0.61976949270124    8.02806425031683   -0.54381637716759
H        -1.14730507428077    6.38945456814847   -0.95111306865989
H        -0.29284351819932    7.36890082789273   -2.16482431771085
C         4.20291476394314    8.68326796192329   -1.10363936213253
C         3.22847570186865    9.12835246679493   -0.19620026202296
C         2.03011464722768    9.64556101241624   -0.67972283336689
H         1.30866994860517   10.04746851392350    0.01829593118313
C         1.81284261250323    9.66271209052926   -2.04237369600047
H         0.89021808714670   10.07147683990609   -2.42500711845646
C         2.76773129463941    9.17491422753063   -2.92977114895967
H         2.57312050578116    9.19550279190356   -3.99138845712361
C         3.97763101891547    8.69015287782633   -2.46846870863412
H         4.73861978958652    8.33782479549342   -3.14605998729382
C         4.85811129553684    8.65798195217873    1.27279190890957
C         5.46707163922841    9.05358350228696    3.53719896450615
C         7.63286428534896    8.07691173402196    4.01887586969551
H         7.67879809929231    7.15026231705813    4.59520210160135
H         8.52967795708623    8.66608713113505    4.21669141742356
H         7.57487209981639    7.84027302035900    2.96041766580474
C         6.49093307843833    9.37912197860526    5.73181607199772
H         7.03078377873850   10.32958688397820    5.74673487200065
H         6.99204229986495    8.67300944695484    6.39286439588071
H         5.47799791624493    9.55426680835008    6.08804315600803

