63
CSD_code = AKAKAA | q = 1 | S = 0 | Stoichiometry = C24H26N8ReS4(1+) | MND = 6
Re        6.75772923909895    9.26455054339024    6.37507980657943
S         6.90633701854539    5.13697097319617    8.45887472722842
S         5.79875253196061    7.84591195039793    4.60722051705218
N         8.54190670936884    8.56003926383188    6.03238472358020
N         6.46808863878791    7.56128056554382    7.61939899997314
N         7.08886584650999    5.90468957075551    5.98626095451670
N         7.18403385659515    5.75878816262223    3.72937595036534
C         6.81109900979678    6.34661436601034    7.19388557493334
C         6.78833987884310    6.41757984208207    4.81778759275109
C         7.87591353501513    4.49423163738072    3.83165520858153
H         7.31260773351934    3.72333205604359    3.30395824533585
H         7.97089078774984    4.22111518044258    4.87858727270665
H         8.86621375979567    4.57471311671443    3.37962473023043
C         6.84101967853290    6.16131651944986    2.38895586854193
H         7.68884650593755    5.96579956909450    1.73217093001061
H         6.59456813640073    7.22086554070440    2.35852372926384
H         5.97961813730552    5.59572528641402    2.02526452492756
C         9.56356048253456    8.04258414922488    5.90714741841573
C        10.82932283056948    7.40207704497829    5.74338517607156
H        11.22985027925623    7.61296003926810    4.75158260984012
H        10.71056728628993    6.32501369673948    5.86489578128593
H        11.52704260309036    7.77124087398656    6.49530494846701
C         6.17145296964641    7.56438962090087    8.96473064044001
C         6.38058200659215    6.33296674614199    9.61034061893625
C         6.15734774283041    6.17179837007916   10.96625030286790
H         6.33233230550780    5.21779260055367   11.43600925497196
C         5.69886645241630    7.25715835221031   11.68811958583442
H         5.51687348534215    7.15538562803018   12.74606586508482
C         5.45091400059384    8.47270532396940   11.05802432723304
H         5.06754373198960    9.29968000020049   11.63587309553467
C         5.67480976733819    8.63573003380423    9.70636907449543
H         5.45215264794721    9.57062642424916    9.21653858519344
S         6.60847603791599   13.39188954546835    4.29133514757029
S         7.71729487757540   10.68308093025779    8.14282107947721
N         4.97370787138656    9.96918483204347    6.71822814399355
N         7.04759197089170   10.96774186636045    5.13081523224983
N         6.42683263509589   12.62426034815709    6.76404717801564
N         6.33247329517933   12.77041901464704    9.02095566090480
C         6.70440690573623   12.18234482927780    5.55637744511194
C         6.72757487000788   12.11137399904547    7.93246572034774
C         5.64064062158856   14.03502168670434    8.91877747204072
H         6.20413718186694   14.80597701527676    9.44619134899729
H         5.54529902057438   14.30802670870102    7.87185430341376
H         4.65048930212322   13.95464767667882    9.37116325515519
C         6.67576659075673   12.36795512543340   10.36132087772687
H         5.82833350910741   12.56413173143043   11.01842888021634
H         6.92155438604193   11.30825516225186   10.39188261213192
H         7.53767605841249   12.93306876673047   10.72458340834387
C         3.95193958109057   10.48641567848473    6.84325178182407
C         2.68613401795271   11.12685363619613    7.00680440955768
H         2.28529901280786   10.91556777507309    7.99840257750402
H         2.80499941589951   12.20396474809575    6.88579017396272
H         1.98865455489767   10.75801460355335    6.25449658252781
C         7.34382565521284   10.96463482654582    3.78540562631195
C         7.13419622100076   12.19595994678852    3.13977968402413
C         7.35694270186424   12.35706250654470    1.78378394705448
H         7.18160684635525   13.31098814497782    1.31399426075606
C         7.81541841483661   11.27174020135861    1.06185914273993
H         7.99703937008405   11.37343906531744    0.00384499852293
C         8.06385832645714   10.05629938687622    1.69196484026074
H         8.44723311312187    9.22936371614700    1.11406749121598
C         7.84045370926242    9.89333849803840    3.04370444606033
H         8.06349432918779    8.95854497912678    3.53355563073057

