45
CSD_code = AKANEG | q = 0 | S = 0 | Stoichiometry = C16H21ClN6Zn | MND = 4
Zn        5.90485406019554    6.45432218034647   11.69501309181578
Cl        6.22383110313976    8.56658337361904   11.54713243457264
N         6.23617815383440    3.90510488442254   10.70394453177559
N         6.57035620529624    5.16160654612862   10.33001955636580
N         6.57157492657348    5.35900211332821   13.22160535730116
N         6.20303568458613    4.06984979752950   13.04192429703208
N         4.08986861082107    5.63098980166687   11.75687969551787
N         4.21174634377945    4.28531719681501   11.82419890258638
C         7.25609713735024    5.07580789816598    9.19729768928835
C         7.36704537990803    3.73149408813886    8.83084938074265
C         6.70561081673857    3.01684130222513    9.81299117751916
C         7.77943838529030    6.28061663474050    8.50469543181188
C         6.50663324629839    1.55341491386198    9.95887362089065
C         7.22454106222318    5.43455002673518   14.37424480145888
C         7.27971000720809    4.16315661780287   14.95235448088674
C         6.61996397000556    3.32105665628212   14.07566180190562
C         7.77214009252872    6.71849999098728   14.88098427088803
C         6.35482715606935    1.86377136271466   14.16795846349757
C         2.79461804407063    5.91713121411757   11.72414619411090
C         2.06243451155055    4.72743570227718   11.77115272184924
C         2.99804068677764    3.71083457446166   11.83500131466988
C         2.30323028247686    7.31669991769613   11.65427747185881
C         2.80764283276079    2.24014040682468   11.89173370217915
C         5.47440065166060    3.58193579441343   11.89080110337611
H         7.86104329626464    3.33691511840575    7.96667639709822
H         8.86139309534647    6.21625915370498    8.40074167155398
H         7.34759841540741    6.36095206958644    7.50823314279193
H         7.52855596804646    7.17288690294656    9.07394956355435
H         6.43590654543364    1.08602075954713    8.98040139117499
H         7.34927783962450    1.11078091021298   10.48972840080696
H         5.60110299498265    1.36307903560612   10.52858264706462
H         7.73970280588295    3.89606743529717   15.88165689998394
H         7.34060908948878    6.95601355315435   15.85207680168575
H         8.85250061501817    6.64884015552845   14.99824471368012
H         7.54091072298172    7.52010704238460   14.18300078803368
H         7.16630236724746    1.36827300309695   14.69411818164865
H         5.43057891332101    1.68406217446739   14.71679439103268
H         6.24988154254270    1.44798175664030   13.16952172607988
H         0.99664821070363    4.62481602247230   11.76167915834499
H         1.64786935935740    7.44522644231699   10.79458345516925
H         1.73707269390492    7.56273702181477   12.55151884497574
H         3.14481393996007    8.00054783875548   11.56875150342249
H         1.89183292187197    2.00163849088970   12.42580798026941
H         3.65828822121804    1.78070849498800   12.38780457471720
H         2.73259109025168    1.83202362288089   10.88398627301164

