71
CSD_code = AKANIK | q = 0 | S = 0 | Stoichiometry = C22H39N7Si2Zn | MND = 4
Zn        3.72391336981148    9.74734406739186    3.00053683337747
N         4.79826526886232   12.21176010239597    3.77168791711386
C         3.39743883194306   12.54462038024445    3.90346880460924
Si        3.63075167691918    7.07640944589639    1.51667782014613
N         5.24700415458220   11.03811613933831    3.27954601124382
N         2.78015436076916   12.35861368521047    2.60816419562546
N         2.81896526070236   11.22341172580273    1.86710973367385
N         2.77740889201016   11.62304344690626    4.82658741791254
N         2.59555476254709   10.31285646006331    4.56265080795535
N         4.14209084559979    7.89662303210635    2.93971057206834
C         5.64533684996483   14.40902166792807    4.56224857962858
H         5.89550535498742   15.15098729788249    3.80510128146696
H         6.29869129248276   14.56710505218769    5.41732437258818
H         4.60960207045803   14.53963814560285    4.86171939483688
C         5.82707680244966   13.03914497974982    4.01956465465219
C         6.98415782421718   12.36620405630400    3.67075417628300
H         7.98890072911375   12.73022959118591    3.74083336583291
C         6.56928817892110   11.11520191013249    3.20436219128934
C         7.39015241733263   10.00073390432650    2.66666057952090
H         8.14787967877281    9.70466453239576    3.38989258069934
H         7.89818923647947   10.31628623948594    1.75589832371659
H         6.74944055379556    9.15042888195608    2.44826455047531
C         1.90797572704983   14.67992690773759    2.52220220886143
H         1.11142097376291   14.65340347061832    3.26523612159866
H         1.62731030388069   15.37475470562348    1.73572005892874
H         2.81605328678856   15.02279294269740    3.01176232745408
C         2.12026465096189   13.32643520923037    1.95121041303858
C         1.71969808671241   12.79940655776429    0.73975850914190
H         1.17185777292699   13.29605885218916   -0.03476254192354
C         2.18347957506147   11.48031109139788    0.72963657888671
C         2.02880509484146   10.48287568550656   -0.35997930816172
H         2.65008849907579    9.61554387881043   -0.16516536877960
H         2.30965715719667   10.92867351499043   -1.31279934408125
H         0.98971421024302   10.16323290042533   -0.43140316675154
C         2.24918716762650   13.32477626625900    6.55223291243654
H         3.18305119248431   13.48200643307873    7.09159394054919
H         1.42260847544048   13.47827337523386    7.24058713944901
H         2.19830504757745   14.04841551090475    5.74225253264915
C         2.20276402619912   11.94971299974358    5.99591215957085
C         1.62857434120980   10.79807188451913    6.50276660058447
H         1.08688259393387   10.69671606005125    7.42110021307534
C         1.89483237103688    9.79651890444244    5.56377859271269
C         1.48072984184142    8.37054327903827    5.57015098725648
H         1.89431156609288    7.87582709021244    4.69494823491428
H         0.39387228427381    8.29436170301626    5.55403954121619
H         1.84238134379145    7.87254712704670    6.46805878707080
C         4.60711479430797    7.76744484192941    0.01348976186096
H         4.81581376681612    8.82807297794269    0.12975817646647
H         4.07364416475536    7.62881370079881   -0.92220660022198
H         5.56293949036012    7.26094051496738   -0.08252265780593
C         1.74764721924712    7.36966644647500    1.30662073700013
H         1.18266315050340    6.64315028579406    1.88265908456976
H         1.43184425533342    7.27861311762154    0.27209698375968
H         1.46312613159943    8.35719875574216    1.66051686208770
C         3.89725149438985    5.19290713794553    1.51476484558037
H         4.92625039145422    4.93950321117047    1.73778499412758
H         3.65468514389450    4.77481922634410    0.54345432905244
H         3.27031532272052    4.70381243008039    2.25004979505105
Si        5.03512327871868    7.14944221932690    4.20951822125034
C         4.11696804143358    5.66350317178633    4.99614954316305
H         3.03965264939371    5.78357960454140    4.97442337556210
H         4.41370176130954    5.52429090656574    6.03101072071930
H         4.35174438841382    4.74795813180265    4.46553831035422
C         6.73835006494093    6.49390975564090    3.61370106631748
H         6.91204545429389    5.48852092467785    3.98361503654726
H         7.56123117061725    7.11200027736123    3.95771488677855
H         6.78503166293407    6.45618059251306    2.53019553285925
C         5.35871855000530    8.41065137793879    5.60660724773923
H         5.85601397234293    9.29976656628035    5.23546156200506
H         5.99402142075236    7.97818565111047    6.37340629799221
H         4.43710825664589    8.72273707890561    6.08478959276046

