87
CSD_code = AKANOQ | q = 0 | S = 0 | Stoichiometry = C32H42N12Zn | MND = 6
Zn        5.34616580079922    6.87543096407185    4.83953640598501
N         4.19378943630911    8.54131132023974    4.31516487880814
N         3.69854113121040    6.21755788432375    2.53914772820370
N         5.56730839255639    7.51930901061280    2.01455674634293
N         3.97259396321237    5.72533003872881    3.76069984920017
N         3.71866155793976    8.49603113105484    3.05752492750779
C         2.77096118315092   10.22587403098288    4.00945590487947
H         2.17428305134334   11.09685694415110    4.19193920106152
C         4.12201121514698    7.51852936324816    2.07063347815598
C         2.94942077567559    5.35456821182863    1.83241885815797
C         2.72987037415734    4.25611085836537    2.64125933873863
H         2.16988479869202    3.37506480707590    2.40022991864163
C         3.43031618214965    3.69414655005577    5.06777349226553
H         4.34458488647007    3.87901996520357    5.62268447776348
H         3.37215016858110    2.64087970342988    4.80116123536413
H         2.58647211307860    3.93088893913297    5.71578959203613
C         3.63344376410306    9.58741815877436    4.90730858443140
C         3.94395967888088    9.99456227074566    6.30373548856315
H         4.21874744204143    9.12831764951932    6.89708449915252
H         3.08305246011150   10.48584234285455    6.75245766713186
H         4.78107507131786   10.69253711233188    6.31445167481187
C         3.38913372606140    4.53733189826934    3.84319578889703
C         2.85308260398189    9.49972762865838    2.83653669197826
C         2.16012703925141    9.68963946450664    1.53729509519424
H         2.78275203063804    9.30163180015189    0.73524923010065
H         1.95376179445486   10.74388101124960    1.37176318078148
H         1.21349049071991    9.14905277707558    1.53064303278151
C         2.50831545888094    5.62980695396683    0.44173970203035
H         2.27153737740238    6.68539271101012    0.33430679633167
H         1.63664429510279    5.02774513432809    0.19985110955275
H         3.30416329408092    5.38680001021113   -0.26226039013693
N         6.36457600411096    7.15100825751386    3.03344403181004
C         7.61578404300575    7.23967167321983    2.60254266891340
C         7.62254955736983    7.68399557715818    1.27586354109384
H         8.47812308965866    7.85575848242358    0.65422240813901
C         8.79106593112201    6.87024138711775    3.43591288997743
H         8.57625283958687    7.03743321334190    4.48656878473825
H         9.65900102264472    7.45744632659954    3.14321816856082
H         9.03000859267418    5.81520895039001    3.30228441718726
C         6.29393502119670    7.85076908819179    0.93397999880160
C         5.67730383680330    8.31078954308084   -0.33585065126820
H         6.29326267848816    8.01639297953532   -1.18172392250240
H         5.58424230011123    9.39679683242758   -0.33982604339123
H         4.68346292364263    7.88074945948344   -0.43079863669687
N         6.49846607935848    5.20966548485523    5.36401920025569
N         6.99384493366203    7.53343344366047    7.13989551811795
N         5.12494841990395    6.23205084818688    7.66469810478731
N         6.71977982583170    8.02562112545773    5.91832730724622
N         6.97344660268329    5.25489670546702    6.62171920354141
C         7.92107489456772    3.52495302579038    5.66987860684631
H         8.51769044094089    2.65391530389517    5.48745752585069
C         6.57025671445370    6.23253818407752    7.60852390175600
C         7.74288864571588    8.39647734253129    7.84663686784489
C         7.96237994579005    9.49493814725107    7.03779216323614
H         8.52228292322759   10.37603341082388    7.27883062920945
C         7.26189683100095   10.05686668881748    4.61128795571890
H         6.34758945567047    9.87202489153140    4.05642447174863
H         7.32010046759731   11.11012714487665    4.87792147787831
H         8.10569807487663    9.82011055889582    3.96322417195595
C         7.05876469501488    4.16350708359933    4.77193254676895
C         6.74835254389227    3.75642796951883    3.37546442582799
H         6.47414633851033    4.62278174974407    2.78199887973957
H         7.60910339516763    3.26465918553607    2.92697825305637
H         5.91086224702079    3.05890506423878    3.36460904410154
C         7.30315277587209    9.21366167435395    5.83584472586523
C         7.83890475031272    4.25110652923144    6.84278861409891
C         8.53174077863114    4.06105218211945    8.14207285531260
H         7.90854727727826    4.44780097285392    8.94428372254184
H         8.73918234094565    3.00691511443129    8.30689411361383
H         9.47779331104847    4.60265993105516    8.14932620809614
C         8.18397058208142    8.12126232256497    9.23733004226028
H         8.42220892698141    7.06596684498205    9.34443188690231
H         9.05473356387297    8.72443631971605    9.47970240383974
H         7.38756854899931    8.36283624577264    9.94119477100689
N         4.32772697838392    6.59978263870411    6.64556954823636
C         3.07651341001467    6.51172584124600    7.07657712287212
C         3.06969416565286    6.06849108985740    8.40360729115247
H         2.21410729023281    5.89742733170514    9.02542759994513
C         1.90126836877662    6.88067025623562    6.24296739431423
H         2.11638117449082    6.71345424403223    5.19238078311624
H         1.03350301288853    6.29314897406682    6.53554690028596
H         1.66190311740812    7.93562403046665    6.37649280760942
C         4.39827889962001    5.90166360885417    8.74558065363575
C         5.01479153472479    5.44261880805500   10.01591354101834
H         4.40208679951263    5.74325998436057   10.86195700613632
H         5.10190521152528    4.35615503231848   10.02356253360947
H         6.01109430793895    5.86768824762470   10.10735537896223

