83
CSD_code = AKAROU | q = 0 | S = 0 | Stoichiometry = C42H38MoP2 | MND = 10
C         1.11906393318784    1.00720844413666    6.10170118011583
C        -0.15653868002675    1.23296805973910    5.59404799971770
H        -0.40743408991954    2.18584699891816    5.15028590393870
C        -1.11969758252768    0.24127110056261    5.65430683111585
H        -2.10993260490586    0.43231583767886    5.26554587101591
C        -0.81974618879906   -0.99290345685675    6.20569162175255
H        -1.57363747883493   -1.76510992427823    6.24990408027163
C         0.45446546304139   -1.23563663603604    6.69428537264939
H         0.69671777766484   -2.20017191162503    7.11735553178732
C         1.41687692245705   -0.24638301158185    6.63668094632923
H         2.41482747873175   -0.43356653575759    7.01292825078696
C         3.35626072944410    1.91674559474359    7.47165931382155
C         4.70193256001833    1.57665452813332    7.48005568682850
H         5.22558847740404    1.49443670000913    6.53776122511636
C         5.35935882070087    1.37139733215937    8.68138519055165
H         6.40926765321577    1.11639114698503    8.68275029034016
C         4.67389728122236    1.49401550326796    9.87806074896656
H         5.18708130378771    1.33688812887254   10.81569662951570
C         3.32376072625612    1.81053251859174    9.87389914006980
H         2.78502830905779    1.89214367552921   10.80719690173540
C         2.66465509638467    2.01754832801062    8.67736105233493
H         1.60523694730798    2.24089102668714    8.67387475485539
C         1.71016414691207    3.82984604426572    6.16350796715279
H         0.74947963850843    3.85162482353150    5.63918301953224
H         1.53873557722787    4.00400808105787    7.23058919340585
C         2.63614429401314    4.87501693310964    5.56141234992854
H         3.57901666044469    4.90292036681261    6.11740289032345
H         2.17431342076349    5.86883859900985    5.53612148441248
C         4.11460518732526    5.53689605225647    3.15380722297273
C         4.86698723497913    6.43516566844711    3.89909785431749
H         4.78617336783909    6.45140751484420    4.97519251493444
C         5.73539897650750    7.30272447089601    3.25878419989147
H         6.32333947450132    7.99644780321586    3.84232180529868
C         5.86005641857919    7.27880126790874    1.87997864499721
H         6.54422185969872    7.95388289118529    1.38659954868528
C         5.10731310257166    6.38702423069549    1.13115862235411
H         5.20136041654134    6.37007760376702    0.05451433193729
C         4.24003072041013    5.52080641144368    1.76698828160318
H         3.63738044709700    4.82242759529031    1.19794075676523
C         1.44555732590149    4.74545317870978    3.05952969375555
C         0.51266521048669    3.74221918803801    2.83514670622663
H         0.77753687602174    2.72707575301209    3.10574699930446
C        -0.72048909376712    4.03826932878831    2.28260212664080
H        -1.44251405701287    3.25202127220522    2.11159709634362
C        -1.02592534837080    5.34654506515181    1.94587002393954
H        -1.98520367434675    5.58247973182779    1.50863347854198
C        -0.10044224892437    6.35441415312289    2.16936311573654
H        -0.34193832964884    7.37456916650019    1.90728588017305
C         1.12983958877108    6.05977353142849    2.72751659437605
H         1.85337068776760    6.84487729733796    2.90303047978969
C         5.10684117300995    3.25255558784654    4.86508698228188
C         6.00957634991761    3.89253643246738    5.36724805361057
C         7.01970116548975    4.64375595844646    6.01043423567677
C         7.92783470618521    5.40687593074640    5.27378810485009
H         7.85737696578717    5.41146867568665    4.19493474659366
C         8.89624706758448    6.15199528319608    5.91619376119174
H         9.59077363365789    6.74112239882299    5.33182289129829
C         8.99534586331190    6.15672423481344    7.30226043554565
C         8.09177379979887    5.39237273903276    8.03415611892433
H         8.15627762272576    5.38692055969037    9.11426650604769
C         7.11585117690743    4.64827477345118    7.40534931788244
H         6.41455594110360    4.06054798465298    7.98267267292257
C        10.05932526359061    6.94907301615905    8.00181741460126
H         9.64893216228847    7.46651576833271    8.86766875938275
H        10.50254514382827    7.68264648510821    7.33212027364467
H        10.85171755224526    6.28727218395074    8.35447350194273
C         3.10730054050230    1.63119750625205    1.74006976392465
H         2.50740869385562    2.18696149512323    1.02181657555665
C         4.50769161728157    1.87761690538872    1.67833865469068
H         4.82650751722525    2.61046353241604    0.94154427081523
C         5.49859599867917    1.37809295397837    2.51000171501084
H         6.49891483784303    1.77228808254869    2.34979298298269
C         5.37923168308433    0.45979092373404    3.59268766758460
H         6.30304771087614    0.25129080377822    4.12583348616691
C         4.24726145867903   -0.23174540639529    4.01934236456507
H         4.38058701969516   -0.91288428197113    4.85672656126497
C         2.92153985231618   -0.11632000875157    3.53288001388178
H         2.19053781235254   -0.74263820220581    4.04146630827723
C         2.41848991326255    0.66020124474190    2.48587309674013
H         1.35321409591324    0.56553449188859    2.29312066557101
Mo        3.72673511650417    2.05528937656094    3.89568215312810
P         2.49890871104334    2.17296315647500    5.88751810840201
P         3.02144109778357    4.28374194228151    3.85895442809353

