82
CSD_code = AKAREK | q = 0 | S = 0 | Stoichiometry = C39H40MoP2 | MND = 10
Mo        7.32034017705006    8.58140564150599   12.48018175170076
P         8.48934335311938   10.57461449866017   12.79402618330495
P         9.43560492827231    7.91892254385227   11.76635923793765
C         6.05420597176660    8.61341632952411   10.50009119730685
H         6.28119751375983    8.93028730982939    9.48648229685563
C         5.57665583195832    9.60209267006554   11.37040945215354
H         5.45750887877082   10.59104839408039   10.93398918822056
C         5.14921777406971    9.47869407896924   12.71648354489309
H         4.76957061390677   10.39219356156880   13.17086452030326
C         5.24946610736861    8.37427106661529   13.55746861962482
H         4.91790815007885    8.51621243177650   14.58322706269574
C         5.73351171822963    7.07116672033433   13.25015500804208
H         5.72247748071040    6.36737387727288   14.07886391855772
C         6.16559456442874    6.57228555815282   12.02229388051770
H         6.47344583515044    5.52924655848085   12.00373983810498
C         6.35977022810472    7.28324917433305   10.81455119491867
H         6.78487396343018    6.69751672220954   10.00077609844888
C         8.39230697213135    8.37507044339494   14.25733984142438
C         9.01292007998617    8.18866065245667   15.27838894748246
C         9.77638731604203    7.95530552174986   16.50565631227865
C        11.26459487339798    7.83705849362849   16.14963190767041
H        11.41414269000402    7.04668859980901   15.41563263483672
H        11.85176130283779    7.60736934677115   17.03776127560107
H        11.63033489158670    8.77119157275162   15.72613180929164
C         9.30288024577038    6.65228779859137   17.16044078182885
H         8.23965581192356    6.70618580513652   17.38479404154588
H         9.84632014360107    6.47185461863333   18.08680905483661
H         9.47107563626057    5.81430830410404   16.48744769011418
C         9.55939341808094    9.13225161378503   17.46492076007488
H         9.85457815209876   10.06822370903475   16.99325926837281
H        10.14525054173751    8.99613630554295   18.37288380526312
H         8.50854616566967    9.21007789554032   17.73514436523036
C         8.21953464853757   11.56927518601588   14.28741665311711
C         7.33204540403132   11.13295232837261   15.26004000312093
H         6.83227884536141   10.18527181474401   15.11665480750384
C         7.12011788426250   11.89195301156123   16.39760443050092
H         6.43043297315597   11.54918236672673   17.15563205404094
C         7.79328607021850   13.08991361121623   16.56820852761864
H         7.62993797010728   13.68142205778147   17.45740989780310
C         8.67568666148133   13.53358874212449   15.59552311790291
H         9.19722202456769   14.47133218684028   15.72609988051926
C         8.88639160224581   12.77990967377465   14.45625977774926
H         9.56202164828461   13.13227156106354   13.68770233325613
C         8.30569019759801   11.89054996408967   11.55136875491182
C         7.12341661727026   12.62722170958674   11.60266905920219
H         6.43908834427162   12.45436051419282   12.42472898650077
C         6.83920813411667   13.57281058009475   10.63758122628580
H         5.92253579108687   14.14314084737685   10.69015901524465
C         7.73179685801901   13.79029277371897    9.59872637460493
H         7.51017423089650   14.52583628647443    8.83928554389883
C         8.90994773630690   13.06615882155018    9.54033139533602
H         9.61018165587817   13.23845015232617    8.73497127747238
C         9.19732237708637   12.12045418098946   10.50976286947103
H        10.12648351460441   11.57088594752620   10.45735735047933
C        10.31762386292175   10.31369972217088   12.91162327254711
H        10.85457811434190   11.24903982842086   12.72070775559280
H        10.46714049434289   10.02292622704640   13.95664800048736
C        10.78174496462253    9.19305927500003   11.99415839077047
H        11.66570003319521    8.70182197067174   12.41254743780706
H        11.03736673376538    9.57489716952491   11.00009222642104
C         9.54557866233063    7.60523614867559    9.98065428929238
C         9.23993011709891    8.68215994194158    9.15049792542641
H         9.03696064662482    9.64740756089333    9.59978252862488
C         9.17120881795050    8.51848468093111    7.78162684502688
H         8.94142908224545    9.36223751783805    7.14611045518448
C         9.38406646544261    7.26607209353221    7.22454501458176
H         9.32645132980348    7.13312556960234    6.15401108170162
C         9.65474484855531    6.18407635719486    8.04473166372231
H         9.80303849914366    5.20418330380324    7.61333850860465
C         9.73099367550291    6.34736766910095    9.41776761463198
H         9.93391792397320    5.49634364602688   10.05323044132525
C        10.21427360893786    6.42874821508557   12.44876464933932
C        11.51388491118816    6.07050442073208   12.09654218825282
H        12.07321011208461    6.68534425614899   11.40289872197700
C        12.08268931459292    4.92328278448207   12.61731253404243
H        13.09228674289041    4.65052614201792   12.34488272042407
C        11.35810189402673    4.12033525762264   13.48438557641121
H        11.80626451395762    3.22565155339011   13.89157481706537
C        10.06021073526389    4.46424357692777   13.82336402956127
H         9.49350415885034    3.83338117180912   14.49330027554565
C         9.48894464566359    5.61406878857263   13.30651833590700
H         8.48591256999485    5.91017301451839   13.57778387375889

