76
CSD_code = AKARIO | q = 0 | S = 0 | Stoichiometry = C37H34MoO2P2 | MND = 10
Mo        6.37999172870873    4.29604317000973    5.13175794504605
P         4.53688624207164    4.89605866255118    6.45146465504898
P         4.88606506641336    5.04749601617084    3.47529042905229
O         2.61149822291001    0.42243752229157    5.35641127542140
O         3.89771474900844   -0.27887812995554    3.63848328144206
C         7.96749982711494    2.81421296592544    5.98997469716689
H         7.87410279797483    1.81912710270145    6.41596231707616
C         7.88153691377341    3.87143070388263    6.88733941870907
H         7.73454152533529    3.60564965869128    7.93098482481834
C         7.86652237272240    5.26319083815861    6.59739964830310
H         7.74630180821214    5.91213144892840    7.46345722057908
C         8.10549869045544    5.91584203262298    5.37821647181373
H         8.13660575522911    7.00165139355012    5.40799739561227
C         8.19091875536542    5.33283967402279    4.10754513306438
H         8.27909078124654    6.02996833636762    3.27567194663000
C         8.26020440027256    3.96264853076810    3.74859681152589
H         8.39190962192733    3.76575723337410    2.68730606066927
C         8.12534862416392    2.85226551479810    4.57669204344956
H         8.13932406875009    1.88250347545607    4.08753813918150
C         4.38902238101313    6.51138448094848    7.28764401827193
C         3.42192800344766    6.73058385579899    8.26557777288274
H         2.78083731009705    5.91518223196138    8.57370642064393
C         3.29345639289362    7.97902240188234    8.84424518493030
H         2.54588327783029    8.14461513724019    9.60653784731750
C         4.12012143537893    9.01998816374845    8.44915968507779
H         4.01709316821475    9.99360992730122    8.90531175364248
C         5.07647659494506    8.81104775352065    7.47020751501168
H         5.71896741313087    9.62252423828271    7.15903459441126
C         5.20721561617943    7.56002468155472    6.89342621205211
H         5.94996327066813    7.37439480670020    6.12910120747098
C         4.16357365305873    3.77649834569944    7.81799583929645
C         3.28692836559897    2.70321950348686    7.71923893148026
H         2.73003524917005    2.53197617956857    6.81154344418549
C         3.14913785154720    1.82931979247019    8.78406836459829
H         2.46870523811474    0.99482443346194    8.70104765248087
C         3.88219420398262    2.01289654236964    9.94401828357192
H         3.77196707570444    1.32545345849829   10.77007513482733
C         4.76468153812555    3.07777142587317   10.04359473926677
H         5.34144029160596    3.22113840607740   10.94644043319236
C         4.90688065957223    3.95178467961122    8.98426682488233
H         5.59186021457052    4.78934061468063    9.05022204355430
C         3.00499118788830    4.98597397786471    5.43003567292614
H         2.76402260872582    3.96491255106486    5.11768538533539
H         2.17341418214309    5.42061106077063    5.99591538172348
C         3.38679838023626    5.82690775176556    4.22025035761107
H         3.67457555569454    6.83613032448032    4.54111004171636
H         2.58246843744433    5.91893748035469    3.48267090174041
C         5.34770828627780    6.32538577628374    2.26357296307835
C         5.85564735108091    7.51738322498539    2.77449697465384
H         5.92033039967051    7.63944643579890    3.84826358500447
C         6.27059617552676    8.52640466781978    1.92814896756101
H         6.65928478102022    9.45002003128589    2.33309669119873
C         6.19200896666639    8.34947336128949    0.55512262011413
H         6.52088900953005    9.13418181845136   -0.11025949610875
C         5.69487384345297    7.16488105081237    0.03893494096651
H         5.63447592905321    7.02655346502348   -1.03091941053900
C         5.27355457930216    6.15379144586463    0.88600998083527
H         4.88426870699633    5.23112259758082    0.47958688600727
C         4.22784803698056    3.72506620496811    2.42212304016451
C         5.19188555576947    2.93079365162028    1.80478038011275
H         6.23548240774408    3.17969350353234    1.94968575940966
C         4.82729512836913    1.84194487721413    1.04032136724801
H         5.58302757794667    1.22823481688611    0.57329002153523
C         3.48684431276528    1.52310712782232    0.89211442359673
H         3.19724010886545    0.65884456259956    0.31401724045631
C         2.52321279008728    2.30504457616028    1.50221940497366
H         1.47710356894770    2.05489969594845    1.39411643300718
C         2.88581233589305    3.40383823968338    2.26388692257201
H         2.11180225136920    3.99151958123798    2.73528639302678
C         5.12696513963756    2.67519300979469    4.99665958608154
C         4.47950220413283    1.65882604630725    4.82869435087310
C         3.69123213428330    0.51852504944917    4.52604618760300
C         1.76628215185072   -0.68555721721785    5.12067674951321
H         1.39978923793396   -0.67533877239734    4.09071195292774
H         0.93801662857430   -0.59518315324300    5.82033651830696
H         2.30471889163164   -1.62204603291275    5.28775720711201

