143
CSD_code = AKASIQ | q = 0 | S = 0 | Stoichiometry = C67H72CrO3 | MND = 3
C        15.21133375150788    2.47527636696028    6.09014585626974
H        15.13429945742988    1.47067121155398    5.70015467244496
C        16.30034542542816    4.08002176625697    7.49429086741405
H        17.07046747044003    4.33010339771625    8.20967840102883
C         4.82617004115477   18.49038367818127    1.82141500759095
H         4.85515677595139   19.42055551196275    1.27238409873161
C         8.06916906834391    9.27706079097486    2.52697060113916
H         8.43453792922736    8.74631403681171    3.39382525844815
C         7.04200974563360    5.69175428102495    4.74423110423092
H         5.98598875240466    5.50491061898884    4.61667046598523
Cr       11.09810566336144   11.00431255227627    3.61036655410814
O         9.90447849585217   12.08000143095328    3.96448296422899
C         9.11839343124615   13.12434664468563    4.42775907388527
C         8.00925615075754   12.45375318338895    5.36157142055954
C         6.88753180895152   11.93313640149780    4.44689905052554
H         6.26538162538126   11.22400482937657    4.98979164665472
H         7.30926821401858   11.42676192870172    3.58308820511267
H         6.24839986226260   12.73571464010463    4.09168093714838
C         8.58012649709573   11.22065950409821    6.08519930567472
H         9.35283334983595   11.48711956295571    6.79988822045792
H         8.98433791943066   10.50891321750638    5.36562457102051
H         7.77733656812339   10.72970769541577    6.63249077375068
C         7.36934283241797   13.33008266772952    6.44342918284478
H         6.90835677018252   14.22642684256774    6.04469014527334
H         8.07994452293490   13.61226618589568    7.21452873387366
H         6.58167675466994   12.74963916517149    6.92292174288063
C        10.12681999711264   14.18553695769633    5.06238202349401
C        11.19872507120834   14.49000994531305    3.99963603439148
H        11.98746288553061   15.09761973442962    4.43827066213166
H        10.76884890907072   15.04026827825985    3.16645706834042
H        11.64063480869908   13.56951313366008    3.61441018891262
C         9.51511410958662   15.53500621525452    5.45232934070056
H         8.76506979978309   15.45018540376222    6.22891443889817
H         9.07912432640874   16.03524803379986    4.59291355506434
H        10.31347476149796   16.17004928896997    5.83381472285809
C        10.84286626834260   13.60596274415112    6.28466873743624
H        11.66749582430325   14.25869536073123    6.56653619423820
H        11.25136997623754   12.62584092589802    6.04636748537716
H        10.18066530713191   13.52416398877464    7.14187635043161
C         8.47003121570421   13.82001318393769    3.21861680618400
C         8.96766880877951   13.55178965186307    1.95140287159326
H         9.75984690051002   12.82952162761358    1.83632234632129
C         8.46048803616098   14.18135016955362    0.81742603577901
C         9.00912054729229   13.85884354235453   -0.50825609909875
C         8.17443499699343   13.77698143784174   -1.62086297933814
H         7.11340856311042   13.94644117181671   -1.50554604650692
C         8.68479329844565   13.45078170508965   -2.86361560135856
H         8.02306193959177   13.38293162702786   -3.71540243585729
C        10.03873140958432   13.20478349391771   -3.01720058924329
H        10.43659523905839   12.94786767697669   -3.98810817963366
C        10.87840433350092   13.28614345639473   -1.91870869166490
H        11.93544379240329   13.09357475809628   -2.03192078096725
C        10.37065049248862   13.60948929302166   -0.67441168586660
H        11.03346553330965   13.66806749537782    0.17552973986533
C         7.43609807631706   15.10769314421585    0.95930991704563
H         7.03580841828087   15.61197289931433    0.09219137869550
C         6.91982056527397   15.39198210910316    2.21710578632250
C         5.83182355219338   16.37031294390396    2.37549304299632
C         5.84820105674396   17.57171561868968    1.67131739817857
H         6.67869992945450   17.79198898447750    1.01618814778659
C         3.76802218151856   18.22255431108897    2.67364546245557
H         2.96852922382404   18.93956387074757    2.78868193055865
C         3.73956412476293   17.02988137180269    3.37658524645531
H         2.91390762780580   16.81274161348754    4.03901573294599
C         4.76341757766071   16.11258633461792    3.23105427626035
H         4.72497865523720   15.17567370020280    3.76833420962669
C         7.44112324044941   14.74680272732406    3.33414230699141
H         7.03169280025581   15.00696109862350    4.29487043363733
O        11.10136862279467   11.10365536154313    1.71983025903803
C        10.42586258609984   10.00074842679960    1.95548945152991
C        11.03817491757819    8.74026379128004    1.44139610441900
C        11.99637375987566    8.84787749885178    0.43028812488890
H        12.28456933121277    9.83539096566746    0.09870075104115
C        12.55156570611732    7.72245493503515   -0.14650578153345
H        13.28282417891474    7.82828670369343   -0.93517117125418
C        12.17198910733293    6.46146783398597    0.28304772666182
H        12.61049941494461    5.57959602283118   -0.16049807228494
C        11.21448761940669    6.34152302805037    1.27649626439992
H        10.90164090936922    5.36249028140934    1.61021006164828
C        10.63876817876025    7.46485149752127    1.83947658190087
H         9.87328302696882    7.33897323805513    2.58747683312066
C         8.94770977447956   10.00687489593821    1.72916885835643
C         8.43686509708897   10.69783109287773    0.63220671461885
H         9.11822515032173   11.23701277108167   -0.00889628478069
C         7.08330267057538   10.68215300275032    0.35581054748718
H         6.70691058282194   11.23364326756441   -0.49357164485796
C         6.21859292537351    9.94796335424322    1.15027083142359
H         5.16190105917817    9.92420096254068    0.92731526639799
C         6.71814401319129    9.24078804497352    2.23135277004901
H         6.05151403205301    8.66330054024348    2.85594794920965
O        12.40583041172373   10.13095228101366    4.05649134505744
C        13.47229149637660    9.48561900073186    4.65959819883947
C        14.65293571342756    9.49303335896682    3.58700426919814
C        14.55746752827441   10.74807739312961    2.70084853617883
H        15.33557560891902   10.70125348698910    1.94124624153048
H        14.70186332704399   11.66007333057731    3.27075695750361
H        13.59417949633343   10.80084528608410    2.19740744289147
C        16.08710061473606    9.43764266408089    4.12185380327290
H        16.26334275091743    8.58200945364454    4.76493642158465
H        16.36252127040810   10.34634709279701    4.64897869783803
H        16.75717109068555    9.34166103936204    3.26846119012033
C        14.45883211595977    8.28230173226376    2.65930992987978
H        13.41199078307309    8.16975384501902    2.39590836399548
H        14.79849207593715    7.35842305691890    3.11909879303471
H        15.02566004171669    8.42794487986271    1.74217532575210
C        13.03137907966465    8.04917678301846    4.98658857862675
C        11.68471221706128    7.73030297689056    4.88701164555363
H        10.99178142004200    8.48674031588618    4.54375467907050
C        11.20691148507325    6.45936440231748    5.18634675981125
C        12.10131822691852    5.48046812076088    5.59604636342216
H        11.74179791113742    4.49718318411281    5.86174669959794
C        13.45397768696369    5.77690440817359    5.71489477702068
C        13.90687764519225    7.05790928982838    5.41116343225531
H        14.96440335303830    7.24755866356855    5.48381489113540
C        14.40617063230311    4.74681197948130    6.15972342440288
C        15.41111135990903    5.05170577324028    7.07447659052828
H        15.48275376724131    6.05268381055178    7.47565306256058
C        16.20430963765212    2.78902133291761    7.00301073266797
H        16.90027555222353    2.03080860095465    7.33018261675643
C        14.31817086676140    3.44460322435100    5.67384269620338
H        13.55556230882368    3.19905811800223    4.94922227540893
C         9.76899069998976    6.17877037482056    5.05666252449661
C         9.32236343765462    4.99863762292430    4.46811152700549
H        10.04331517434606    4.27684254958490    4.11276353006324
C         7.96983934386416    4.75999348574620    4.30950213342028
H         7.63687456832680    3.84540013234384    3.84071998158346
C         7.47454966084106    6.86199602664870    5.34496835152109
H         6.75559289516375    7.59005143251288    5.69228995868896
C         8.82703543736510    7.10538009259060    5.49854934870045
H         9.16019549309919    8.01325909849275    5.98075899879894
C        13.69097678267075   10.22736188216328    6.05398579447815
C        14.02222368265726   11.70562964987386    5.82508981041998
H        13.34481278196071   12.13815503359532    5.08849442949456
H        15.04496768081541   11.83156701232329    5.48187830578274
H        13.91666173233420   12.25646678184271    6.75835521404555
C        14.74219243384899    9.62630865218817    6.99250619482907
H        15.74796381825729    9.68442193754451    6.59760960472262
H        14.51033804590419    8.59227039383213    7.22899495293513
H        14.72224665343806   10.19001389025338    7.92443644704183
C        12.35911595330674   10.14269406484405    6.82358203273230
H        12.39266395598728   10.79581824325458    7.69378959724971
H        12.17705759348781    9.12681033746286    7.16785495031095
H        11.52072896898481   10.44555576085462    6.19274378411354

