107
CSD_code = AKAYES | q = 0 | S = 0 | Stoichiometry = C55H44ClCuNOP3S | MND = 4
Cu       14.66094017996079   10.14276306194945   29.37090286407611
Cl       18.26388436430629   10.48183059549361   32.22877304849707
S        14.05006216368943   10.91688107163109   27.28002327285690
P        14.34402437708013    7.88634144342908   29.53509187657961
P        13.60390245470614   11.94639083979200   30.56390250494288
P        16.02167553936007   11.09445094762453   27.31537160743450
O        16.47156443676425   10.56320362302159   30.12951453099050
N        16.73825007004670   12.05875413878993   28.41360705760551
C        15.60282750600343    6.86593166263395   30.36434267290958
C        16.91650873420008    7.31823111279602   30.35577688081738
H        17.14557033676624    8.25746776476043   29.87391424646295
C        17.90602920623404    6.58620944439376   30.98747631426012
H        18.92582446639666    6.94235028203741   30.98270623028266
C        17.58495894338569    5.40393660655733   31.63249548066091
H        18.35647981129473    4.82929703310737   32.12417454058885
C        16.27056470010681    4.96234392202755   31.66383954488712
H        16.02089280076314    4.04752252309083   32.18212301292768
C        15.27695076350044    5.69169827057840   31.03864359268445
H        14.24745743674595    5.36094166850228   31.07656150800951
C        13.55321371579413    6.78561904639970   28.32079537795483
C        13.92755583241088    5.47114017245719   28.07191246483346
H        14.72314169563504    5.01509657109533   28.64388938487821
C        13.27922521538246    4.74814613472160   27.08493019686702
H        13.56746388418550    3.72374948391172   26.89595782749834
C        12.26924967644727    5.33111821987513   26.33770814549759
H        11.76861912698052    4.76005692983689   25.56960909299269
C        11.91124473447687    6.65126398333881   26.56557695995663
H        11.13757328842713    7.11426028770313   25.97090963432780
C        12.55548682407594    7.37937102410029   27.54681208983487
H        12.31000788385206    8.42180967670032   27.71186015079562
C        13.11430627045813    7.95458821117197   30.87289847463251
C        11.83481567197510    7.41688109783559   30.82176875078586
H        11.50714301756091    6.87447376090219   29.94587126863651
C        10.97762734830738    7.58626011133329   31.89606625903914
H         9.98042779835180    7.17239341704811   31.85410794101463
C        11.39358719347373    8.27665858770607   33.02135060637588
H        10.72118329759414    8.40156545583616   33.85714189908342
C        12.67271727462740    8.80987685970632   33.07732786856300
H        12.99912952350198    9.34625674493659   33.95560442680374
C        13.52469869559146    8.66049784251545   32.00194612445188
H        14.52116775353209    9.08514288070475   32.01260583036350
C        11.84123676798641   12.07480077863875   30.12718798143339
C        11.21260381683470   10.90295695039871   29.72234688997282
H        11.79777626093181    9.99391393561590   29.66172754703317
C         9.87016658315446   10.90920149039606   29.39361682021881
H         9.38647428086395    9.99590440263194   29.07932158678381
C         9.15060805705700   12.09089653225191   29.46161391175461
H         8.10241549483090   12.10175381300802   29.20046474333133
C         9.77524087797209   13.26338225203206   29.85705853295895
H         9.21260921090941   14.18479012619100   29.90459047600888
C        11.11739213599292   13.26086900760192   30.19075393102948
H        11.60573303176962   14.17648812211039   30.49555019734448
C        13.57514077987796   11.98703949292855   32.38535719308256
C        12.44377064862832   12.23973169989392   33.15001575532091
H        11.49628639608849   12.43513561510991   32.66920650258030
C        12.53442556301258   12.23795184041347   34.53133531171957
H        11.65388628568340   12.43820366008884   35.12495925402093
C        13.74424021348906   11.98056318450930   35.15544246843144
H        13.80643663822223   11.98159577574133   36.23405385428715
C        14.87241282872868   11.71090021615872   34.39575883808158
H        15.81541140708742   11.49715283987831   34.87775730981421
C        14.78542331301613   11.70712470818749   33.01717295023321
H        15.65007661195031   11.47677162839650   32.41021937841705
C        14.20335493626638   13.62357219711700   30.17435461855683
C        14.89653800203332   14.41815946030244   31.08065091559737
H        15.06298682106013   14.07484084893447   32.09199383356526
C        15.37182664149548   15.65762727130958   30.68963522954159
H        15.90042692179289   16.27373412486018   31.40279724694210
C        15.17880511321089   16.10436733979824   29.39350343711455
H        15.55752414120787   17.07042953454817   29.09210290552739
C        14.50087902055615   15.30855009234939   28.48266383550431
H        14.35190871929627   15.64993855174122   27.46806284221861
C        14.01322487313685   14.07546326946742   28.86860025319117
H        13.48681166315418   13.44992035997832   28.16024787274945
C        16.84803621999507    9.46872482730051   27.24630719539162
C        18.20557071838759    9.40082957319352   27.53376276782021
H        18.74344025806001   10.30917172711017   27.77194933442034
C        18.84791786964623    8.17626072427129   27.51570975151244
H        19.90252709974284    8.11867790789345   27.74392398181157
C        18.13966664417637    7.02505045169538   27.20730893947376
H        18.64418452311041    6.06978593107149   27.19909662732011
C        16.78936206009848    7.09604572160714   26.90636052956529
H        16.23964750399634    6.20147652311630   26.65125464970694
C        16.13872762224185    8.31720037207248   26.93010028970395
H        15.08874703019334    8.39435632183864   26.67447289678177
C        16.49843867363865   11.91001590467897   25.77037358002147
C        16.58829378874582   13.29441529781863   25.75507645031028
H        16.44179453233494   13.83394432429177   26.68030300532052
C        16.86723604905452   13.95086733976741   24.57122076081680
H        16.94261183620408   15.02900916590562   24.55472274394864
C        17.04760079943364   13.22575444516834   23.40398600181871
H        17.26832312927971   13.73880747091270   22.47900405053746
C        16.94299757689984   11.84417101673275   23.41820084534171
H        17.07927864498048   11.28172950341971   22.50558827338725
C        16.66179688188570   11.18306464224672   24.60009890988801
H        16.57051879050632   10.10469780456478   24.62097879814627
C        16.92501124923981   11.63066857561132   29.64747685329768
C        17.75862314232326   12.53039141445552   30.48842122155427
C        18.36908886565321   12.11534290287043   31.67248782415957
C        19.11387529318015   13.00431057092600   32.43439285685908
H        19.57254895077623   12.65756561568319   33.34726755500557
C        19.26644384025208   14.31374628112657   32.01989841426828
H        19.84500706295952   15.00021733524640   32.61990268630571
C        18.68760125080064   14.73536993405752   30.83307436799661
H        18.81563476132944   15.75305462115358   30.49659463546915
C        17.94554235821347   13.84988290748060   30.07979448912715
H        17.48689690150244   14.15938921044441   29.15457272514515

