71
CSD_code = AKAZUH | q = 0 | S = 0 | Stoichiometry = C24H32FeN2O10S2 | MND = 6
Fe        4.78628183664487   12.93244747274885    5.21244990694346
S         6.33836379381993   14.66937792187354    5.84374682043097
S         3.39017135178822   14.75245190897932    4.51613036251863
O         2.48492584223001   13.22355704860879    8.25598955121350
O         4.10117992424540   11.75752612695614    8.81478632235125
O         6.31587671801357   16.10724850757428    8.60587387429134
O         4.86022897870392   14.69034455382641    9.57073424821446
O         3.72342123590790   16.24112379729885    1.81372582277122
O         5.11592390705958   14.72756537038440    0.90046580288253
O         5.64762223105827   11.72828553464466    1.50542876374285
O         7.20912813277700   13.02065892193231    2.49157752559639
O         6.65413772763251   10.73811899086541    5.39648658208434
O         2.76885463301015   10.86719913297349    5.15083380872087
N         6.37895965037618   17.33203021020726    5.21381797703581
N         3.51193560818248   17.41733935225223    5.06198095221530
C         4.56173333103772   13.28478185094029    7.12532181824836
C         3.60320785107075   12.79113470816469    8.12315932000002
C         3.22201675134495   11.17378834044787    9.76484960964786
C         5.37665767183803   14.32418061478006    7.34478549663164
C         5.58806742873363   15.14434240447026    8.54100654545092
C         4.97574182877644   15.42398697292821   10.77990461514363
C         5.57471581437692   16.22132495234910    5.31401913020950
C         7.56017273453711   17.48330945422754    6.04306024637463
C         7.57896660297408   18.84073145080683    6.74205356677561
C         6.43544218942666   17.95333668672977    3.89952825626050
C         7.22803692811435   17.12732867581261    2.88550682857728
C         4.24410457571193   16.26579475730941    5.01743879311927
C         3.65040082427770   18.25042134401582    6.24359371804189
C         3.00575623918086   17.61426794978786    7.47432245809532
C         2.30773547907410   17.61258929447632    4.28071305962193
C         2.45011603485713   18.80252251094624    3.33436887177146
C         4.37686249063276   14.32340594675853    3.05462975536236
C         4.34471856855933   15.20718870455648    1.88538588911475
C         5.14208189433856   15.48725482581662   -0.29758670053725
C         5.05742865104068   13.19523804918659    3.29130258279604
C         5.95298031093101   12.56741162140871    2.31130954095897
C         8.19627110126907   12.44005286039989    1.65297216202464
C         5.94474935382462   11.63008897721435    5.34994579819739
C         3.53218555886500   11.71325970113115    5.14161037356984
H         3.77729267760448   10.36651921162790   10.23513548928305
H         2.32995845040998   10.78814892102615    9.26685610043768
H         2.91841895713528   11.91595499565955   10.50601042782494
H         4.27867944965069   14.96789712885444   11.47767527965695
H         4.72034903295710   16.47265392498314   10.61294181592518
H         5.99711569523608   15.36544592549731   11.16247640458704
H         8.46722248914663   17.36360420416807    5.43986400184917
H         7.55028436245144   16.71053790153000    6.81035806101569
H         8.51138878007488   18.95040261690838    7.28874793850522
H         6.75903021242560   18.90473475570968    7.45191972065610
H         7.49600612317338   19.66005587221210    6.03180970284570
H         6.89130122296255   18.93832145045213    4.01314755419497
H         5.41285113990417   18.08954498729101    3.54195393459247
H         7.19524001089826   17.61054552611806    1.91238462774904
H         6.80790600466544   16.12711852711809    2.79637833378052
H         8.26873690127856   17.03118005589162    3.18587498317695
H         3.17842655058278   19.21065192580496    6.03097141708369
H         4.71245919565616   18.42307697827858    6.42761804623368
H         3.46559931219414   16.65225525056158    7.68922067063333
H         1.94224501611032   17.45086119683399    7.31643616427045
H         3.13340952875631   18.26269893518755    8.33714134432315
H         1.45607133705677   17.76393144949720    4.95275927902620
H         2.12101440852222   16.72270386195338    3.68135016345947
H         1.49839937940604   18.99415912843820    2.84680290566205
H         3.18645790671959   18.57266418131312    2.57017242031513
H         2.75565388049077   19.70056391790311    3.86611443465929
H         5.62308904940736   14.85996296438818   -1.04346388087656
H         5.71044142622858   16.40841542155302   -0.14797274440268
H         4.12672112338803   15.74349684958736   -0.60674711099559
H         9.13325382260258   12.93064354098051    1.90391653398445
H         7.94458635882946   12.60204527521645    0.60287678287028
H         8.26372840783784   11.36588561166006    1.83723914120619

