78
CSD_code = AKEBEX | q = 1 | S = 0 | Stoichiometry = C39H35OP2Pd(1+) | MND = 5
Pd        0.59112319323975    0.22487166698202   13.73020016991430
P        -1.32480060808173    0.00726606604398   14.99354718123280
P        -0.32549241123483    0.51467334238263   11.62527594936862
O         3.17373236198567    0.76500058630164   11.95529373779185
C         1.96921730290153   -0.13463519234335   15.31686953400657
C         2.63132683351320    0.60512613697646   14.31951360669075
C         2.63215852522933    0.11120124353647   13.00924777537907
C        -1.60076205463798    1.51099069717089   15.97283014765227
C        -2.80275526921928    1.76749621014734   16.62672466591735
C        -2.94377657072679    2.92084204216407   17.37734677576446
C        -1.89592454756310    3.82296539638409   17.47632222188455
C        -0.70172260478865    3.57854693712285   16.81699428575774
C        -0.55508861266177    2.42638345475811   16.06642393268995
C        -1.12485548886871   -1.34189874368083   16.19679262302738
C        -0.44134285322684   -2.47053900594874   15.74748896880379
C        -0.25545423600909   -3.55252652475234   16.58629425054898
C        -0.74057525887757   -3.50669693358459   17.88460205200694
C        -1.40920573523130   -2.38150210860220   18.33806024877135
C        -1.60662626179744   -1.29797036730118   17.49874562053491
C        -2.95857343516515   -0.32250392563167   14.26829484858884
C        -3.63501084982741    0.72418166212975   13.64521498170695
C        -4.86738001141455    0.50296641654358   13.06168524931834
C        -5.43210134242360   -0.76248995424165   13.09094411969813
C        -4.75877096894459   -1.80668208392162   13.70220697173444
C        -3.52319136575545   -1.59301103195819   14.28669761370707
C        -1.42199101367916   -0.92055502631160   11.43176336506676
C        -2.66681376892144   -0.93426625809002   10.82136812575995
C        -3.37618090057501   -2.12167948297512   10.74782444882045
C        -2.85003529802820   -3.28842142610666   11.27572896746431
C        -1.60878899551193   -3.27767035738021   11.89449031175469
C        -0.90025446726117   -2.09534083160098   11.97586629337990
C        -1.26572913964091    2.05323455016502   11.45524459698831
C        -1.96776541520058    2.39976584818228   10.30517035834661
C        -2.64325677461921    3.60600431208170   10.25756339635677
C        -2.60517146916782    4.47372527293341   11.33889812202924
C        -1.87416645970581    4.14876518235781   12.47084417255649
C        -1.20261367592333    2.94119419489801   12.52578215823108
C         0.66858437550021    0.49935394733799   10.10290870078562
C         0.84938568203717   -0.65254850910237    9.34530234170736
C         1.65754465453671   -0.61465350399848    8.22300114187447
C         2.29535382330606    0.56007868898636    7.86023992487348
C         2.12679875141804    1.70614186638255    8.62143804863979
C         1.32023194987123    1.67722606667535    9.74222463928752
H         3.33008824179950    1.69904262051356   12.15571250015620
H         2.65609845162175   -0.97157816205024   12.82924150120314
H         2.93461632425010    1.63919570825864   14.49763350036626
H         1.91132970644105    0.27528641952922   16.31998342426039
H         2.04771188341839   -1.22406392478927   15.28614211678060
H         0.38122485396324    2.22809383135451   15.53802832249485
H         0.11002583392384    4.28692079033788   16.88921096760874
H        -2.01228530182104    4.72073260749576   18.06357058906642
H        -3.87497080326245    3.11800180774752   17.88636942784880
H        -3.62475479778572    1.07115780814318   16.53507187780740
H        -2.12240570400091   -0.41972548200400   17.85827886768599
H        -1.77880477470767   -2.34611021744817   19.35151858402390
H        -0.59119748586241   -4.34728473964628   18.54444727895318
H         0.27020961809510   -4.42825021183271   16.23581498418502
H        -0.06043654624805   -2.48462065037790   14.72701870577376
H        -3.00261273616511   -2.40990994427972   14.76547061424913
H        -5.19868107769328   -2.79194691208825   13.72896587078748
H        -6.39811064574921   -0.93277856220574   12.64107712968569
H        -5.39012180618775    1.32035268190778   12.58808504187666
H        -3.19653555136232    1.71271261678259   13.63323277099871
H         0.08987037926292   -2.06267404318581   12.44853595218320
H        -1.20236128774350   -4.18857054094072   12.30823211269123
H        -3.40835043089958   -4.20935082389403   11.20917757428823
H        -4.34510122122989   -2.13473043339618   10.27270790672740
H        -3.08803205477321   -0.02578314069412   10.41915004985539
H         0.35343194749956   -1.57136363350291    9.62585521536807
H         1.79035222939417   -1.50698925826493    7.63017972251292
H         2.92574699220569    0.58303200273484    6.98478185302044
H         2.62606328050594    2.62106789965085    8.34022689201797
H         1.18046463767134    2.56976473354384   10.34021231811994
H        -1.96588033359883    1.73882172345041    9.44997508061123
H        -3.19550390772885    3.87637059956301    9.37037552754164
H        -3.13466796352305    5.41286542317000   11.29233290063735
H        -1.82722479950196    4.83386907174895   13.30423188989841
H        -0.60847473894262    2.66863181390791   13.40137428124887

