93
CSD_code = AKEGUU | q = 0 | S = 0 | Stoichiometry = C47H35IrN6O4 | MND = 6
C        -2.42098180651030    3.88023402935525    6.35199619782420
C        -3.71816706852182    3.62000500144967    5.92215939545540
H        -3.89409024966647    3.23533113897469    4.93226207763878
C        -4.74689561236421    3.88846667650108    6.79938212782650
H        -5.76548252929603    3.69606075967694    6.49800460208747
C        -4.50912153814876    4.41625728579189    8.07071230143735
H        -5.34653223978138    4.61755854761064    8.72139066037234
C        -3.23063710184590    4.69615033421601    8.51012163559848
H        -3.04724885392580    5.12143074413080    9.48504033923658
C        -2.19050672685193    4.41508535923734    7.63798111685705
C        -0.27756335369984    4.16058234770433    6.57257305886687
C         1.09342351522705    4.07791043435536    6.13903330290221
C         1.20817578324328    3.64561606424818    4.79612547223665
C         2.49396766978040    3.54409451014016    4.28770005077866
H         2.65975965328773    3.21820061039052    3.27064118423229
C         3.61690816390666    3.84742974232144    5.05940612193095
C         3.47878591084706    4.24396140516119    6.40472761454204
C         2.20628679632331    4.34953168533123    6.93746953144612
H         2.07220154220607    4.62362425743430    7.97075474973564
C        -0.19721241235581    5.25765515746284    8.81787239343168
C         0.46003227269375    6.46259610189161    8.59018208129950
H         0.50195918717896    6.86326068857365    7.58829038613407
C         1.05669376548484    7.12489506230061    9.64700767288870
H         1.56823316479502    8.05913129052881    9.47147594633468
C         0.99042132075941    6.59781092573091   10.92730084708174
H         1.45617597347400    7.11900812289090   11.74963193395210
C         0.32319976244133    5.40550614853268   11.15244385350208
H         0.26831395725891    4.99571539763749   12.14961395967158
C        -0.27380765870171    4.73173861843359   10.10087268908304
H        -0.78984796801033    3.79757058604968   10.26460304363868
C         4.89836673363546    3.74196408311386    4.48124733277090
C         4.54698444181806    4.91007984363311    8.42210109466316
H         3.98450751338164    5.84474236837866    8.52129698026347
H         5.57501342116974    5.07095434555843    8.74198719930244
H         4.08722263166189    4.14297641532523    9.05417311338428
C         0.79236511575970    1.43715983109047    1.58792795033663
C         1.08166128332825    0.17921365783070    2.10676537047597
H         0.86759707922392   -0.04406987735703    3.13788807610215
C         1.65860278279562   -0.74277315522537    1.26001892111453
H         1.89430796951971   -1.72901629181033    1.63031061118232
C         1.95955796180654   -0.43271000304007   -0.06843110811188
H         2.41766952558475   -1.18454098847815   -0.69296690564138
C         1.69515004395516    0.81463133130835   -0.59768013713964
H         1.94419514736708    1.06141793857494   -1.61850864483778
C         1.10256385399547    1.74214845657488    0.24496792651533
C         0.21499829661798    3.50177919991757    1.23256723416445
C        -0.35109033483568    4.77325683279771    1.60325878779070
C        -0.70591388652746    4.82621577049307    2.97253104452341
C        -1.24776613537525    6.01968958539579    3.42427045124184
H        -1.54501422504145    6.13373092487494    4.45711659116919
C        -1.43726360908808    7.11100518153240    2.57472072583394
C        -1.10721414064057    7.02294893181772    1.20753270426478
C        -0.56921898859824    5.84099219055778    0.73032165666909
H        -0.33333711924391    5.73667790611676   -0.31564078886366
C         1.02190000869507    3.79400984655753   -1.11717349118712
C         1.90254984846001    4.86940007677724   -1.05725762407756
H         2.34070202484971    5.14436668945360   -0.10936309134197
C         2.19671926571366    5.57564520246721   -2.20892801792949
H         2.87821999719584    6.41158972354063   -2.16353630108795
C         1.62729512517372    5.20717284577859   -3.41777978624441
H         1.86066461316834    5.76055083550464   -4.31450062168258
C         0.76293346426530    4.12692859536877   -3.47625391875873
H         0.32159372566921    3.83697747419936   -4.41775658530563
C         0.45786576039453    3.41575851574263   -2.32850891547118
H        -0.22080463620996    2.57666829609783   -2.36196575572206
C        -1.97488874973025    8.30443597112227    3.09816813939947
C        -1.02689993931049    8.09551528455449   -0.91305717836949
H        -1.60611241093864    7.33345556309454   -1.44515766598260
H         0.04147772478521    7.91404288981612   -1.07265762777101
H        -1.28796322879599    9.07970905892821   -1.29805759579767
C        -2.95657434851035    1.23632298444282    3.32924543014954
C        -2.46172115510871    0.18761002230651    4.10872296801571
H        -3.06190015499421   -0.70898938037925    4.15789435951334
C        -1.26560863822611    0.18689272846310    4.83113091406201
C        -4.28293613471136    0.98064545589485    2.63171041500418
H        -4.56749934782156    1.85551568468316    2.05190061340697
H        -5.05610132432709    0.76855845451946    3.36778632402365
H        -4.19715858248205    0.12131221490675    1.97000641375634
C        -0.95969171082244   -1.08022939253383    5.61332962695166
H        -0.00539353757662   -0.97507697223188    6.12401987660803
H        -0.91719929117883   -1.93388573498471    4.93966750327299
H        -1.74237275993748   -1.26304192461092    6.34670154486272
Ir       -0.53164836115617    3.06870376473779    3.95016493730903
N        -1.21300933523228    3.73416806835627    5.72747995159299
N        -0.82632804728266    4.59122789158885    7.74562143360504
N         5.92259587541051    3.65120186710427    3.97153247246329
N         0.24106071810823    2.54939598728934    2.16182894823437
N         0.73559794606321    3.05788725142496    0.05163620884260
N        -2.40729151151210    9.25898909893233    3.56623914955397
O         4.63106526955014    4.49547321196061    7.08169511286945
O        -1.34830203218342    8.12963635217653    0.45485918216068
O        -2.44092872494649    2.36663387238829    3.15126216724064
O        -0.41119608600078    1.10372811152158    4.89719794863347

