85
CSD_code = AKEHAB | q = 0 | S = 0 | Stoichiometry = C45H31IrN6O2 | MND = 6
Ir        8.87999696216258    9.77485919440072    3.13398526500812
O         8.08200287317406    8.16251293907558    1.88275126853510
N         7.39086971331914    9.81150111432231    4.48901834302022
N         6.70728455291492   10.29360564608341    6.55106297778559
N        13.24108027989925   14.24143753892169    4.94899953165755
C         7.66522745920000   10.49128043196409    5.60047212323162
C         6.21220863604953    9.15100163494647    4.69603820192558
C         5.76706139302983    9.44532170023858    6.00271086767324
C         4.60284226241371    8.89511941794887    6.51663248408910
H         4.27782168031900    9.10674023752946    7.52385278996403
C         3.88117788936965    8.06445223709580    5.68289005976928
H         2.96746301982375    7.61833324568430    6.04536099591455
C         4.30106540684173    7.79008569350063    4.37890794192349
H         3.69564013306939    7.14280235469502    3.76251135881633
C         5.46378878158213    8.32313939117631    3.86556066367596
H         5.79539588697865    8.12054952303869    2.86114302464778
C         8.83136424558685   11.33908640636216    5.57939651709995
C         9.58446141223974   11.18511813439816    4.38662373082452
C        10.72883547627374   11.95840928759318    4.25716925950289
H        11.34967929923186   11.87477603264936    3.37618084133680
C        11.10667941305230   12.86253755466780    5.25239434810718
C        10.32937490079417   13.02204580663230    6.40288814290423
H        10.62377062528079   13.73866319548034    7.15519169229411
C         9.19294693035782   12.26092718821251    6.56305842721330
H         8.58678661239472   12.39228910836342    7.44652287038998
C        12.28202262800686   13.62636169615377    5.08701513226138
C         6.69070015550050   10.72816070067655    7.89280300781514
C         7.73449457965474   10.38607887496045    8.74554601688632
H         8.56715132331716    9.81498973674668    8.36291097535602
C         7.69566453403951   10.78912168881893   10.06759173997046
H         8.50704787610074   10.52807833725309   10.72983325803129
C         6.61791995145217   11.51959135024650   10.54238187856126
H         6.59070255013030   11.83055831050301   11.57552080436281
C         5.57596230237256   11.85056038351870    9.69242253396172
H         4.73661251621542   12.42077695481443   10.06051150253554
C         5.60700011237331   11.45668718099413    8.36610558464476
H         4.80466646562114   11.71868460715080    7.69282600061798
C         8.22188611425238    6.93006148518427    2.07423990371821
C         8.87980808840511    6.30144772587971    3.13439603220577
H         8.87972729247352    5.22135984401214    3.13452455481216
C         7.59352979212146    6.00920828701417    1.04093481255446
H         6.86030992777247    5.36105313748209    1.51690464443112
H         8.35826137351166    5.38325550807142    0.58550579135054
H         7.10522386519400    6.59991990342399    0.26929184122888
O         9.67786207813197    8.16269370091916    4.38562111545478
C         9.53779860867940    6.93021538816459    4.19441651620204
C        10.16596200823017    6.00949313827821    5.22795595482183
H        10.89942523353768    5.36144314213420    4.75221592295043
H         9.40120370117033    5.38342769428213    5.68318597581161
H        10.65396883465452    6.60030307490202    5.99970954559636
N        10.36924664624203    9.81129859866452    1.77914384566832
N        11.05366175049439   10.29374512324229   -0.28253840637708
N         4.51812743719578   14.23973694859591    1.31699647852657
C        10.09522018412837   10.49109406796509    0.66761778016428
C        11.54817508262772    9.15112025781614    1.57262307235717
C        11.99385571036941    9.44567303015304    0.26618566142914
C        13.15849454598549    8.89588063264242   -0.24722607206260
H        13.48394956124310    9.10772474562331   -1.25426025419225
C        13.87999657378640    8.06533923407424    0.58678244048711
H        14.79402838460265    7.61954099246306    0.22471556649996
C        13.45955096457213    7.79070961463672    1.89053047616686
H        14.06485742501008    7.14352868366730    2.50715301844619
C        12.29643043295003    8.32338181513863    2.40337387574139
H        11.96439679840634    8.12059529343407    3.40761059223082
C         8.92888597810726   11.33863636314643    0.68826446732507
C         8.17557822728652   11.18476244063616    1.88092007763232
C         7.03094557919395   11.95773823052252    2.00993784359357
H         6.40995770854637   11.87415295738033    2.89082791352315
C         6.65303189094570   12.86148185744331    1.01438540222720
C         7.43054078001752   13.02093229726769   -0.13597575241622
H         7.13607087099569   13.73724084939417   -0.88854518528960
C         8.56723097792954   12.26011370977475   -0.29571185754248
H         9.17350248222519   12.39138548359143   -1.17911250459115
C         5.47735600609865   13.62495987657177    1.17928321631723
C        11.07085026609063   10.72845707743508   -1.62422729823898
C        10.02782119123859   10.38582525865365   -2.47768280168675
H         9.19524934233703    9.81421603652741   -2.09563914060433
C        10.06728617052768   10.78899036557774   -3.79967318097155
H         9.25649711839110   10.52751549846705   -4.46247106603912
C        11.14489961083572   11.52015589157066   -4.27368863229888
H        11.17261665105711   11.83121020629059   -5.30678792715721
C        12.18610012461359   11.85167483351940   -3.42301617632649
H        13.02534878527350   12.42242510233394   -3.79050695439320
C        12.15443048224086   11.45766200539622   -2.09675557541871
H        12.95617050015403   11.72006775382414   -1.42292771618162

