93
CSD_code = AKEHEF | q = 0 | S = 0 | Stoichiometry = C47H35IrN6O4 | MND = 6
C         4.82030872702883    6.34473823233419   17.07639400755770
C         4.58023162119810    7.70485883220147   16.91354258302137
H         4.43293914499214    8.11424603119603   15.92812523235885
C         4.54107555347698    8.48481607309236   18.04998750475067
H         4.35878181104521    9.54522582115573   17.96075544677402
C         4.73471363532357    7.93924225517608   19.32104020413283
H         4.70426714117695    8.58936912953173   20.18226622029638
C         4.96134147237705    6.58897035693465   19.50302207586621
H         5.11288791642003    6.16810533231708   20.48527906142813
C         4.98949659226311    5.79673811004925   18.36618378617779
C         5.13392346339750    4.20588195174009   16.84670634004720
C         5.18769361137856    2.98169740937945   16.09014909788993
C         5.13026500989084    3.20578754862759   14.68803671923559
C         5.16973820929490    2.09413398396569   13.85515297852873
H         5.13506747212673    2.24648597568332   12.78763720539755
C         5.25282862167222    0.79989427106458   14.35523412036939
C         5.27598258042589    0.60349809498912   15.75363158996671
C         5.23930665349043    1.69591737423237   16.61113527663220
H         5.24782263865140    1.51519993710896   17.67564842241972
C         5.51786941838139    3.54525134128836   19.22715877191403
C         4.64145991987188    3.37159395385887   20.29034980703940
H         3.69904988127584    3.89877424258667   20.29763526369121
C         4.98050689209241    2.51334463615000   21.32173069752115
H         4.29772444531986    2.37306996614377   22.14594482803139
C         6.18605568612972    1.83279379556766   21.29414502238043
H         6.44451425098378    1.16098261618235   22.09805768427247
C         7.06067537261114    2.01266577810284   20.23446045939452
H         8.00117726577885    1.48396906462839   20.21267167419795
C         6.73424613674643    2.87207013102182   19.20177229147551
H         7.40647911531826    3.02236992597492   18.37034157654302
C         5.34404973805575   -0.69720136984728   16.29261847954433
C         5.29611541132137   -0.20621408559284   12.20042571694675
H         5.36425061924350   -1.22534092576884   11.82326183904210
H         6.15092449865553    0.37431886292832   11.83943337714068
H         4.36781219976289    0.25227998648567   11.84543843955699
C         7.99367234071459    6.31720695483361   14.55754934177192
C         7.59958108113911    7.60067066657876   14.17107219138218
H         8.36326279725395    8.36445359804800   14.17194813670987
C         9.45654753934088    6.15608750796951   14.93766624994209
H        10.09069074797690    6.41557897336068   14.09211165644624
H         9.65007926793516    5.12661073950658   15.23011768981219
H         9.70260558634246    6.81833674044923   15.76509496040898
Ir        5.14647510016306    5.14755390643023   14.16848100893896
N         4.92087785598049    5.32987946410734   16.16602458445763
N         5.18845406513011    4.44186571589990   18.18860127853416
N         5.40481490518871   -1.73935464327986   16.76927887546527
O         7.28428051855131    5.28355032384878   14.61711091035200
O         5.30800994853976   -0.32372974942138   13.60266821969194
C         6.31655382770138    7.99501395906521   13.78341629173881
C         6.15581966454566    9.45815995105362   13.40417517539562
H         6.41419876537894   10.09156427533004   14.25071020572554
H         5.12663442301008    9.65183478539800   13.11053923295884
H         6.81917828505936    9.70497978534258   12.57774692217373
O         5.28304208986968    7.28561323899866   13.72187954405100
C         6.34445135551944    4.82063908467311   11.26144523716764
C         7.70456855721041    4.58110504541315   11.42501552926708
H         8.11357212613081    4.43462718077047   12.41071637298926
C         8.48493070826341    4.54121612493596   10.28889437158668
H         9.54532384263887    4.35908091057500   10.37864624005637
C         7.93972292957519    4.73365728649130    9.01749833435140
H         8.59015654621211    4.70262589501361    8.15652860842675
C         6.58945907599968    4.95984373121967    8.83485224029860
H         6.16890752648687    5.11051014116289    7.85232731103916
C         5.79681679062736    4.98874034261465    9.97138391869569
C         4.20544174899856    5.13423498155991   11.49027203358020
C         2.98110450448698    5.18866641952667   12.24663741976560
C         3.20491051152202    5.13141235243326   13.64882571031873
C         2.09327307290680    5.17168796587771   14.48164747597325
H         2.24561610854031    5.13726101657650   15.54916242262150
C         0.79912644288065    5.25523097647517   13.98146595769349
C         0.60287870016512    5.27815717162056   12.58304598248645
C         1.69535951705627    5.24086524017086   11.72559949042867
H         1.51468276457244    5.24923068769135   10.66107796229888
C         3.54549479285610    5.51562396408371    9.10914543774612
C         3.37227875385313    4.63768989636277    8.04714389247911
H         3.89956376882187    3.69532637523351    8.04136813797864
C         2.51436891831478    4.97518269141113    7.01497669587281
H         2.37444362977873    4.29120938932784    6.19169055150188
C         1.83371701083508    6.18071808828487    7.04058709724824
H         1.16219782782346    6.43798371196450    6.23604730479027
C         2.01314753864958    7.05686763929974    8.09908199768404
H         1.48440083659023    7.99737815712266    8.11931319014821
C         2.87219958758537    6.73197485097987    9.13255766197779
H         3.02218172088571    7.40543876264200    9.96304938471742
C        -0.69769454649628    5.34670737745568   12.04383002082125
C        -0.20678165673533    5.29864853505969   16.13627173784140
H        -1.22581752837972    5.36722719444345   16.51358890763882
H         0.37427302868095    6.15300449030665   16.49750287999759
H         0.25125389884463    4.36996751740330   16.49087827233499
N         5.32927734300655    4.92158984913908   12.17135063567347
N         4.44185750874233    5.18769818873445   10.14840305350345
N        -1.73947203586996    5.40759465992119   11.56646010877407
O        -0.32445476458113    5.31106527199687   14.73404413472636

