36
CSD_code = AKEHII | q = 0 | S = 0 | Stoichiometry = C8H16BrCdN5O5 | MND = 7
C         0.60706466776489   10.13476907567293   10.03849125512694
H         1.23031116389032   10.54583048477239   10.83549120398045
H         0.31500986826423   10.95335300261547    9.37972976018318
C         1.37833145537884    9.03457953280407    9.27148781651963
H         1.67204687181009    9.37461527057828    8.27663033417446
H         2.27201583261386    8.72980467547917    9.81969026162656
C        -0.26185026196231    8.40016515896510   11.40590020900327
H        -1.15058541046316    8.08390476610707   11.95450517843368
H         0.49805069720766    8.67869741023104   12.13770756198984
C         0.24338476756803    7.27189580685145   10.47548400497279
H         1.17072586479796    6.84091990324916   10.85650079718494
H        -0.49681689725120    6.47557611378656   10.37169606383546
C        -1.51494441260001    9.20525279265644    9.56675198901202
H        -1.86472819670823   10.12229820670811    9.07815541535911
H        -2.37560415529574    8.70662699643501   10.01512605854696
C        -0.80214947645550    8.28357696203384    8.54801853787098
H        -1.40318334330446    7.40070757213344    8.32123870133375
H        -0.59631425281683    8.81251625716504    7.61548720530810
C         1.13794499973469    6.82949831201508    8.26880628611388
H         2.11154146833994    6.55609139785332    8.69195005583627
H         0.50976238744504    5.93215189150727    8.22710320132159
C         1.34666695838862    7.30484248603448    6.91392643864522
N        -0.59341721866619    9.57187472134594   10.62166381672004
N         0.49537608326488    7.84607338958779    9.12914531004517
N         1.51470071974176    7.66583780457888    5.84563378189789
N        -3.48561496562704   10.16924370674672   11.93686866404347
N        -0.88844814807603   14.07103679803857   11.47836297830560
O        -2.69210357614968    9.83540351303425   12.83648907744072
O        -3.32765863810257   11.30483911935193   11.45705850228734
O        -0.61925319481615   12.99511126278813   10.89153032268185
O        -1.34973128649634   13.96815432080512   12.62100486760769
O        -2.29385303868997   12.04236558703613    8.83727708047699
H        -1.64268494526588   12.57937997299950    9.31161485455895
H        -3.05848769049661   12.01967492754515    9.42495468439979
Br        0.91209975555294   10.87431228780894   13.52335215070208
Cd       -1.32270445243740   11.70541851266442   12.64026557253107

