48
CSD_code = AKENEJ | q = 0 | S = 0 | Stoichiometry = C19H26MoN2 | MND = 11
Mo       -0.00004304334967   -0.00004410779255    3.72481379662985
N         0.78892877723677    0.72566918205102    0.79757465983807
C         0.00000403441209    0.00001385478118    1.60610584778560
C         0.49821186253671    0.45816507827001   -0.51203339901458
C         1.79632421057573    1.65078696392146    1.26737745079194
C         1.47670646032788    3.06729169906720    0.79910534158280
C         3.18166338182305    1.20565992513505    0.80837845462378
C        -0.55312191828581    1.66230885556915    5.16389908304254
C        -0.51301467370838    2.26984317444904    3.89432525719195
C        -1.51092825237529    1.62653879818817    3.10432846720656
C        -2.22104464016142    0.69122681948415    3.91191778369283
C        -1.59733243334553    0.69635755324347    5.17467555410009
H         1.00515428729126    0.92442955772731   -1.33140645967392
H         1.72912154829612    1.59428799777451    2.36027874507418
H         2.16964407681924    3.76854888723626    1.25507517312237
H         0.46529661628187    3.33989390041219    1.09064915799381
H         1.56244980690381    3.15243774683091   -0.28240863423359
H         3.36491593641853    0.17750252105093    1.11088711703786
H         3.27761528655456    1.27302183631256   -0.27355822593252
H         3.93845485698758    1.83993509185769    1.26089527159636
H         0.00453522520814    1.99084333360212    6.03020647981524
H         0.05780475553838    3.14189264672802    3.61975068713104
H        -1.85667978352196    1.99038982161552    2.13510377084754
H        -3.13630043711840    0.18474851255130    3.65242150888058
H        -1.95935040658629    0.17614889824128    6.05101476424220
C        -0.49821086431608   -0.45816303819321   -0.51202718036072
N        -0.78892130718703   -0.72565484762770    0.79758521619969
C        -1.79631411528549   -1.65077815915991    1.26738997865564
C        -1.47671204872991   -3.06727926961279    0.79908967250531
H        -2.16971900538423   -3.76853850525302    1.25495380062927
H        -0.46533940829385   -3.33992727556292    1.09072216533738
H        -1.56234476126114   -3.15237704438460   -0.28243956153888
C        -3.18166400851481   -1.20566996986068    0.80840168860337
H        -3.36487292366986   -0.17747629064240    1.11081686856440
H        -3.27767972283648   -1.27314319938947   -0.27352493571023
H        -3.93845006700042   -1.83987725511180    1.26102890931630
H        -1.72911568529334   -1.59428761577491    2.36029145666526
H        -1.00515666619534   -0.92443987713771   -1.33139220332422
C         0.55314230832448   -1.66232346239362    5.16390676675967
C         0.51303292963520   -2.26986038214628    3.89433454670821
C         1.51093111804463   -1.62654027235853    3.10432798487435
H        -0.05778926725432   -3.14190819866033    3.61975883092551
C         2.22103404697936   -0.69121090287728    3.91190615740438
C         1.59732605411417   -0.69634146619753    5.17466409653278
H        -0.00451010556142   -1.99085401832989    6.03021956609432
H         3.13628847728231   -0.18473143918262    3.65240715401533
H         1.95934745598530   -0.17612844404713    6.05099928358410
H         1.85668203165917   -1.99038761440369    2.13510208418657

