60
CSD_code = AKERUD | q = 0 | S = 0 | Stoichiometry = C28H24Br2N2O2PRe | MND = 6
Re       10.03685091083584    0.24331165809836   10.00390475385512
Br       11.48070946203747    0.00392020331025   11.94926828667654
Br        8.65680117746769    1.82690156878712   11.30566117320075
P        11.14313815542863    3.78630977032439    9.39523365245723
O         9.02360955556877   -1.05645609460940   10.21078934503673
O        11.20627599069438    2.29530732514372    9.46717082709351
N         9.31869863594564    0.76789310176356    7.99770562448964
N        11.56252666994469   -0.26815137369564    8.88933717406467
C         8.12314078120251    1.14591899386147    7.58926426785447
C         7.94059461890524    1.61420969776087    6.27186598142500
C         8.98681879830921    1.65505996539539    5.39481417671480
C        10.24766084310246    1.16572442200318    5.79307426073183
C        11.37654654735806    1.08728580394265    4.95747176144578
C        12.54457690724261    0.54125785723672    5.43213828302973
C        12.64922766561598    0.05486167041571    6.73310348814649
C        11.56898729685569    0.13494336208879    7.60538234148258
C        10.35441873624758    0.71394338849791    7.12783923878043
C         6.95281869777375    1.03755357127817    8.50260569572615
C         9.78341112670195    4.32587058975307    8.31040138847879
C        10.02979097683529    4.49064718234915    6.95355719125588
C         8.99297438609823    4.82569880953696    6.10120919562587
C         7.71021934622388    4.98332513804247    6.60051713348736
C         7.46252067225793    4.80335066857946    7.95191054303255
C         8.49681304044610    4.47637121203390    8.81176931935729
C        10.97967638718056    4.57533327735409   11.01432079341817
C        11.49713843467390    3.89571473916843   12.10986592101700
C        11.41101241938379    4.45797986026875   13.36976485205427
C        10.82275976608872    5.70140691905258   13.53109124849757
C        10.32221522214691    6.38611707651765   12.43473017021875
C        10.39880075050310    5.82723045467171   11.17263979588625
C        12.67390781284653    4.39758210610822    8.64067698588626
C        13.56330531324624    3.48725105494105    8.08830025505910
C        14.73256702187029    3.93578964941240    7.50019297041065
C        15.01157505219230    5.29202553478987    7.46789928423735
C        14.12411999008287    6.20161835491998    8.02353880547453
C        12.95437448638901    5.75758214438808    8.61102272622598
H         6.95546156252721    1.94098485112105    5.97844426752012
H         8.85661707262555    2.02793982755560    4.38943782724815
H        11.30279684979394    1.44717563402312    3.94307853985392
H        13.40632598396390    0.47680697696171    4.78411500561430
H        13.57294766125872   -0.38895628791821    7.07549831700725
H         6.81832132028373    1.95972187712539    9.06791955723285
H         6.04826876516431    0.85071513748472    7.92913042999756
H         7.10172379774681    0.22693717786545    9.21591289152982
H        11.03423972438585    4.36018171705314    6.57218592899898
H         9.18702536137487    4.96524055577193    5.04791791932251
H         6.90226996852825    5.24616731149220    5.93377780069471
H         6.46222451952928    4.92143825450549    8.34082104697909
H         8.31128401486381    4.33005419191619    9.86681703087624
H        11.94838347199465    2.92260925201664   11.97831143773006
H        11.79601885532924    3.91929643836852   14.22141261404635
H        10.74884625017159    6.13900571136449   14.51533408441878
H         9.86341542534228    7.35523737532213   12.56462022743590
H         9.99662520025016    6.35156441982945   10.31674089955232
H        13.32991405106145    2.43276860462538    8.12431477309908
H        15.42541382542799    3.22834369287790    7.06943802713814
H        15.92478569159554    5.64327504635588    7.01107991442914
H        14.34735563094809    7.25791434388914    7.99912389948712
H        12.25767272799690    6.45727755689562    9.05020977750733
H        12.43007861212955   -0.68638932998711    9.21351887044433

