59
CSD_code = AKERIR | q = 0 | S = 0 | Stoichiometry = C28H24Cl2N2OPRe | MND = 6
Re       -4.94331384649716   -2.72171678669023   -3.47304618972441
Cl       -4.28880656666950   -2.73714816232707   -5.67259920656651
Cl       -6.45584135706255   -1.05603059901405   -3.97369030423026
P        -3.12582624214058   -4.38147588670120   -2.89861649237590
O        -5.89695874010276   -4.09591891296640   -3.40991971804770
N        -5.22615944028658   -2.13634917347731   -1.37250376123398
N        -3.51806087533329   -1.34908096223682   -3.14603834068214
C        -6.19192727894730   -2.51395626504593   -0.55267442739301
C        -6.14660364360747   -2.15455052860483    0.80979503853512
C        -5.13253920184293   -1.38145610190496    1.30031415387270
C        -4.12631321850079   -0.92377119218310    0.42437511737124
C        -3.04422094593932   -0.10653849251770    0.79588579794626
C        -2.12393280520789    0.28851557771494   -0.14777277100097
C        -2.22848968355896   -0.09820447519432   -1.47995968441075
C        -3.27770414469300   -0.91494722131486   -1.89542732054047
C        -4.23202983028826   -1.34168092536298   -0.92198520962119
C        -7.34280787540478   -3.29083369516264   -1.08142619740896
C        -3.40926591840869   -4.98796340096537   -1.21466756247267
C        -3.07273373668317   -4.19027939738893   -0.12189130769738
C        -3.43208413652528   -4.57527522370054    1.15564938622163
C        -4.13898420809935   -5.75061497704625    1.35467136823030
C        -4.48493088119123   -6.54168813762531    0.27134103523783
C        -4.12803782249639   -6.16244500435501   -1.01002450037942
C        -3.06033337094824   -5.88041177322187   -3.92307874531851
C        -4.09933802632545   -6.17995909888812   -4.79598963713629
C        -4.03483965778429   -7.32208488791431   -5.57495407238675
C        -2.93728540372457   -8.16215278392749   -5.48597185985575
C        -1.90032246215012   -7.86396286617174   -4.61516439692418
C        -1.95656867892558   -6.72524511444886   -3.83410585533641
C        -1.42031801862722   -3.77305964395644   -2.98460137642327
C        -0.46479078667580   -3.97029754051256   -1.99480239050659
C         0.81228871075122   -3.46389352167925   -2.16479323343000
C         1.14169108694169   -2.76779609109779   -3.31587377082209
C         0.19587009214693   -2.58940333714958   -4.31363778033405
C        -1.08178044317645   -3.09127990747253   -4.15256748803714
H        -6.94137950299174   -2.49482332055489    1.45504067523218
H        -5.09750129475777   -1.10240791905551    2.34316502575765
H        -2.95365056472633    0.20830671859900    1.82383115521037
H        -1.29704189530514    0.91821669975743    0.14665185269263
H        -1.49791082935530    0.23338049663928   -2.20330635557698
H        -7.99464765903174   -2.62423272238256   -1.64759296912015
H        -7.91047346389734   -3.75709649944178   -0.28151538160414
H        -6.99297494762338   -4.05277104312543   -1.78352387500422
H        -2.53505385680008   -3.26505917424226   -0.27644963988524
H        -3.16664265590913   -3.95179627886972    1.99686225536059
H        -4.42392952264003   -6.04629136815050    2.35329865553021
H        -5.04045268922843   -7.45490059077272    0.42505972811835
H        -4.40843576492473   -6.76954636289705   -1.85901256048012
H        -4.95022443531441   -5.51419496783027   -4.85817120201849
H        -4.83998230494029   -7.55313411788340   -6.25579939334948
H        -2.88584642406081   -9.05044128309028   -6.09800262600564
H        -1.04471982994944   -8.51976093102935   -4.54762389216669
H        -1.14770079475407   -6.48642068682052   -3.15728369447373
H        -1.83105296330780   -2.96557150571586   -4.92501430181912
H         0.45520126676320   -2.05802906823398   -5.21725899921963
H         2.13849070764217   -2.37069249341203   -3.43804879450681
H         1.55361769564295   -3.61563957994927   -1.39387274102609
H        -0.71078269617428   -4.52283035660612   -1.09923458510780
H        -2.87590621637329   -0.95480713442040   -3.83194663364372

