95
CSD_code = AKIHOT | q = 0 | S = 0 | Stoichiometry = C49H41NOP2Ru | MND = 8
Ru        2.28266333311919    6.62071803855469   13.63555912043669
P         0.68760178124423    6.99617999295505   12.05502399058949
P         0.97490448468230    6.54060203690853   15.47908315787562
O         0.32806110192852   12.56009820717461   14.83280570758558
N         2.83495539164688   11.36773253063912   15.97329228834665
C         2.46814453587968    8.58807999907316   14.01017380065035
C         2.74092026150612    9.74476099709006   14.22666053496154
C         2.96766969667032   11.15143531576791   14.54595734112470
H         2.22739794204147   11.76972342583008   14.03147042401954
H         3.97588737209465   11.45658437596934   14.23711921801572
C         3.73229276308300   10.95763066805664   16.88117872724953
H         4.64437909804858   10.47736651674501   16.57959397803848
C         3.27820787465923   11.26455642389476   18.15052081948787
H         3.78737961141724   11.06198664902480   19.07223078822051
C         2.04572934962535   11.88661494104197   17.99298463039663
H         1.41173877800366   12.26722499311914   18.77033305117933
C         1.77225960625904   11.94049991599139   16.62407495272177
C         0.60365097331154   12.49901285010393   16.01488494343654
H        -0.09236793937590   12.92014846121409   16.76918994217945
C         4.45892686665228    6.44456329238760   13.07647943591357
H         5.14893894158587    7.23165118662981   12.80050927802719
C         3.70611234491881    5.65440007945148   12.18119768960508
H         3.74960798001771    5.71630920776695   11.09981747639337
C         3.06859722561232    4.61910139408902   12.92779740791980
H         2.56596285030652    3.76014603041969   12.50249540954306
C         3.42254006236428    4.78826485793690   14.27904719771359
H         3.19508631050001    4.10448814409805   15.08879976646633
C         4.26466108103468    5.93156150642383   14.38625517112288
H         4.82501625734429    6.21509066453176   15.26811459974011
C        -0.65141938732949    8.24304930833309   12.07996242271535
C        -0.45175590783088    9.39361667064610   12.83403965851677
H         0.43033269880956    9.46298608609645   13.45541003344500
C        -1.36953118478563   10.42780896264708   12.79180329647849
H        -1.19236797115383   11.31718491786577   13.37744408467164
C        -2.49924538568307   10.31379901905268   11.99946743973815
H        -3.22137310366328   11.11665918529915   11.96368794843215
C        -2.70291608404895    9.16907458878582   11.24436768490039
H        -3.58262174589340    9.08104557180502   10.62218035190673
C        -1.78003311470193    8.13975307300364   11.27171546821640
H        -1.94342181174545    7.25703200665629   10.66920846085439
C         1.39092224512116    7.55077245470232   10.45562706051699
C         2.49192841764922    8.39875743060583   10.51493828318898
H         2.90114300209914    8.65376378799094   11.48658458747725
C         3.04571303879266    8.90676851985198    9.35431459237258
H         3.90287099052534    9.56243996292261    9.40683108449557
C         2.50174412845772    8.57384629285572    8.12449583934546
H         2.93707293934063    8.96263575418535    7.21543120336636
C         1.39281415106935    7.74590937046113    8.06152926711064
H         0.96140326652745    7.49331786078459    7.10337592800829
C         0.83081101330860    7.24191980602435    9.22065801433882
H        -0.03806557733234    6.60171910632469    9.16119975469061
C        -0.18735770191724    5.46097922687474   11.59812732116584
C         0.43028152804128    4.52585920792031   10.77013555195824
H         1.37827774458514    4.76819713705168   10.30744354913066
C        -0.16388583207729    3.30107667361558   10.52980716525717
H         0.32036933414144    2.58607574712636    9.87943310392643
C        -1.37698786483659    2.98817019240204   11.12257169801320
H        -1.84033863462316    2.03086684451357   10.93308733674863
C        -1.98996161653256    3.90425333169646   11.96163043058572
H        -2.93117876519586    3.66166692337167   12.43355248823116
C        -1.39538308559834    5.12822643750423   12.20497079973252
H        -1.87168549923383    5.83838009487096   12.86675016323442
C        -0.16086565572783    5.12485053386518   15.71719529317337
C        -0.08496375566030    4.03977722206564   14.85561156820808
H         0.62513276374502    4.06456768107747   14.04013029052775
C        -0.91421340489506    2.94537400211595   15.02748290817733
H        -0.84778034854345    2.10697912242581   14.34907577777441
C        -1.83048676493464    2.93170559403765   16.06447149120477
H        -2.48187666567017    2.08074787538301   16.20087980888831
C        -1.91293123722703    4.01238414097351   16.93023488607954
H        -2.62712366220088    4.00050945807678   17.74102782597791
C        -1.08324170940133    5.10428528329605   16.76168141300303
H        -1.14339225634573    5.94619701769199   17.43798487382238
C         2.03672258888313    6.40402900040891   16.96109570753717
C         1.98951228614804    5.34585079715614   17.86037104112695
H         1.27058550671092    4.54945360895039   17.72830563879190
C         2.87091185483973    5.30385740928328   18.92811909095007
H         2.83129675148002    4.47528482712951   19.62081817914754
C         3.79971541999669    6.31365915116196   19.10997451409023
H         4.48195864023356    6.27663694820815   19.94678161901394
C         3.86059387133705    7.36519002823470   18.20824575725641
H         4.59053512515165    8.15080160816332   18.34091892704084
C         2.99321454402030    7.40430404221940   17.13375723410184
H         3.05235768811890    8.19873387019034   16.39889076180581
C        -0.16309928483822    7.88985967728974   15.95897641374874
C         0.10607734824771    8.84865363873985   16.92681555591424
H         1.03760179781614    8.83121422192629   17.47278212298643
C        -0.83334622777469    9.82544996523690   17.20994108914035
H        -0.62391641635446   10.55467036173645   17.97825992003376
C        -2.03504265710693    9.86624960170880   16.52512368338282
H        -2.76028457566678   10.63452129414626   16.74862511029674
C        -2.30739747937180    8.91552547831415   15.55483783289381
H        -3.24265408493246    8.94121443212963   15.01509304434895
C        -1.37704148894508    7.93462907241361   15.27769998855828
H        -1.57973867160551    7.18098877749632   14.52825770924549

