64
CSD_code = AKIKUB | q = 0 | S = 0 | Stoichiometry = C27H28N6NiO2 | MND = 4
Ni        7.82290631829415   11.26292454783018    4.28229952680507
N         5.91145586984171   11.32490314882047    4.02727932814440
N         7.03804391690771   13.55430101395571    2.79317536099276
N         8.73947344069898   12.73256693952307    1.78083539246093
N        10.86021527853777   11.44736247147288    4.22994857717509
N        10.03451480060528    9.56756742068303    4.84586935905540
N         7.56973200162237   10.28883964580610    5.92716171402443
O         3.93303732454504   12.39483160935492    3.65045219967168
O         7.91965134843333    8.53000499808704    7.33576227979601
C         5.22970035316500   10.04095060039866    3.96800394028986
H         4.31667225565121   10.17506514135703    3.36618743955383
H         4.91355149268677    9.71757362137483    4.96753411392539
C         6.08930867419237    8.97518067674266    3.34955995102440
C         6.94914796131353    9.27833377615809    2.29471748544257
H         6.95355058002074   10.27871520955951    1.87771476498472
C         7.73262090596531    8.29087488587756    1.71792161481249
H         8.39245044602428    8.53693315081214    0.89647648380767
C         7.65802217710466    6.98597900566506    2.17524516804845
H         8.26527732221933    6.21544201084217    1.72242535100340
C         6.79129635902251    6.67237510014506    3.21074855706359
H         6.72345163578930    5.65503871658131    3.56723144728901
C         6.01904972387015    7.65990874111136    3.79669265693789
H         5.35724959566964    7.40954307367371    4.61259560183118
C         5.15030324975895   12.37901129695104    3.80864395987429
C         5.93860473449442   13.71272982706705    3.70210591834773
H         5.26337970515528   14.48472683493913    3.33076471293719
H         6.30221111421660   13.99214991829123    4.69223861295650
C         7.94228327992286   12.55858696753332    2.86459898068632
C         7.25373372121453   14.33058273738112    1.69345856528954
H         6.63192849174858   15.16730959567372    1.45043258541865
C         8.33341015727050   13.81927341157421    1.05559096169711
H         8.82631215600331   14.12502245520327    0.15584401611127
C         9.93315319488871   11.98571529352843    1.49039636904674
H        10.06494906538811   11.92991216034584    0.40689622091175
H         9.80713175549688   10.97368943674815    1.88498171430269
C        11.15604608155273   12.65699234195366    2.12889516732653
H        12.04463139545514   12.07432114177887    1.88092358579488
H        11.27920238003955   13.66221575177912    1.72279372603891
C        11.00913253807652   12.75570558481837    3.65287217017093
H        11.89299007426760   13.23632916035144    4.07971919736117
H        10.12511653659413   13.34533210948479    3.91105729478288
C         9.68504692985533   10.79746208534300    4.42226595190277
C        11.91565044840194   10.62971380624042    4.52876982494595
H        12.93280963069516   10.95418694702560    4.45025712296520
C        11.39006690168880    9.44627146301238    4.92522187428500
H        11.86766739906402    8.54711679881181    5.25570812287013
C         9.10000288795149    8.55467317517001    5.24652180293537
H         9.63466663567202    7.72440589252766    5.70988112931328
H         8.54139924117294    8.19079395390782    4.38238385211856
C         8.10487055464747    9.13841231036157    6.28565446070867
C         6.75517229775811   10.93823940933588    6.94294608262355
H         7.08236076108869   10.56019700895235    7.92475065904870
H         5.69751325865026   10.66927253681096    6.82971970474330
C         6.89480701972474   12.43349416166190    6.90752054863994
C         8.12181122256668   13.02726085331735    6.61467699769757
H         8.99667607428014   12.40473230679693    6.46495036183443
C         8.25050480109806   14.40752088094142    6.59883465220539
H         9.20875327319614   14.85759114878638    6.37560605450199
C         7.16143578995568   15.21272694659151    6.88760341101414
H         7.26302219134773   16.28848763419518    6.87938611502469
C         5.94207088987870   14.62984244520902    7.19641292328770
H         5.09062290192988   15.25231330215306    7.42919528953179
C         5.80921224864885   13.25255194538149    7.20004332789915
H         4.85275722700100   12.80671145623226    7.42983765670833

