114
CSD_code = AKIMOX | q = 1 | S = 0 | Stoichiometry = C60H46Br2ClIrOP3(1+) | MND = 6
Ir       20.92808217752509    0.97877050735600    4.07433328529869
Br       18.39544859125253    3.16967180365807    7.48587191308595
Br       23.16320099139329    3.21646030095789    6.15561818629624
P        21.06912277022503   -0.64932818855771    5.72010740388485
P        20.84148082529498    2.72166416302926    2.47603937792940
P        16.51833258220806    2.00395192617114    5.11348417004873
Cl       21.01783244008856   -0.76061440620144    2.38059310334774
O        23.94449909258494    0.94814713931988    3.69650765867923
C        18.89238594675622    1.00102984015466    4.01449766327763
H        18.26477172182051    0.56717383754915    3.23890391305463
C        18.28959036852348    1.70440420585571    4.99741374910550
C        19.19887121161685    2.25867085846364    5.98431033582938
C        20.51174596398970    2.07154893624309    5.80495486175362
C        21.47727062584030    2.40469800208190    6.87756032597617
H        21.08787812434556    3.20158178485454    7.52024571970597
C        22.84122323429034    1.01864819824307    3.96014484019339
C        19.54280269074866   -1.55278665364643    6.11219791799205
C        19.12543344904963   -1.83317483310999    7.40883610657265
H        19.67868410160188   -1.45477766763551    8.25643443845115
C        17.99552026919759   -2.60713137172061    7.61465176791860
H        17.68847564593243   -2.84430183569459    8.62196182410079
C        17.27005937100189   -3.08969081377004    6.53865262809036
H        16.39436314667076   -3.69762856324795    6.70708797723859
C        17.67187811416770   -2.79340472495228    5.24538619794776
H        17.11189793091363   -3.17573657432684    4.40457393388063
C        18.80168362580710   -2.02575189915186    5.02929140968524
H        19.12144647899041   -1.78878437484098    4.02313950896925
C        22.25435944861293   -1.95175718713191    5.26845718538624
C        23.61092300865494   -1.67372602833310    5.43682016826109
H        23.91904156483240   -0.74407582190219    5.89851474389152
C        24.56072623513015   -2.58887048518595    5.02794823947806
H        25.60894397196668   -2.36809945822400    5.16076454438486
C        24.16685624367780   -3.78214876221421    4.44210287937962
H        24.91013635367071   -4.49288968372427    4.11509647534491
C        22.82106709649064   -4.06055104660484    4.27511624510784
H        22.51256407611402   -4.98878333157309    3.81864216116959
C        21.86246638323023   -3.14947458094747    4.68308629111594
H        20.81539512717935   -3.37336419372903    4.54463405265122
C        21.73272914052030   -0.10166115079093    7.32643268482102
C        22.14301042460537   -1.12110746771699    8.19097806816218
H        22.05243238648451   -2.14972942947615    7.86690891146270
C        22.66915654674863   -0.83536019560711    9.43381979027339
H        22.97980682529509   -1.63699934650223   10.08570160296510
C        22.80141504339962    0.48619302795186    9.83309105139092
H        23.21636457649327    0.72418198881837   10.79980493528325
C        22.40597142271978    1.50137783215724    8.98560066734132
H        22.52273336911039    2.53117478824267    9.29095698379554
C        21.86751634601583    1.22848632753982    7.72960009137618
C        21.10299304829297    4.31116446227162    3.31583675323232
C        20.08815748504259    4.81536534188750    4.12673394953747
H        19.14293684393905    4.29431787211648    4.18027444937714
C        20.28606716220693    5.96941208765612    4.85942084572402
H        19.49059248772809    6.35125664805757    5.48314589302176
C        21.50594924762532    6.62523879537727    4.79867543026216
H        21.66403771759082    7.52455455775144    5.37366471608749
C        22.52564784769248    6.11821901576240    4.01062521782067
H        23.48148269293785    6.61739059474089    3.97620882506454
C        22.33264807108083    4.96031280690662    3.27775227569270
H        23.13933056541591    4.55721409946230    2.68257353289131
C        19.29833268885353    2.89997187485573    1.52421768155792
C        18.80722708499177    1.74683041380144    0.91491553506677
H        19.32586140688131    0.80896807230166    1.06245480114426
C        17.67846678540901    1.80998952570651    0.12053664139973
H        17.29879105395306    0.91399302997179   -0.34688780467364
C        17.04293755578578    3.02468951812305   -0.08556779949013
H        16.16596273014368    3.07676401890173   -0.71258498122952
C        17.54517763537783    4.17652023389344    0.49571176706834
H        17.06164834475343    5.12610767814903    0.31897754668791
C        18.67253252090828    4.12053216339868    1.29952140934702
H        19.06263403479586    5.02442949778354    1.74695919267507
C        22.00897862298790    2.76087938942552    1.07891610993494
C        22.05247249207871    3.92580596142888    0.31159114486243
H        21.43175330180194    4.77043923679279    0.57836411858661
C        22.89117571798814    4.00169658965581   -0.78219433962827
H        22.92652939813944    4.90732750372158   -1.36880102535346
C        23.68324707258532    2.91665247402143   -1.12779808495565
H        24.33955338524656    2.97969155788116   -1.98221289547265
C        23.62287738168785    1.75192025125222   -0.38351253548460
H        24.22650181329622    0.90041958190988   -0.65826522190963
C        22.78484629975028    1.66829361635171    0.71616550965016
H        22.72269622489247    0.74535200859381    1.27105123597311
C        16.13501557851849    3.76903051510594    5.11395316598414
C        16.57421740814823    4.50591163279776    4.01615057873141
H        17.08606682830026    4.00450909169547    3.20419374429606
C        16.35029060675047    5.86956164841764    3.97274798930241
H        16.69520740997320    6.44275647684828    3.12576659034794
C        15.68902270293651    6.49508197386544    5.01815522860342
H        15.51724780946155    7.55982681738606    4.98507857470712
C        15.25214263626673    5.75904536347113    6.10886574032628
H        14.74223962415164    6.24979104951455    6.92325508921360
C        15.47573811337179    4.39524359383282    6.16584533152165
H        15.15659585905936    3.82426277359562    7.02582758801755
C        15.71274037588496    1.18339036083166    6.50615207476542
C        16.41818172724009    0.41839187724453    7.42490032128314
H        17.48892250261446    0.30413426248408    7.33147612762015
C        15.73714632298904   -0.19369599966729    8.46215256762607
H        16.28265296832907   -0.77321758693867    9.18995027378011
C        15.33242188948191   -0.78634547594304    2.46147292126091
H        15.43649447378804   -1.85636021789176    2.36735001847814
C        14.36343135200376   -0.05650921374719    8.57152623485955
H        13.83870593633494   -0.53177516287156    9.38578126025665
C        13.65691845926772    0.68628145049555    7.63686459773268
H        12.58532287857923    0.78327067359846    7.71892940977410
C        14.32750241271665    1.30660401129666    6.60079087068094
H        13.78897169527895    1.88682268100211    5.86255051515761
C        15.75457826972335    1.25271864071272    3.65907578203911
C        15.04756215196601    1.96986118417896    2.70243770745587
H        14.92088626621891    3.03827715142949    2.79877252477034
C        14.49430572459193    1.30303483489056    1.62270424154763
H        13.94110067606641    1.85801622366577    0.88089603619985
C        14.64449973973418   -0.06763307925584    1.49532646368667
H        14.21592443808995   -0.57978371406762    0.64770214874841
C        15.88024147296165   -0.13192601013621    3.54754898660778
H        16.40315988462989   -0.68312369988693    4.31895140880810

