102
CSD_code = AKITIY | q = 0 | S = 0 | Stoichiometry = C40H57ClN3Nb | MND = 5
Nb        9.25719147417277   14.68119591408375    3.76389762733519
Cl        8.39944240307999   16.35105886547922    5.20494343116769
N        10.76083427637620   15.58735621620495    3.51302964478446
N         9.97001952521824   12.90759968081904    2.82336970839974
N         7.68891897061869   13.31500436957203    4.60881232197301
C        11.84347289111821   16.47372642703916    3.68271379163090
C        11.40601903439322   17.87728589958600    3.21812115072325
H        11.21183574344964   17.86957969296854    2.14820130710830
H        12.18079286941281   18.60796295758138    3.43566883323855
H        10.49315236148290   18.15094932541757    3.74412247261337
C        12.16716100384023   16.52625247316863    5.19136412526060
H        12.45140867665368   15.53464977928719    5.53873923776791
H        11.27933540260473   16.85056462523051    5.73248577869804
H        12.97996945138363   17.22156758455802    5.38486657208281
C        13.09427485540145   16.03445787522096    2.90209883702497
H        12.87455973154599   15.98616779948831    1.83992405223408
H        13.41014042187560   15.04805050852939    3.22864177952473
H        13.90268363521091   16.74245656423691    3.06710246054157
C         8.09093425309143   15.42243641035793    2.02090003244181
C         7.96612537823699   16.76808488964868    1.69055093437129
H         8.57152077138646   17.50152433375139    2.21173902795100
C         7.08249443378345   17.19570372416461    0.71232785765720
H         7.00723009153076   18.25010474635319    0.48452841049790
C         6.28835895073854   16.28898548506749    0.02395024608981
C         6.40513092276500   14.94266643694388    0.34402096874831
H         5.79554600504223   14.21573649382831   -0.17715256741443
C         7.28671178583465   14.52120283839824    1.32611147750061
H         7.33671738723899   13.45413269620926    1.53716534353597
C         5.31414651527757   16.73979890022064   -1.02267180785394
H         5.49815161139334   17.77324016502096   -1.30515717168761
H         4.29407799602136   16.66539760415019   -0.64417643687807
H         5.38508063361086   16.11367672908233   -1.91057411665305
C        11.31062540035178   12.92171169217253    2.33359264158028
C        11.59814780326499   13.28118617628949    1.00888862096411
C        12.91079666635010   13.20259966297943    0.56296952795521
H        13.14537747382784   13.48652036768106   -0.45096696450158
C        13.91963958576753   12.74872937294730    1.38809890413178
H        14.92997139057968   12.66414031999830    1.01676506284816
C        13.63508390953114   12.41937303747983    2.69977961500615
H        14.43463289425734   12.08235131716917    3.33989511411418
C        12.34365187199364   12.52033954635711    3.19918749605118
C        10.52616063372785   13.79121056544775    0.07249272225013
H         9.54762281703578   13.59226022783160    0.51837256288786
C        10.66249356029433   15.30948882505506   -0.07176112182083
H        10.58279261723105   15.77209292879942    0.91137632292418
H         9.86915842052234   15.69738229968854   -0.70715055333448
H        11.62248488187810   15.56499889460602   -0.51557626018884
C        10.57571835773672   13.12519736125262   -1.30594801268047
H        10.64671987872767   12.04232530175977   -1.22373281587764
H        11.42912096258936   13.47585817742856   -1.88036915495740
H         9.67421055383333   13.37122361955123   -1.86305424352002
C        12.05238971458381   12.22065314334866    4.65637838918480
H        11.23466775307781   12.89221321729044    4.96734654927377
C        13.24758251852900   12.50083068048934    5.56924658013047
H        13.68269276307892   13.47271333148822    5.34981393678091
H        14.01563010562335   11.73844886445487    5.45925579172085
H        12.92547645221150   12.49639265012444    6.60871704913932
C        11.59512934619733   10.76995999347254    4.84795852526261
H        10.64712957259072   10.58510443964541    4.34858524743831
H        11.46978222651236   10.55437366624253    5.90765791673512
H        12.33861979146779   10.08444347219766    4.44394903697263
C         9.86283882654457   10.75245350460823    1.62887514617005
H         9.33315263579897    9.80793604222850    1.72280130362564
H        10.92115728746901   10.58682524623297    1.81911215965154
H         9.76246137765434   11.10080072076461    0.60237840353671
C         9.29013159183443   11.78719778604117    2.57217010432533
C         8.06520045767591   11.47170374484247    3.13656041665314
H         7.62736335619732   10.53224948705734    2.82757642174331
C         7.36330065096711   12.13456348450275    4.16134255925053
C         6.21559443590001   11.34121150630003    4.74256296716651
H         5.76469282820449   11.84548705980559    5.59406765701895
H         6.57011285700858   10.36133579416775    5.06076319014092
H         5.45504382312869   11.18825650438797    3.97719877016811
C         6.98550857737454   13.83363684789338    5.72421316761349
C         5.77805501246272   14.52508029071404    5.55058162974421
C         5.16182347339148   15.07176458581642    6.66625067560907
H         4.23839315146136   15.61793621102845    6.54647841760064
C         5.71203575013213   14.93721982011529    7.92568605286587
H         5.22071486664139   15.37671987565350    8.78123318192964
C         6.89506109649920   14.24354580592293    8.08761286700904
H         7.32238502146273   14.14535886920005    9.07421427348857
C         7.54171026406700   13.67484438037083    7.00066807857540
C         5.15872460566416   14.71136610905890    4.18320293732379
H         5.77901446238677   14.20364613949961    3.43573936222469
C         5.10825710431000   16.19548833140565    3.81125326752559
H         6.09701645044218   16.64214701347607    3.89749891007730
H         4.43081174863688   16.73626412300190    4.46792671374241
H         4.76633423749838   16.31322578970568    2.78438402091504
C         3.75578662637788   14.10180953521214    4.12041486555391
H         3.36443855994935   14.17931725788470    3.10763907151811
H         3.07611044787474   14.62485618969298    4.78883391919580
H         3.77081295268035   13.05170356832605    4.40553100082234
C         8.84377339301502   12.92644865162391    7.19624191697855
H         9.12224599604013   12.43548941593789    6.25265547420001
C         9.95840605431935   13.90875370465663    7.57169876913788
H        10.90112273683895   13.38077798527233    7.70832564611176
H         9.71489232891425   14.42354276732364    8.49871127540455
H        10.08587650209726   14.66138186092618    6.78778531405939
C         8.70650522053416   11.82776496700915    8.25246180038951
H         9.61895277318945   11.23562939754779    8.29636053749330
H         7.87744530379584   11.16528979633938    8.01049045767881
H         8.53048576639825   12.24986866353234    9.23846347886921

