105
CSD_code = AKITOE | q = 0 | S = 0 | Stoichiometry = C41H58Cl2N3Nb | MND = 5
Nb       10.12608899288237    2.93188420363127   15.92255635732223
Cl        8.18888234723983    1.81794348983507   16.55787989141185
Cl        8.99717042173690    4.93624360981967   16.07905170130126
N        10.36939183630395    2.36169091063813   14.24670568317607
N        11.34178307718160    1.45109111604924   16.96566326438307
N        12.00799035580927    4.08873833593822   15.99108249022805
C        10.35596675712275    2.07057012987711   12.93547638915373
C         9.17893393947087    2.27371355572224   12.16214628117927
C         9.20669934671124    1.99256081101575   10.80762897961051
H         8.31402268600032    2.13418957787237   10.21815303260265
C        10.35519941626128    1.53450882966827   10.18629569965262
H        10.35484136121761    1.33347958166361    9.12521413297431
C        11.49792807671734    1.32281863579110   10.93499416780478
H        12.38724015845603    0.95167133296847   10.44756843851162
C        11.51893251308820    1.56882312012125   12.29645216826908
C         7.89984837055237    2.74736632307650   12.81296977892762
H         8.15055189515812    3.20339944599679   13.78211057422240
C         6.98267424475452    1.54867071005891   13.08080813362860
H         7.45913550366241    0.84944841935571   13.76300320195955
H         6.75470316764786    1.02873896795945   12.15216080786665
H         6.05157342522228    1.88611110230849   13.53084638414042
C         7.15521080176066    3.78967792615300   11.97464163900406
H         7.82690180452648    4.57796011654316   11.64568533414394
H         6.36477288743132    4.23897978665821   12.57181624130105
H         6.69485156618665    3.33575084223075   11.10012862929275
C        12.76244228391652    1.26770013047164   13.10075983368928
H        12.53047967683682    1.45940839530075   14.15622734431348
C        13.16275777612339   -0.20209174419771   12.93919556471163
H        12.30199084989718   -0.84834187887516   13.08254520901426
H        13.92624323643395   -0.46596328319629   13.66827539469766
H        13.56451033413747   -0.38652475247365   11.94566340728984
C        13.93393521372395    2.16551961282653   12.69835576869028
H        13.69420778605218    3.20821237808953   12.87559804524043
H        14.17320045600501    2.04003401846314   11.64488793629777
H        14.81431126651327    1.90873998848658   13.28379881808615
C        10.59531378454988    0.45813396673494   17.67049908742854
C        10.35041402483134   -0.79212820562846   17.08410923382049
C         9.61572759230885   -1.72882817512560   17.79728273987537
H         9.39977435356385   -2.68626641979230   17.35001613057593
C         9.15835402219844   -1.45983483663801   19.07232386243209
H         8.60173311215873   -2.20680648287380   19.61838133320224
C         9.40283929998651   -0.22622938825824   19.64102703373226
H         9.03553017868586   -0.01868342130405   20.63443159227267
C        10.10392465511809    0.75248634760028   18.94971365860525
C        10.82112521525685   -1.11569267756818   15.68467952096757
H        11.54701180252835   -0.35887448746331   15.37328372089165
C         9.63452184073602   -1.02824448427593   14.72165812862440
H         9.23509506757845   -0.01522790663624   14.73824079685241
H         8.85007296418225   -1.72379455134058   15.01160132873608
H         9.94865970667821   -1.25715488009287   13.70553541529240
C        11.47858514907381   -2.49672511612464   15.60642491779474
H        12.20613279529754   -2.63251393395918   16.40452170077012
H        11.98785014902126   -2.61407193264516   14.65273184405594
H        10.73724930532848   -3.28734730121079   15.68656263076309
C        10.30605541572866    2.11314371574551   19.58130198604501
H        10.75332102558940    2.79098666799126   18.83844238356077
C         8.96467069567956    2.71319367918654   20.01099212740455
H         8.28616267293227    2.76401374208759   19.16023485400902
H         9.10569850765286    3.71803846508637   20.40330372648148
H         8.49381084233888    2.11260859599988   20.78515577874300
C        11.27192482204893    2.02051609941063   20.76517319716060
H        12.24368286229349    1.65146213857567   20.44109507229086
H        10.88405424216614    1.34533751506520   21.52468570414280
H        11.41153745051714    3.00058110809147   21.21731673755562
C        13.30677920459248    0.17136857676044   17.70006004631076
H        12.74793940957374   -0.11963241267780   18.58724140254296
H        14.32978594584179    0.40571553941066   17.98159885677968
H        13.32428831422787   -0.68237091502061   17.02471242532951
C        12.66058997419999    1.34978419994471   17.01336154293659
C        13.52870263610973    2.29968064141044   16.47773344019103
H        14.57768187018636    2.04510896534937   16.50964755207736
C        13.23414915610073    3.59836679599444   16.06139857345053
C        14.41662332340346    4.49232644944640   15.78507831380487
H        14.21551288776996    5.14868302490612   14.94299540712009
H        15.30358492447160    3.90093421209801   15.57758126381335
H        14.61709679863800    5.12381984659379   16.64988593785325
C        11.91546406852013    5.51166497260722   15.89151373452204
C        11.78163990062700    6.14569735698606   14.64787746781748
C        11.67121624227100    7.52916597515301   14.61090538485145
H        11.55376794412811    8.02560221730401   13.65999177620717
C        11.70683686146677    8.28285385283673   15.76688562893302
H        11.61731969226258    9.35791385570995   15.71853687552043
C        11.85230117118919    7.65292191125674   16.98619861284219
H        11.87462988581578    8.24469005023937   17.88871261419004
C        11.96486338963283    6.27205231840399   17.06926959662252
C        11.73350531826376    5.36562908667710   13.35403756398955
H        11.86956642217637    4.30231614509527   13.58109034311108
C        10.36188046777525    5.52596416395167   12.69513795916113
H         9.58173979217923    5.22662363881259   13.39190668953148
H        10.30382264116329    4.89409745603811   11.81161931897041
H        10.18931178466793    6.55889699427375   12.40087959235012
C        12.82933899817927    5.81087762010360   12.38073290074993
H        13.81864877771962    5.73546545239688   12.82877751415048
H        12.67907126582151    6.84223015216134   12.07126532473482
H        12.80521007330385    5.18331756406464   11.49264702951699
C        12.08107597280396    5.62346668416855   18.43202003908313
H        12.22826900931805    4.54331828359441   18.30327471200323
C        10.78540907364059    5.84604218683458   19.21651299115061
H         9.93469736411601    5.44947741920975   18.66457890984277
H        10.61305911788155    6.90716908002713   19.38129092590434
H        10.84156119057838    5.35448446998088   20.18610516009830
C        13.27687244363133    6.16074648917949   19.22192136352426
H        14.20056948621413    6.05087009143258   18.65710899982430
H        13.38138461302124    5.61223728775120   20.15616124290504
H        13.14772519791287    7.21352071302412   19.45937199726882

