120
CSD_code = AKITUK | q = 0 | S = 0 | Stoichiometry = C44H69N6Nb | MND = 5
Nb       12.92881679732015    9.16298792556540    2.42301401701009
N        12.58805832518351    7.42311184925006    2.76426876514439
N        13.20641631828757    9.53964163433982    0.68214061634459
N        10.95149101814815   10.15702722635993    2.59991177526250
N        13.17452511675661   10.04357289595809    4.83336771745894
N        15.21778282532681    9.25661978795899    2.60809311145649
N        19.30448719966795    9.85522374877424    3.22346253294334
C        12.26547716802305    6.04903545321948    2.68448321425350
C        10.89131408735171    5.80125216752492    3.34492300020050
H        10.90056856425859    6.20070454423788    4.35714992504051
H        10.66960072493727    4.73645532652579    3.38341275297225
H        10.11290517595672    6.30850680600890    2.78361333348909
C        13.31237209311844    5.19786560912691    3.43668264303983
H        13.27889957652016    5.42258617243307    4.49864145493393
H        14.30790422829353    5.41645007461659    3.05545496705753
H        13.10638812709259    4.13864291842368    3.29560324367171
C        12.22858425607170    5.56803270937096    1.21804579465468
H        11.57611357626422    6.21785262012086    0.64322504550349
H        11.87271068310407    4.54156212451697    1.15565081722834
H        13.22787761920045    5.62889573256190    0.79360410019470
C        13.57065529325748    9.49496801229831   -0.67814345537064
C        13.65336257642407    8.03462797790018   -1.17131789365982
H        14.34572688419257    7.48705522190396   -0.53434542416836
H        13.99034832729699    7.98701621830189   -2.20491360785889
H        12.67305578162734    7.57491962446582   -1.08722926588035
C        12.55475537419531   10.25808874804678   -1.55244190324923
H        11.56449507331664    9.83393363701907   -1.41328065786112
H        12.83191151035831   10.19026300998787   -2.60236839399840
H        12.51550646997170   11.30471699933777   -1.26331265231881
C        14.96427030793277   10.14699336640857   -0.85399641690061
H        15.69511410226184    9.61560073486939   -0.24536486623540
H        14.93697195456249   11.18724701223233   -0.53574700722321
H        15.27430798513858   10.10788328657929   -1.89597565778371
C        10.38560840431960   10.68388397189644    1.41082933529612
C        10.58243067760318   12.04279243061231    1.11633331941316
C         9.98204376213211   12.59053726682889   -0.00778968055603
H        10.13914628633934   13.63204050199506   -0.24606572004735
C         9.17196425903635   11.82484713300287   -0.82165459625387
H         8.68581892057976   12.26864754253702   -1.67815646414056
C         9.00005008362925   10.48203858978392   -0.54400331500710
H         8.37641042089796    9.89125340715035   -1.19632799419903
C         9.60878108825256    9.88596828974683    0.55211093448138
C        11.50342311102896   12.89674025014097    1.96041150882184
H        11.74222086353505   12.35438751614292    2.88315175750243
C        12.80672095273499   13.11279372100750    1.18597475389191
H        13.26816230069928   12.14505548383240    0.98231806766550
H        13.49738210915956   13.73151809912333    1.75568788746747
H        12.60815650759081   13.60789128587453    0.23689918625556
C        10.87122625491221   14.23121843598162    2.35840099034537
H         9.89522252933305   14.07396616887290    2.81343517828697
H        10.74490180774242   14.88158811962638    1.49635482667686
H        11.50633511229056   14.74628576458184    3.07751939271237
C         9.44087452337607    8.40575398530469    0.81419595949674
H        10.33840013659108    8.08082473145380    1.36096340137068
C         9.34784723004189    7.59240980016650   -0.47907661604352
H        10.15405723076555    7.85956055695264   -1.15772069054413
H         8.39622146691649    7.75065907824556   -0.98231348029254
H         9.42665985970408    6.53140445240368   -0.25106032876961
C         8.20130301370242    8.13064973377901    1.67474089963862
H         7.99992115778031    7.06151856140215    1.70778353284469
H         7.32755524951665    8.62832287802490    1.25549465925402
H         8.34985680530948    8.47844675495070    2.69252061695176
C         8.88168129449495   10.94280890069003    3.67850186626467
H         8.42547131466544   10.84366233420047    2.69792261948630
H         8.92400350193820   12.00476106536115    3.92471721917307
H         8.25056770520570   10.45680852868856    4.41977329409435
C        10.28672830284851   10.36605103649869    3.72324802956121
C        10.76951971280964   10.17595909378133    5.01669745174890
H        10.01210146840869   10.26937960118254    5.78576167843331
C        12.07220904518216   10.11454031334863    5.53344879120015
C        12.10961495019060   10.24754524643202    7.04706477684292
H        13.12494420314906   10.19865898363993    7.43449246393055
H        11.51685886243935    9.45496734332268    7.50264178282776
H        11.66194892188198   11.19545366704560    7.34475163113625
C        14.42184830374651   10.25790818748729    5.43716576014771
C        14.87200527914685   11.57862075119980    5.64816681387499
C        16.13934271838482   11.79272080932466    6.16742958723808
H        16.48285279713103   12.80290153806547    6.33748825577250
C        16.96473062134053   10.73580210214318    6.48993082774711
H        17.94557964440607   10.91516540954659    6.90852148757802
C        16.51722710835516    9.44185432732479    6.30085355728037
H        17.16561777092699    8.62801962610112    6.58330059671606
C        15.25989042396212    9.17504866855911    5.78153261564896
C        14.00301799517393   12.78200247826644    5.34507485597454
H        13.08626152262298   12.43955897519028    4.85221631392275
C        14.70229201147421   13.78152086241376    4.41871000247527
H        14.01458514864113   14.58384116340414    4.15613665537330
H        15.04408764761660   13.30590379937900    3.50252096588897
H        15.56449828780071   14.22942049551085    4.90804497308508
C        13.61290132466140   13.50315657524122    6.63958242026374
H        13.15093566058562   12.82020083580428    7.34620176966056
H        12.91046743320186   14.30686824157692    6.42535728886080
H        14.49191649000065   13.93420528024992    7.11456231926847
C        14.79161151077451    7.74494884838790    5.61433664324990
H        14.21216067405315    7.68329934025632    4.68186326538085
C        15.94416270032471    6.74070760340358    5.54123438489453
H        16.71145262949570    7.06817140145654    4.84393764378009
H        15.56725021119803    5.77779554697030    5.20525908975638
H        16.39540473900055    6.59426774051687    6.52147036689048
C        13.86496847199676    7.33528277765038    6.76704870220449
H        12.89598651033957    7.81184348114915    6.67245752388045
H        14.30252704755895    7.60553776361883    7.72771140069396
H        13.71098250146577    6.25782758906292    6.75412506833312
C        15.72472622728229   10.47034380034677    2.82069892124944
H        15.01463648787078   11.28834153956717    2.82164990301941
C        17.06085849481359   10.72498955582953    3.01086432041800
H        17.37901813772925   11.73910561309956    3.18064708173615
C        17.98604046685404    9.66441450312525    2.98157738471196
C        17.44704836547891    8.40069231926289    2.67202943956325
H        18.07815573011282    7.53247136170195    2.58206928255962
C        16.08820017800846    8.25255887385823    2.51205825694761
H        15.65713104929747    7.28255370383235    2.29492686009209
C        19.77417008453183   11.12036699754989    3.73632900473552
H        19.13842883606866   11.45823677013100    4.55763395512047
H        19.78277136782862   11.88897426096943    2.95686513470294
H        20.78668546940509   11.00457902772001    4.11510475973202
C        20.24441136992516    8.76931870297392    3.08546267348716
H        20.10715489138629    8.01472539758083    3.86726494212918
H        21.25740605058174    9.15786930918784    3.15524414592234
H        20.13466507765462    8.28881424139569    2.11114222458533

