66
CSD_code = AKIVIZ | q = 0 | S = 0 | Stoichiometry = C20H42ClIrP2 | MND = 7
Ir        0.85800182927506   10.86142370728751    2.07752050990408
Cl        1.80169465816334   10.05973702602596    4.07435758293259
P        -0.49536844372957   12.12453684001460    3.81840737404701
P         2.80591123140501   12.39198815780282    2.01457633183605
C        -1.43495417913218   10.99871127575433    4.94654437943057
H        -0.69273052778186   10.31169806539184    5.36027863666568
H        -1.86276685488411   11.58692307143655    5.76205842522290
C        -2.53422462662005   10.21363095933834    4.24549948814315
H        -3.31670380755329   10.87559967949917    3.87868601766088
H        -2.98730996093721    9.50422481457519    4.93643405753661
H        -2.12297057170743    9.66099418902633    3.40697663499459
C        -1.84162659806450   13.34695924755265    3.41929214532935
H        -2.49080121769966   12.86701260158626    2.68281286078164
H        -2.44180585769021   13.53905440491259    4.31215490955999
C        -1.30324900456988   14.64979996737880    2.84493974490502
H        -0.75814107186044   15.21429416607142    3.59755414031009
H        -2.11781091924747   15.27283807795686    2.47753949763392
H        -0.62446756153873   14.45000000222890    2.01756344169000
C         0.50106212412765   13.06613057512694    5.06942970925168
H         1.24321015834578   12.35092936511981    5.43282510688577
H         1.03297659625711   13.83486974179784    4.49975828579712
C        -0.21613778112612   13.71013737428439    6.25012085728092
H        -1.01855073568781   14.36935301978458    5.92698616199458
H         0.49661815210063   14.30501179770543    6.82013697342939
H        -0.62790868197072   12.96080226898955    6.92027923407790
C         2.51963311907522   14.15325539761347    1.44377228247300
H         1.50926150964572   14.17549836640980    1.02567311761169
H         2.49747576119970   14.76559836568691    2.35005235733918
C         3.47415883958846   14.76359163766812    0.42508335269227
H         4.49358419213081   14.80504480607375    0.79838635773177
H         3.15824801967756   15.78176174173323    0.19912452800635
H         3.46733194552725   14.19684949837691   -0.50287236261175
C         3.84738360149779   12.64970381652696    3.52435083795552
H         3.19732962651811   13.11238106641210    4.26998716323802
H         4.07731329796197   11.64777744502970    3.89392576224169
C         5.11892996531497   13.47551250815444    3.37762605393009
H         5.80467922761588   13.03646057691997    2.65782357707220
H         5.63007732787749   13.52227142416669    4.33829012529337
H         4.89482967910042   14.49446954175188    3.06984008462063
C         4.07734286248869   11.76361646569718    0.82178194063629
H         3.55954361318811   11.58884020639979   -0.12365518714985
H         4.85460634395362   12.50993764120462    0.65163229163498
C         4.68655077014744   10.45989216460936    1.32348531007816
H         5.39788696411945   10.64270445945263    2.12492799365864
H         5.20862284125126    9.94503778325548    0.51848887844142
H         3.90814205301290    9.80598015565905    1.70955251525786
C         1.24129110791248    8.95786232928631    1.20797257030886
H         1.95917196471521    8.37311090770390    1.78153294703389
C        -0.08306105742469    8.98444511612957    1.71874779171766
H        -0.24389438095674    8.42235346339454    2.63677684335996
C        -1.28949464115549    9.02696441595191    0.79619330355722
H        -1.04819035643469    8.50014727520860   -0.12903845188055
H        -2.12090415023354    8.49016994156542    1.25859490985507
C        -1.72892794469851   10.46868650169346    0.49315481407303
H        -2.15446388941249   10.53885855754690   -0.51502458019160
H        -2.51549898783802   10.75670900857968    1.19341702081571
C        -0.59889548578198   11.46736033218416    0.62628352263997
H        -0.95430222463616   12.48303554799955    0.79076511908258
C         0.63512142629277   11.32964904619625   -0.02732514895174
H         1.14574285161476   12.25537190417245   -0.29082317243502
C         0.92840578197942   10.18719662675535   -0.98283144490366
H         1.60280460396907   10.54110758671746   -1.76593709122520
H        -0.00237609405711    9.89407656836888   -1.47234812952835
C         1.56176970657400    8.98246597454664   -0.27082627277152
H         1.23074300379191    8.04439922762388   -0.73113672113732
H         2.64618085701355    9.02768420292397   -0.38275731687661

