73
CSD_code = AKIZOK | q = 0 | S = 0 | Stoichiometry = C29H40ClIrN2 | MND = 6
Ir        5.75122668343440    6.87206173865703    8.51662059392516
Cl        3.54884007707263    7.47513634668887    9.08700737186178
N         4.48983945938796    4.24865507564775    7.96850664221571
N         5.18405392471628    4.50015941640365   10.17203083682001
C         5.09308664733222    4.97102619825911    8.92141115759664
C         4.40057887610160    4.76286201589378    6.61343657897167
H         3.40954042619788    4.55867290056998    6.21162596480634
H         5.14234823270426    4.28456974554856    5.96929605415652
H         4.56714628591282    5.84250460215811    6.61930298258318
C         5.71015808185909    5.33543864331991   11.23554361447631
H         5.72642475145084    6.37566199610024   10.90469738495955
H         6.72004829289000    5.02662374189477   11.51369188592808
H         5.06640624484618    5.25122783298739   12.11091474174068
C         3.71466825976954    3.05641484635821    8.14400070808335
C         4.28850188195394    1.80376047111658    7.93814459846270
C         3.51930419845142    0.66923551363983    8.15471292925504
H         3.97457467069161   -0.30177707771030    8.02050247628044
C         2.18811429569893    0.75848752111636    8.52409686401456
C         1.61044418189888    2.01711403447542    8.61022451259469
H         0.55595895032539    2.09969645891635    8.83386234123243
C         2.34568636155762    3.17459992435476    8.40766909009153
C         5.68889736686879    1.65378525322048    7.42542509148157
H         6.19839426303001    0.83957420238273    7.93402458851804
H         6.26082530316465    2.56752620412552    7.54932571913679
H         5.65568029436204    1.41212326438543    6.36185864896073
C         1.37142415927137   -0.46759349003995    8.79905864737236
H         0.45310568001243   -0.45694151107565    8.21413274384872
H         1.09403674420590   -0.50248581323498    9.85231692317233
H         1.92827070236990   -1.36972520687135    8.55791363501501
C         1.65034894187137    4.50149881694040    8.40070122717202
H         2.31278542603314    5.32722448389566    8.64816252380036
H         0.81126561352406    4.50331480199421    9.09139785332046
H         1.24904033901103    4.68990134491470    7.40312834615213
C         4.90391319831207    3.17283080454785   10.62679865299158
C         5.91933466490222    2.21543702350018   10.57677480658677
C         5.64142763078629    0.92431137788036   10.99911038887926
H         6.42038990147566    0.17647102047544   10.94600620285282
C         4.39432857938531    0.57612014681803   11.49412006245555
C         3.43563110773695    1.56879248629479   11.62442076425390
H         2.47656432260498    1.32803939151302   12.06046788194557
C         3.67722984116187    2.87274394202484   11.21959923745380
C         7.31137536525525    2.57027754695442   10.14127073561752
H         7.90693842062420    2.83341485327566   11.01723250623611
H         7.31718834030478    3.41864930982614    9.46197505879830
H         7.79582546972432    1.72511124259015    9.65897206263548
C         4.08881201012427   -0.83729448963700   11.88516902156989
H         3.59996444157334   -1.34898515297709   11.05587641460217
H         3.41747157975788   -0.86761208543636   12.74039171067595
H         4.99830520054572   -1.38060878688170   12.13009739295709
C         2.65121255336195    3.93239143696443   11.47850187449474
H         2.67489183943625    4.20427947867612   12.53528609030619
H         1.65446961067614    3.55913906055275   11.25926856566738
H         2.83417459135958    4.82767033857909   10.89309071841708
C         6.40855979081352    8.90255820940647    8.83856306485014
H         5.65165101531346    9.40017153098915    9.44091395510167
C         6.15754340081465    8.74417323888276    7.48939671092827
H         5.20175565677195    9.09784650607436    7.11028509249057
C         7.24953649288190    8.61869214484140    6.45050426035096
H         8.12190731810968    9.18290596334383    6.78395678781695
H         6.90918925740407    9.07497267035708    5.51878483921732
C         7.63635747632451    7.15313652054373    6.17429650423377
H         7.04367217946051    6.78192081485943    5.33496097261927
H         8.68880762846620    7.09370486387298    5.87426725667323
C         7.39205707443990    6.23587059501146    7.35311295124180
H         7.34807898461306    5.18784345145248    7.05586686170039
C         7.83720340015091    6.50262942860142    8.66495958416438
H         8.06778832253638    5.63718877587746    9.28299401879072
C         8.65988716594185    7.72718108639650    9.01765884092070
H         9.27238665917270    8.00511637204042    8.15845389643743
H         9.34489773189702    7.47580135421456    9.83012241533997
C         7.78585918139616    8.91637987127819    9.45874195253125
H         7.66814440416764    8.88713910316681   10.54423931075787
H         8.28504257223285    9.86065425621214    9.21494529642692

