91
CSD_code = AKIZUQ | q = 0 | S = 0 | Stoichiometry = C35H52ClIrN2 | MND = 6
N        10.49700774773197   -1.77242023589703   -1.77967149186410
N        10.66296599937507    0.43521914080359   -2.48422676810287
Cl       11.83092454623287   -0.48263444300630    0.96906313288417
Ir        9.63932855572395    0.08757262152117    0.31939594756432
C        10.28415831506244   -0.46721341837530   -1.56756269351242
C        10.09967166196869   -2.73022011127557   -0.75469238234819
H        10.78468663294964   -2.68934156874132    0.09337142789419
H        10.12519673047673   -3.73187176771705   -1.18094374906293
H         9.09158522893406   -2.51234089273456   -0.40282575917824
C        11.46357453529198    0.22321165062532   -3.68159657772631
H        12.42274925648797   -0.22812781931847   -3.43441416256465
H        11.64588377502785    1.19532677057288   -4.13766170078134
H        10.95634469885193   -0.41108594027273   -4.40950408007714
C        11.15216622544870   -2.43167646298924   -2.87412997561894
C        10.37279526542375   -2.90697530223928   -3.93477644936378
C        10.99591861882028   -3.61667886812186   -4.95237219559794
H        10.41223315292575   -3.99299591696734   -5.77815731512365
C        12.35598490268326   -3.85643032682831   -4.91737123625837
H        12.82649943497261   -4.41043395925037   -5.71625660672618
C        13.10950642372647   -3.40244515844925   -3.85305084322244
H        14.16728196896613   -3.61289487119311   -3.82477012647343
C        12.52511529233669   -2.69382650711931   -2.81071255905679
C         8.87778631472723   -2.68257420033668   -3.97530116716142
H         8.61246554594273   -1.95640001919905   -3.19985348764982
C         8.14085200924417   -3.99081745826228   -3.67335905288064
H         8.39126805148157   -4.74854442559169   -4.41246580989518
H         7.06553866938165   -3.82795138930678   -3.69656052598700
H         8.40930519718505   -4.37052309492421   -2.69082127117788
C         8.42081731537998   -2.12963262234348   -5.32774358016876
H         9.03055901474139   -1.28119458027853   -5.62977233866996
H         7.38452929826648   -1.80489388798119   -5.26363078184012
H         8.48647948174402   -2.88840123278861   -6.10332706380010
C        13.35690468928663   -2.27325386328978   -1.62333713602802
H        12.76655271078555   -1.62232627526640   -0.97422236524106
C        13.74149455321823   -3.51432022131975   -0.81120215493291
H        14.41264437075990   -4.15742602857817   -1.37751243457061
H        12.85805839929438   -4.08981101343393   -0.54535024667596
H        14.23895406093074   -3.20935528161801    0.10549735105864
C        14.61861974362871   -1.50537746407466   -2.02326067135655
H        15.31268810839129   -2.13270040182919   -2.57841865878493
H        15.11994487619692   -1.15511515327496   -1.12449030082701
H        14.37870556207065   -0.63706052265329   -2.63414527665692
C        10.26412977488929    1.80568407327273   -2.32198458443585
C         9.12120522798967    2.25770305779311   -2.99723273782110
C         8.75230368406633    3.58945014395344   -2.86183260246984
H         7.87549711313653    3.95679247358130   -3.37255301273126
C         9.49612361215327    4.45485810317181   -2.08375881131044
H         9.18918866235194    5.48525221662714   -1.97877168391830
C        10.64901504989326    4.00964806055511   -1.46951750495782
H        11.24552018017313    4.70362276615680   -0.89903216144714
C        11.06356102480567    2.68831460036015   -1.58915408562677
C         8.33744571486512    1.35404183847040   -3.92352671415549
H         8.66381794598272    0.32473821542379   -3.76080490769397
C         6.82624121396120    1.39972334237323   -3.68936410260529
H         6.57996730260689    1.12801520875114   -2.66678062658892
H         6.33458265136007    0.69590687748514   -4.35812021081649
H         6.42268179927430    2.38840405707332   -3.89043402302725
C         8.64034093843322    1.74527778268311   -5.37484612763703
H         8.32167513712043    2.76767873840370   -5.56430891396019
H         8.11034422538980    1.08887606050602   -6.06175774859235
H         9.70519701022181    1.67879145846128   -5.58480876452347
C        12.39103981912939    2.26590259344889   -1.00912789330195
H        12.42950114337863    1.17613229634879   -0.96525809096183
C        13.52259008607658    2.75796637031642   -1.91758879093165
H        13.42490448886121    2.35445979192086   -2.92315404120200
H        14.48249388266019    2.44528080043239   -1.51340963681950
H        13.51280308686337    3.84438720068652   -1.98507977804620
C        12.59467335158301    2.78875628325489    0.41227776203206
H        13.43482168274856    2.27361827602723    0.87071767549093
H        11.70991038280319    2.59073084941312    1.00980570856596
H        12.79896948976750    3.85716272031785    0.42532867856306
C         7.58457685150410   -0.19846457932485   -0.07638343322105
H         7.38642519805811   -0.67154002121959   -1.03890194661948
C         7.86064699892750    1.18212764756674   -0.09022549391987
H         7.91352948758946    1.66220011282834   -1.05894668298119
C         7.42672728106570    2.12719655597634    1.01195731916944
H         7.19071272241374    3.09779467946842    0.57061826816259
H         6.51207492315399    1.75258973496607    1.47420857195949
C         8.52606433710497    2.31853192010994    2.06998002399762
H         8.08271193917212    2.56399364272475    3.04161643674319
H         9.15269864983314    3.16411318018116    1.77739686536943
C         9.41146593985130    1.10457494678890    2.21030130079414
H        10.40287080924261    1.33028413679466    2.59710270072082
C         8.95520466494252   -0.19355484791838    2.35409457138395
H         9.63379358257221   -0.91527949837761    2.80188600870146
C         7.49225717529818   -0.56650779098029    2.44361415133603
H         6.94626525374062    0.25246405256952    2.91440993123759
H         7.38745828659814   -1.43724341084790    3.09402540370795
C         6.87959811117187   -0.89522569108152    1.06849745578849
H         5.81624847931529   -0.62974861578555    1.05912122304448
H         6.93817668382513   -1.97351988837497    0.90074819310388

