54
CSD_code = AKODAF | q = 1 | S = 0 | Stoichiometry = C21H28CuN4(1+) | MND = 4
Cu       11.24692927762391    1.64222018203810    6.56795828590739
N         9.70617422599554    0.40717819403754    6.07433541723290
C         9.48216031115395   -0.53404772933042    7.14611627989502
H        10.17033965184358   -1.37964084463534    7.01753200725687
H         8.46043872299780   -0.92896774935899    7.12868454088665
C         9.76980125902042    0.13993979503376    8.48514050674358
H         9.08598343713075    0.98017693212133    8.61819754284129
H         9.60352303045749   -0.57586927926970    9.30175249775825
N        11.13775968507704    0.65227506555680    8.47665685370447
H        11.76731662404404   -0.13934250989794    8.36627820828681
C        11.51279686212503    1.36596743578740    9.69772062955410
H        12.60280917783589    1.36605941729948    9.76656361355546
H        11.12064637658793    0.83930098147242   10.57916029030446
C        11.02433018341175    2.81445184794988    9.73615535002406
H        11.18172843689814    3.18345079519262   10.75024849196461
H         9.95344316664512    2.85769111016374    9.53460774016883
C        11.76287320252229    3.73906311993017    8.77027208762389
H        11.68036751489559    4.77554944353785    9.12881914394649
H        12.82191326470147    3.47493789693522    8.75427067382235
N        11.24303093694931    3.63490959210700    7.40724191279321
H        10.27564991151277    3.94704485231730    7.41644028463568
C        12.00131184498207    4.42407493695102    6.43727900907592
H        12.36219506959931    5.36553957898369    6.87128354529577
H        11.34982018152821    4.66328557398962    5.59401228399261
C        13.19602680313530    3.61824380400103    5.91235633918848
H        13.72724016667723    4.20075388750967    5.14871055698130
H        13.88769094319493    3.41320959821543    6.73498603217307
N        12.74020752312827    2.35016148072788    5.40493379632724
C        13.04978029013229    1.99109678102787    4.22472032579076
H        13.64284148445969    2.65284243886675    3.58515661522183
C        12.65507152924908    0.73102417959198    3.62982717309460
C        12.61810269127798    0.61335383188996    2.23910908954028
H        12.89187297899236    1.45802073379869    1.62455543112200
C        12.21313394719871   -0.56878545580910    1.65055609144427
H        12.17791234229916   -0.64974629914271    0.57525420412849
C        11.86510994478363   -1.65417972950556    2.43882385292355
H        11.55937797126973   -2.58035445835187    1.97692600003594
C        11.92665230404974   -1.55613523115196    3.82126989744854
H        11.67853562295212   -2.41231148153014    4.43094261383200
C        12.31497238304451   -0.37243754730199    4.41479536655626
H        12.38636762098106   -0.28628122132956    5.49014631729178
C         9.17722797472459    0.19278785320649    4.93551976609050
H         8.56337338116787   -0.69837079811402    4.77339196387047
C         9.34726648821596    1.04651348114766    3.78000880666658
C         9.07024050019720    0.53697203414547    2.50943740103216
H         8.72229921492243   -0.48014333357321    2.40668269729090
C         9.25671404883408    1.32127863378319    1.38782181718896
H         9.04714183814529    0.91857678306368    0.40904507252177
C         9.70141580330025    2.62731695515543    1.51845366352758
H         9.83824810953382    3.24116673253728    0.64150966466173
C         9.95564644488849    3.15087957334413    2.77801319005510
H        10.28221738232043    4.17569886778711    2.87628313616239
C         9.78209432461980    2.36788565446846    3.90031749039640
H         9.95977558676585    2.76321361262863    4.89001843016178

