35
CSD_code = AKOFEM | q = 1 | S = 0 | Stoichiometry = C9H22ClN2Pt(1+) | MND = 5
Pt        0.21311601854926    7.47405978977572    6.02876293478495
Cl        0.86599585599713    9.27186169448785    4.80569544974219
N        -0.42024205496974    5.60095016029672    6.97704751455132
N         0.43922925878172    6.29255521240501    4.31533488524634
C        -0.81056348102056    4.78015160062474    5.81479522484004
H        -0.93004236339262    3.72979121106401    6.11200386510933
H        -1.78007579089768    5.13676526328391    5.45644568357739
C         0.22291433981691    4.88317543459803    4.70040383251832
H        -0.11061297361907    4.29958096342437    3.83406572088828
H         1.17210047819958    4.45868127074633    5.03545156135740
C         0.72030725977299    4.98914279690453    7.67194907127139
H         1.63385060407662    5.08744451592211    7.08574736890332
H         0.53453701592142    3.92738426345539    7.86343111194627
H         0.88183268247195    5.47729285069058    8.63038701569057
C        -1.56128469887834    5.66507017902151    7.89537262511608
H        -2.40914647858584    6.14524260610485    7.40777746973233
H        -1.30370223175364    6.23056853989394    8.78825733137858
H        -1.86347206433638    4.65967751438905    8.20520229581188
C        -0.60467136054706    6.72432479123723    3.37320034372395
H        -0.41993020710363    7.75338777777131    3.06803972525373
H        -1.59122702363531    6.67497020961873    3.83664098863231
H        -0.60175638424806    6.08988707671134    2.48160069924138
C         1.75038270487085    6.41476122202427    3.66329616167988
H         2.54695074979348    6.17339171523272    4.36830466016505
H         1.89804021741014    7.43486379009116    3.31476666179308
H         1.81488318629881    5.73754462306257    2.80688378649371
C        -0.57165221024781    8.90982351410673    7.43474870739206
H        -0.59883886423316    9.88759658541687    6.96483931341032
H        -1.52542164574931    8.54670513836135    7.80653944991071
C         0.61612149423322    8.44111771148597    7.96424734674106
H         0.57944789603953    7.67119836412956    8.73530139614711
C         1.91540604930959    9.17535434218576    7.90841223922171
H         2.72025720163727    8.51810785556927    7.57148639501880
H         2.17630379186039    9.50762675615710    8.91323651959742
H         1.86466302817727   10.04054265974933    7.25382464311183

