15
CSD_code = AKOGIR | q = -1 | S = 0 | Stoichiometry = C5H5Br3NZn(1-) | MND = 4
C        -0.73420176466773    3.19034834826490    2.10549040555934
H        -1.23563654454199    3.71998453693876    2.90393914737694
C        -1.44921994553270    2.43663280915392    1.19068034426601
H        -2.52395180417631    2.37592825414803    1.26440177999168
C        -0.75719266593418    1.77565961501898    0.18936442220133
H        -1.28235961762250    1.18145458344579   -0.54555137125555
C         0.62235138896959    1.89297785261490    0.14985952374473
H         1.20634053742229    1.39701016247466   -0.60978720320949
C         1.25011879377577    2.66967943579408    1.10832590535193
H         2.32529043915289    2.78520033836788    1.11430233603043
N         0.58564755869237    3.30454516722748    2.06349295561333
Zn        1.63654880715798    4.90775575289975    3.27714678280700
Br        1.28965168735332    6.59016193877483    1.48474478448406
Br        3.82485683624439    3.76669422639364    3.39150895266912
Br        0.06945629370667    4.88546697848238    5.18708123436912

