60
CSD_code = AKOMIX | q = 0 | S = 0 | Stoichiometry = C22H26ClN4O4PPdS | MND = 4
Pd        6.50272631337932    5.74853769095534    8.66120750619777
P         4.66853833184608    6.46112605439822    7.59871364547635
Cl        7.52128881469258    5.64617412608074    6.55230892670877
S         2.34305326049419    6.53200396603289    5.21627775610838
N         3.60496583785960    7.62929747898808    5.31863199448683
C         3.15177079711014    8.77943011470940    6.08187145809358
H         3.94692644280176    9.53104942389977    6.09274898335459
H         2.27757748775396    9.17100975512898    5.55742311058031
O         1.21741893167772    7.20572445959073    4.66600763623696
N         8.16735197223997    5.24739684911757    9.60411866101511
O         2.80264265125297    5.33279500913224    4.61028937874202
N         2.78146870844718    8.46724945979494    7.44422890823087
C         3.92772699364024    8.04622782412014    8.23268789788663
H         3.61924568762061    7.93229943041924    9.27688294233221
H         4.69723729165836    8.82694906056167    8.19621565710493
C         4.80839209379772    7.00108704273391    5.82337085688874
H         5.65224637529276    7.69570026379585    5.72780606550569
H         5.01552392614543    6.12850402173570    5.19620127288494
N         2.01825819328084    6.23370982874201    6.83883866637634
C         6.68582578439991    4.78440534773463   11.31638419133339
C         4.41183134604936    5.41295071487785   10.94097515260614
H         3.63054867517354    5.86644519263005   10.34182870131437
C         5.71658826393709    5.36283891820678   10.46317557102264
C         8.05227253912974    4.87721498867475   10.83248268404464
C         3.09232741547116    5.47622704061594    7.44735073425948
H         3.28009276714114    4.61106763904214    6.80310505355111
H         2.76685341978952    5.11372462058946    8.42873007718632
C         9.20300045486065    4.62688317356886   11.71945262273393
C         1.70982878338913    7.49800492513885    7.48810298177484
H         0.84408998149443    7.90519615746125    6.96138375113720
H         1.44872282581260    7.30285816329057    8.53289003294105
C        10.19037788143518    3.71825960022547   11.34339555038317
H        10.10276053157183    3.19712669972396   10.40103492116846
C         9.30745128570040    5.28217611718806   12.94431714815737
H         8.54964695255654    5.99702110693650   13.22904547343087
C         9.37906246024138    5.73012874686386    9.01662862931575
H         9.72023656250062    5.07281174474251    8.20917208651528
H        10.18751039493767    5.86725432042258    9.74862288492226
C         9.03729100446909    7.09161619805456    8.39569650977681
C         6.34165637277084    4.24568707817498   12.55755995426728
H         7.09939281467116    3.78000878698138   13.17206425946337
C         4.07322715351635    4.90251422196892   12.18603646813980
H         3.04962464837913    4.96179329869904   12.52893286679502
C         5.03232622615862    4.30365616968327   12.98895533990843
H         4.75656230855688    3.88859706791994   13.94697076288599
C        11.25817023832840    3.46366380073400   12.18425234930166
H        12.01392852951882    2.75124421411041   11.88952018216949
C        11.35896567796068    4.12212692052205   13.39873456146739
H        12.19579224469647    3.92547612675290   14.05189555516644
C        10.38516115993390    5.03345879849149   13.77424178193165
H        10.46364366516872    5.54989101570513   14.71924067649831
O         9.98503168151365    7.51184910479124    7.58403302908937
O         8.05167372487033    7.72914049350238    8.70731667673132
C         9.97182334265492    9.95723265639731    7.71717697825747
H        10.98636233055485    9.94993704218271    8.10855057091614
H         9.27129318989351    9.98063184856832    8.54806839794574
H         9.83322738137928   10.84927863933073    7.11303126178563
C         9.72882507571612    8.72256586642568    6.86233047010056
H         8.69425576614117    8.69425767681952    6.50640881435188
H        10.41357702628033    8.68640589658152    6.01347296101534

