81
CSD_code = AKONEU | q = 0 | S = 0 | Stoichiometry = C29H36CuF6N3O4S2 | MND = 2
Cu       -1.62038943535855   11.00076123120593    4.07616224742682
C        -1.85939599142128    9.16378714921223    4.33582082653471
N        -1.58439736047698    8.49665100590946    5.46600522674386
C        -1.79892996146975    7.15551657103769    5.29714039572308
H        -1.62556076268499    6.44385708239332    6.07691026580710
C        -1.20175086781346    9.15227215579346    6.66993134602838
C        -2.18239088617798    9.41653660541009    7.62899301147019
C        -1.80095804616178   10.08819379280060    8.78127645531623
H        -2.53402229527336   10.31027279916380    9.53754914822481
C        -0.49580251917375   10.50576384288340    8.95534648384259
H        -0.22194896212993   11.04818559479076    9.84697371107912
C         0.45674924908786   10.24323378920472    7.98970749380344
H         1.46975899733054   10.58290551837171    8.13642485211470
C         0.12448182986920    9.55408147392033    6.83132586000808
C        -3.61263021290412    8.97243161460464    7.43111171070634
H        -3.76781589355015    8.75599734486015    6.36956942794678
C        -3.87789559156216    7.69279727312672    8.23302523222623
H        -3.21998202680768    6.88653811971155    7.91653011029355
H        -4.90762140866103    7.37112499375214    8.09510370581852
H        -3.71089288847765    7.87251981471075    9.29218892546967
C        -4.60657517794408   10.06470682627731    7.82856973341220
H        -4.27556811640103   11.03016496832776    7.45664524437176
H        -4.70121272198250   10.13206737742368    8.90878577524931
H        -5.58857781749946    9.83799575875589    7.41880312082436
C         1.17217764477047    9.25913672796821    5.78362818752717
H         0.74367016764602    8.59151288658965    5.02972309416558
C         2.38834051648221    8.55620958787838    6.39283151507127
H         3.07662834429664    8.25798445755781    5.60545833804312
H         2.08186570623510    7.66689117968424    6.93916653244148
H         2.91969129089142    9.21230550967487    7.07569930838579
C         1.58600405693050   10.55398801395484    5.08131736120303
H         2.32008858271763   10.34349794272244    4.30709727016345
H         2.01343684746873   11.25811423424176    5.78891191652334
H         0.71250733987544   11.02436282099004    4.61892878206440
N        -1.86653113615857   12.56314700921548    5.45058977215222
S        -2.16884185639058   13.48194474320493    6.72527632268018
O        -2.75093033662846   12.73468320866141    7.78610612792223
O        -2.79575872417982   14.68818263224109    6.29674143838598
C        -0.44023730309422   13.95347310216847    7.33463692623734
F         0.49501328291840   13.22743595201919    6.71673490426512
F        -0.32940168443705   13.69270115691208    8.64050494891203
F        -0.16684096390716   15.23527176002413    7.15999833341169
N        -2.25586663736818    8.23533120506111    3.45390993446715
C        -2.22440258741539    6.98813911523207    4.02141906141155
H        -2.50251294302521    6.10715975684842    3.48120427398131
C        -2.68281555438366    8.53335324868561    2.13016864265821
C        -1.75102059482625    8.50102574546943    1.09265824722481
C        -2.19281892576140    8.80009243961695   -0.18907002744670
H        -1.49609606229168    8.79140096497619   -1.01156111762839
C        -3.51517718094914    9.12387851383484   -0.42246198345517
H        -3.84214348215386    9.35717551887872   -1.42458275188581
C        -4.41923966526769    9.16787232138785    0.62190584853755
H        -5.44243202448722    9.44272307134001    0.42436806373586
C        -4.02100937084280    8.87254495138678    1.91822982458160
C        -0.29250860713068    8.23171368571180    1.37036489860103
H        -0.19705398777822    7.78260564342490    2.36321141925604
C         0.33164201337726    7.26646255795316    0.36126205416660
H        -0.25706069709781    6.35475322854025    0.28733550551312
H         1.33750924893473    7.00263595109075    0.67906260640471
H         0.39986867548117    7.71478635518962   -0.62560633204214
C         0.45003951095896    9.57162743658837    1.38241613590301
H        -0.01278791312359   10.25229754131206    2.10060351819651
H         0.41098309531551   10.03309135789626    0.39929556506518
H         1.49139922309877    9.42088443799020    1.65539295039449
C        -4.98307545433388    8.98076009928400    3.07785997816064
H        -4.60214483785705    8.37945892560603    3.90933760480930
C        -6.38225722331643    8.46351322303050    2.73975860095314
H        -6.97865618256035    8.40247001273199    3.64688663881404
H        -6.32873120474559    7.47251946258470    2.29449459047137
H        -6.89382769981715    9.12826497262458    2.04981685055629
C        -5.04276558686887   10.44360619827625    3.53272327285105
H        -5.71132839999762   10.54975093554738    4.38306858618514
H        -5.40243505586458   11.07455249155867    2.72388646181885
H        -4.04669735224761   10.79360847322074    3.82786194126570
S        -1.54185927469453   13.46123155859130    4.19869598797719
O        -1.18778967798623   12.57185966497991    3.10976807739797
O        -0.65544120169108   14.53884397229001    4.44742382451584
C        -3.19375860083428   14.19037697160247    3.63024306803275
F        -4.21054702884920   13.60045425318551    4.25962140160062
F        -3.35102548754326   13.91832675651523    2.32608644823113
F        -3.28180817206085   15.49804135085634    3.77018893867227

