30
CSD_code = AKOSEZ | q = 0 | S = 0 | Stoichiometry = C10H11BCrN2O5 | MND = 6
Cr        1.63345647486719    4.31189648727653    2.12721501320968
C         1.49667975375974    6.12542213788509    2.35965176832908
O         1.37654532031088    7.26495588505966    2.49689674709094
C         3.45120907648936    4.47674721524710    2.56364453409795
O         4.51893161453116    4.77863606067156    2.85589295359841
C         1.98908934146049    4.69434305692910    0.33554086985501
O         2.13014383035840    5.11785819604788   -0.72725722631229
C        -0.18194748122217    4.38176650691647    1.75314122142006
O        -1.30452712703614    4.60010109906546    1.57237079803317
C         1.16683655255592    4.15474150777037    3.92626145628220
O         0.79467018992663    4.24874499019679    5.01285053631050
B         1.35491973357016    1.30156331856523    1.76103813969698
H         1.89841225232848    0.80632747913982    0.82986506274772
H         1.54188012131172    0.70199780308382    2.76790697557636
H         1.81830267440402    2.49580480534925    1.90255413060712
C        -0.20605328911570    1.47785664740586    1.46724008265132
N        -0.76010751178038    1.66594431387546    0.25645279477336
C        -2.11773018777352    1.76093915064558    0.37707077777952
H        -2.76148877548851    1.92379162877360   -0.46217320878239
C        -2.40847741338016    1.61651643464124    1.69140303932730
H        -3.34917583972803    1.63178316965346    2.20124792619175
N        -1.22172941897272    1.43545230918330    2.34621700056381
C        -0.03267744274788    1.82422768082076   -0.97057680942567
H         0.54451787704335    2.75156663606511   -0.94658709268344
H        -0.73148899430294    1.85344760841320   -1.80415130640858
H         0.66148715360060    0.99469714506093   -1.10202450294627
C        -1.10353640392788    1.31520075566487    3.77191704476319
H        -0.17424495145134    0.80373044721108    4.01183953747049
H        -1.94893254386565    0.75169580900071    4.16518939903248
H        -1.08726458572762    2.30384371437542    4.23616233716417

