73
CSD_code = AKOVOM | q = 0 | S = 0 | Stoichiometry = C28H36N6NiS2 | MND = 4
Ni       -0.13874461240805    9.07602059823610    4.82851594207407
S         1.72713975374733   11.00280024328097    1.22060243923541
N         1.52692958812231    6.80108631487942    4.07713911389078
N         2.32249998253723    7.84927645681186    5.81086395928199
N         0.76995316284999   10.05081715461754    3.62534454552241
C         1.31992166920899    7.83267958652012    4.91471146275171
C         2.68245121374418    6.13899125624145    4.42847289535265
C         3.34076968470811    5.03673767251206    3.89935669436693
H         2.96903034922623    4.50883156382936    3.03672907087143
C         4.50632435073937    4.62840044932540    4.51527005994216
H         5.03950974241474    3.77531148729151    4.12473910247766
C         5.01011320912427    5.29300681259647    5.63069398365699
H         5.92352154885900    4.94169850852695    6.08549174848049
C         4.36769797631909    6.39104501652198    6.16572569008660
H         4.77470349591574    6.89025790192662    7.02951874838722
C         3.19553913125456    6.81534675639263    5.55388372668058
C         0.61646508494292    6.48994208237048    2.98985252435146
H        -0.18567413697841    7.24314667045355    3.07583157740182
C        -0.00576314835185    5.10945638659675    3.17823299008260
H         0.73621190901715    4.32096589724827    3.09116478083619
H        -0.77041922385750    4.94798104126596    2.42311021737734
H        -0.47029200093531    5.04396333828895    4.15978956283811
C         1.29852956521799    6.66626630584047    1.63689798409913
H         1.69110395240331    7.67676297790804    1.54767668424251
H         0.57674814409817    6.50762833658262    0.84018227389896
H         2.11641646698760    5.96298488709046    1.50799870587046
C         2.40224821843821    8.84115479738514    6.86810758608209
H         1.52300803670180    9.48852082536453    6.70819164255590
C         2.27282563008981    8.18810243979645    8.24067271578058
H         1.34540628181656    7.62242467117075    8.29673632948277
H         2.25264645813347    8.95529727606754    9.01000673109381
H         3.10259095911876    7.51671609633038    8.44299768354657
C         3.65706220998401    9.69664787640808    6.72085888493909
H         4.55960152000353    9.11335603965043    6.87885742583055
H         3.63619437899423   10.50310722383496    7.44899133548718
H         3.69327693014062   10.13135476860503    5.72425588496791
C         1.16570465804865   10.43806798168058    2.58537686731647
S        -2.00506249358378    7.14891802887635    8.43609463389748
N        -1.80444852801347   11.35091481617520    5.57987412982008
N        -2.60001388536139   10.30272530908562    3.84614413481572
N        -1.04738491365907    8.10137716292403    6.03175858854094
C        -1.59744426377932   10.31932181371672    4.74230739836796
C        -2.95996518081279   12.01301088886587    5.22853531527946
C        -3.61828217589882   13.11526306391673    5.75765256129858
H        -3.24654464516178   13.64316495068694    6.62028369453231
C        -4.78383718767871   13.52360018563853    5.14174287607057
H        -5.31702468751821   14.37668454199605    5.53228038086950
C        -5.28762524544461   12.85899853508601    4.02631512055882
H        -6.20103557487324   13.21030703026483    3.57152210582164
C        -4.64520778290222   11.76096447346765    3.49127722236737
H        -5.05221374401038   11.26175549202056    2.62748194351410
C        -3.47305139497447   11.33665778232884    4.10312065241013
C        -0.89398174181475   11.66205092730800    6.66715913014186
H        -0.09185017087634   10.90884363501294    6.58116554762171
C        -0.27174479878423   13.04253247356448    6.47878466324906
H        -1.01372240250481   13.83102268963990    6.56583047303345
H         0.49289181708620   13.20400623490962    7.23392749688124
H         0.19280928592751   13.10801985526634    5.49723993978821
C        -1.57604794039496   11.48571927557817    8.02011139625432
H        -1.96862580062492   10.47522329006256    8.10932766140574
H        -0.85426714092513   11.64435564026474    8.81682768828277
H        -2.39393474154203   12.18900047616395    8.14900804044131
C        -2.67975174812329    9.31084957699036    2.78889463537187
H        -1.80051350419159    8.66347587795229    2.94880884656973
C        -2.55031461275804    9.96390223362527    1.41633054488194
H        -1.62288195670969   10.52955713788593    1.36026542905166
H        -2.53015387926654    9.19671204400863    0.64699134327808
H        -3.38006568039716   10.63530811499020    1.21400961894455
C        -3.93457220433050    8.45536101345641    2.93612275165771
H        -4.83710454428994    9.03866361953250    2.77812291247121
H        -3.91370950677387    7.64890855272030    2.20798205489968
H        -3.97080108185507    8.02064511937275    3.93272146634154
C        -1.44276808355582    7.71402243719571    7.07182803012817

