62
CSD_code = AKOVEC | q = 0 | S = 0 | Stoichiometry = C28H30Cl2PRh | MND = 8
C         2.57994324845545    2.72705702119737    5.73998504307156
C         2.72409033153476    2.87519255575758    7.16682268542463
C         1.86463607621552    1.91567026416218    7.80070085597921
C         1.12373191402112    1.25729394143475    6.77780343738519
C         1.57482187954751    1.76121560742874    5.49722366032148
C         3.42954808759979    3.43766248190112    4.73797989869744
H         3.27053028094895    4.51463749652543    4.79271901468499
H         3.20071701565844    3.11051015003923    3.72760328908359
H         4.48078273052256    3.23671431708804    4.94561205292197
C         3.82785895733045    3.65024004960843    7.81188906208402
H         3.64948833354832    3.79077955365855    8.87494360385535
H         3.93470171663231    4.62735690505085    7.34598814637064
H         4.76860660325798    3.10895672635718    7.68870218599039
C         1.86827525291491    1.55941796368228    9.25351134631306
H         0.87951917867917    1.25738532651330    9.59323992786043
H         2.19848115276691    2.39833247842261    9.86207607880071
H         2.55619367117705    0.72719217930159    9.41562648547109
C         0.22300919260726    0.07290771888682    6.92831663136646
H        -0.71358675391231    0.22922689215515    6.39356588696922
H         0.00491161526820   -0.12958861511878    7.97405255779839
H         0.71009569991545   -0.80480332184083    6.49977490609128
C         1.15145275016181    1.18629976837270    4.18311277387671
H         1.47831781759614    1.81107453082965    3.35579505542437
H         0.06686699330038    1.09856673251868    4.13623869310646
H         1.58077798722082    0.18940004663030    4.06395528281201
C        -1.30188429441832    6.09323641610510    7.99493316873751
C        -1.01845083596698    7.32831669249913    8.56688938619622
H        -0.16232476239998    7.45118217494805    9.21421330067560
C        -1.83596691222688    8.41376404832098    8.30462758913610
H        -1.60730850913777    9.37172434174303    8.74930075647285
C        -2.93690638905417    8.27743392907525    7.47707074814812
H        -3.56652069632473    9.13050243874351    7.27046108698589
C        -3.22739972292726    7.04510760354488    6.91486647214810
H        -4.08502671412176    6.93242255694251    6.26848901504259
C        -2.41921334078621    5.95499819532413    7.17566890142037
H        -2.63717091760087    4.99478553963231    6.73089500573791
C         0.97254336988557    5.16925619021826    9.47479550516683
C         1.11718700862967    4.67548830611656   10.76626555727510
H         0.41542445346163    3.94881825381266   11.15069273963939
C         2.15730866311926    5.12119938943292   11.56509937537395
H         2.26313811799078    4.73583856191813   12.56906999139023
C         3.05822027937604    6.05566765262120   11.08265101848500
H         3.86468621269492    6.40282415860812   11.71162805941958
C         2.92743499420431    6.53844813079086    9.78922679760458
H         3.63432545381718    7.26067940740548    9.40806848381992
C         1.89662479505898    6.09172242927726    8.98405655618953
H         1.79521681882243    6.44296101120785    7.96560597808891
C        -1.49826437302258    3.71263701671371    9.40757484441323
C        -1.83289353589722    2.39067818540779    9.15102539749807
H        -1.40338488723814    1.89766454623370    8.29053864728757
C        -2.73468007619352    1.73136537207929    9.96868704699597
H        -2.99667448297922    0.70354765606559    9.76395501177881
C        -3.30621373782058    2.39192251612558   11.04264500495568
H        -4.00987468029800    1.87869789404777   11.68143901912441
C        -2.98563656631641    3.71786678163081   11.29304756766734
H        -3.44117576320106    4.23614326116347   12.12425049312435
C        -2.08834896357934    4.38060433520649   10.47764993009931
H        -1.84136769218568    5.41727904333838   10.66363072573879
Cl        0.79507208909880    5.51969808224406    5.71689447494104
Cl       -1.46951753594898    3.05519479904610    5.74198021836561
P        -0.32057359801468    4.59373789923397    8.32958655352125
Rh        0.64712499852918    3.40008641261391    6.66008100957440

