26
CSD_code = AKOWUT | q = 1 | S = 0 | Stoichiometry = C11H10MnO4(1+) | MND = 9
Mn        6.19521134416904    4.33607360133904    5.99866129193756
C         7.40955159773285    6.08325391320227    7.07216874521251
C         6.19772282378070    5.98673664207707    7.81380121239308
C         4.97419057550859    5.96790305297933    7.09395908320060
C         4.97794802263569    6.19605390879110    5.70739324197051
C         6.18043282465888    6.35605786232294    5.00288514063831
C         7.41911426420968    6.33808016912363    5.69254631637998
C         8.69113679483493    6.67322195776423    4.98939822987039
C         5.18335150010531    5.77202845494230    9.96146971783642
C         4.87805268638256    3.37699567408463    5.20769065615842
C         7.44329516925092    3.52325719905501    4.96891519733615
C         6.38346033527995    3.10541848956299    7.31368565248224
O         6.32129926615861    5.94707667424023    9.12899793162519
O         4.02231927223132    2.82298779878099    4.70731141301564
O         8.25555057569741    3.07987173992225    4.31122851856015
O         6.50339506042311    2.39012680375924    8.18794660353827
H         8.33161046902138    6.13047372435888    7.64070853753012
H         4.03003414990103    5.94828888165550    7.62444830745786
H         4.03105962263194    6.32467087387508    5.19233420493033
H         6.15794278352920    6.63729989052898    3.95562906363949
H         8.66109725285882    6.38460296544321    3.94091262890438
H         8.83712455035663    7.75487856612812    5.03049667031515
H         9.54991199077003    6.20539081641213    5.46532168395472
H         5.57387985901482    5.73557363563600   10.97612722974131
H         4.49045735493791    6.61169903008701    9.87111744511907
H         4.67154985391865    4.83267767392760    9.73434527625210

