61
CSD_code = AKOWIH | q = 0 | S = 0 | Stoichiometry = C24H28N6NiS2 | MND = 4
Ni       -0.34160406272319    1.68164320421918    2.66509619249874
S         2.89016831366405   -0.61699225790145    4.73807275858160
N         1.69599304777395    3.79156038642504    3.03964075834086
N         0.87260539959430    2.95224656830080    4.86754997600553
N         0.90238029945871    0.42449073511060    3.13218056038845
C         0.78579296981499    2.91908655651046    3.52103609491033
C         1.84601021236824    3.84085889973441    5.25835002151748
C         2.31416776952605    4.22261820599695    6.50640953745891
H         1.91718900379688    3.79403246922055    7.41241454208790
C         3.32100129022029    5.16788726420657    6.53657209811633
H         3.71625037555577    5.48910599832889    7.48770223487039
C         3.84554403079974    5.71499097501574    5.36610835179894
H         4.63380296221167    6.44836412859509    5.43792098448358
C         3.38542651185735    5.33868100942455    4.11876927297478
H         3.80179145459137    5.76296321113147    3.21888509378206
C         2.37443200447121    4.39039197908953    4.07838960431030
C         0.13097343292925    2.11097307533734    5.76957726816869
H        -0.57166669948731    1.50232469190361    5.18795426522975
H        -0.41346805530348    2.71759623862977    6.49584372182121
H         0.81093017155183    1.44030515539933    6.29815669334800
C         1.91037699303891    4.07387460409358    1.64316674776283
H         1.54591721917273    3.21397023194076    1.07227985192889
H         2.98438538113652    4.17821035403644    1.46673883004919
C         1.17756028199216    5.34680346094406    1.20927937777717
H         0.10818183655448    5.22196610093309    1.39326074944285
H         1.52355876172671    6.18714364336048    1.81556676183221
C         1.41316568007888    5.64617871805376   -0.26435653856283
H         2.47105934326978    5.80530962481178   -0.45921471872341
H         0.87067238251167    6.54005775119288   -0.56079884606038
H         1.07399009766608    4.81871462785381   -0.88262747550252
C         1.74115973507417   -0.01868080727353    3.83402836858743
S        -3.57342237081849   -0.61678385085149    0.59185794208231
N        -2.37911994682646    3.79167588892126    2.29053649298714
N        -1.55563470731995    2.95236651968078    0.46267430464523
N        -1.58571373472725    0.42462561027986    2.19793783588217
C        -1.46890210114471    2.91919168695192    1.80919513643723
C        -2.52900850881364    3.84098990910539    0.07181802103767
C        -2.99718750891784    4.22263894588253   -1.17626793861191
H        -2.60010506191004    3.79409155993591   -2.08224592012073
C        -4.00418169161182    5.16773223217098   -1.20649116682954
H        -4.39948281468875    5.48883675837626   -2.15763806917001
C        -4.52885853723039    5.71476712327717   -0.03605562483530
H        -5.31729061107408    6.44794977409128   -0.10790465156337
C        -4.06868680488428    5.33860128835486    1.21130820047964
H        -4.48515554632386    5.76284748998423    2.11116116970542
C        -3.05751982325310    4.39049827733335    1.25175054012649
C        -0.81389803805452    2.11116600943437   -0.43933298669766
H        -0.11108498707765    1.50271096027715    0.14228572944352
H        -0.26965465960084    2.71785299208159   -1.16569259646161
H        -1.49374119706540    1.44029736782783   -0.96780759601402
C        -2.59355720246546    4.07400933413501    3.68699822912878
H        -2.22907340854703    3.21413041685730    4.25791115229643
H        -3.66757405034934    4.17831197140798    3.86339599823787
C        -1.86079510005549    5.34696758740209    4.12089245739548
H        -0.79139177357036    5.22212130123475    3.93705233780488
H        -2.20672165525746    6.18727445997396    3.51451778685234
C        -2.09658289652399    5.64641448043952    5.59448552499774
H        -3.15450001597643    5.80557004495802    5.78919649615822
H        -1.55411581348837    6.54029820622006    5.89096171027409
H        -1.75750022392964    4.81896775286489    6.21283224170133
C        -2.42468735338683   -0.01849890323444    1.49621410340710

