89
CSD_code = AKOWAZ | q = 0 | S = 0 | Stoichiometry = C44H36N6NiS2 | MND = 4
Ni       12.63362546649535    0.00008938205513   -0.00007215101013
S        13.51642126896868   -0.25202427654309    4.39900497976176
N        12.97763294644974    2.86973110253309   -0.60035140567359
N        11.03664558008187    2.40882100985456    0.25517443599791
N        12.63235969542169    0.09152297946831    1.81053426267622
C        12.20940288045966    1.86683636387157   -0.12706151166476
C        12.30365323727976    4.06621734160474   -0.50794142307622
C        12.64587638833169    5.36851392527082   -0.84095648299460
H        13.61483315837952    5.61586223857445   -1.24355571551490
C        11.69071700874185    6.34373654739580   -0.63178028652487
H        11.92076469171993    7.36865736107323   -0.87922842023001
C        10.43278718095216    6.03946917275908   -0.11151812267861
H         9.71697623610471    6.83480722412568    0.02783025463377
C        10.08351334623198    4.74722633028761    0.22712118485836
H         9.10795878015216    4.51164004974491    0.62148438213158
C        11.04133907466476    3.76452757104347    0.02854363712543
C        14.30982323406967    2.72522473790130   -1.14748486747208
H        14.44345253497797    3.48000911464377   -1.92588406788367
H        14.36998105357037    1.73184665131741   -1.60677596972653
C        15.36365872040087    2.86077042624162   -0.07713806021596
C        15.47990588445644    1.86623781338734    0.88404948386879
H        14.81887114186411    1.00445290097139    0.83790616481076
C        16.41312691227995    1.97131440238326    1.89685872728442
H        16.48637571988379    1.19489856620794    2.64217020575403
C        17.25124456358231    3.07301102024547    1.94746541373289
H        17.98458491666646    3.15803136557516    2.73532430748893
C        17.14754476992725    4.06529011898142    0.98804607436833
H        17.80063398309362    4.92479897019957    1.02491202537510
C        16.20305734933769    3.96326496723299   -0.01919461511842
H        16.12664527894989    4.74169967795012   -0.76538422242455
C         9.89021253027614    1.67338307967181    0.72170332726759
H         9.50619224944060    2.14469173529158    1.63210826709630
H        10.23500715510296    0.66177698426748    0.98007614639354
C         8.80483450926688    1.58846410050154   -0.32510747459322
C         7.47519934581033    1.49433278560508    0.06247829182307
H         7.22298926471746    1.49950222145895    1.11370008575062
C         6.47499347604979    1.38901836462027   -0.88726442582905
H         5.44413908661208    1.31431277388026   -0.57393244377221
C         6.79344490717091    1.38454822684956   -2.23460020478711
H         6.01190237262941    1.30581952445887   -2.97547018398515
C         8.11722578131964    1.47963867548534   -2.62706070134465
H         8.37866738557017    1.47247663320570   -3.67472807727040
C         9.11816470374577    1.57755286457826   -1.67728439960185
H        10.14752755073970    1.63371613315646   -1.99990647262033
C        13.04468899129479   -0.06348678170147    2.90490233494558
S        11.74424075432226    0.25354640117626   -4.39733705714653
N        12.28927000053357   -2.86953789566231    0.60015536440023
N        14.23037424082803   -2.40898885899683   -0.25528993937619
N        12.63400390838428   -0.09102961539154   -1.81080251649417
C        13.05772343899790   -1.86676296159546    0.12697541699752
C        12.96299934377378   -4.06615830871592    0.50769195623246
C        12.62051132348581   -5.36839680905002    0.84066720961598
H        11.65149834457619   -5.61555930942822    1.24324018536658
C        13.57548560005561   -6.34380292320041    0.63151276950222
H        13.34522782219861   -7.36868326789506    0.87893539001547
C        14.83349026348858   -6.03977886175702    0.11128825983357
H        15.54914650870785   -6.83525798786654   -0.02805241471867
C        15.18302815889318   -4.74759912356030   -0.22732075755314
H        16.15864643302822   -4.51220481138115   -0.62164078999544
C        14.22539539985229   -3.76471190340371   -0.02874164662990
C        10.95706620715982   -2.72480510080030    1.14720611647448
H        10.82328989088841   -3.47951093739804    1.92565542987120
H        10.89703769283482   -1.73139571465326    1.60643725812071
C         9.90320689963936   -2.86024561560331    0.07686536007833
C         9.78709909861691   -1.86575937807246   -0.88438185646190
H        10.44828590632615   -1.00410241607754   -0.83836802253605
C         8.85380375780747   -1.97071834990514   -1.89713529512838
H         8.78067119127772   -1.19432192078349   -2.64247164794331
C         8.01544161313334   -3.07223093661139   -1.94759977365234
H         7.28195197822945   -3.15709290410645   -2.73533711102400
C         8.11902038289607   -4.06448050076613   -0.98813577784282
H         7.46574429571223   -4.92385259961244   -1.02489161510154
C         9.06360563027726   -3.96259141991626    0.01902572200958
H         9.13995243643030   -4.74102394565188    0.76522510719672
C        15.37696145699459   -1.67371075319129   -0.72168274168889
H        15.76107473031753   -2.14510076680201   -1.63200572518712
H        15.03231465729812   -0.66206332215527   -0.98012679121341
C        16.46217601503111   -1.58894664617799    0.32531226418122
C        17.79193554138944   -1.49552698152456   -0.06201450839498
H        18.04436706077266   -1.50107993591776   -1.11318090103883
C        18.79199262709028   -1.39044725361840    0.88791235958936
H        19.82295007080963   -1.31633327054365    0.57478227435519
C        18.47325941879571   -1.38551887748990    2.23517913746823
H        19.25468413638264   -1.30703308517715    2.97619698355625
C        17.14935083474266   -1.47989014523025    2.62739064818130
H        16.88773523096254   -1.47240819956507    3.67501336361571
C        16.14856457784784   -1.57755248641335    1.67742726410471
H        15.11909107232976   -1.63319544280738    1.99981278227077
C        12.22142173363259    0.06363276561205   -2.90510402104378

