100
CSD_code = AKOZAC | q = 0 | S = 0 | Stoichiometry = C48H40N6O5Pd | MND = 4
C         1.96062138058076    9.10258858325672    1.45955364444201
C         1.32288919325051    8.89302332031913   -0.66739191062299
H         0.83494374460630    9.16395948061546   -1.58071842041018
C         2.08042215033274    7.81624823659013   -0.35585278509844
H         2.37003034687251    6.96887841901490   -0.94210874238927
C         3.31560623707680    7.04002824951148    1.65552353978717
H         3.36512546594749    7.38292795252750    2.70248361014767
H         4.31827358384298    7.12022337571867    1.22377280523769
C         2.82231199563778    5.61139339079366    1.59095486221447
C         1.47238923398192    5.36708327941607    1.53912328043572
H         0.76658384322206    6.18438359847286    1.56259330918989
C         0.96964082617087    4.06073598413159    1.46750729797180
H        -0.09932432491976    3.91637904137744    1.42802016642962
C         1.82190148378142    2.99546109373950    1.44701507943028
H         1.44660315967707    1.98393302887960    1.38576862787825
C         3.21585610383266    3.19710649568707    1.51555821620685
C         4.10497212546731    2.10178661913617    1.51305842108258
H         3.69081587756656    1.10551917358113    1.44820365483918
C         5.45504868968925    2.28891782473369    1.59457381664774
H         6.12885918698198    1.44475154267664    1.59326403236753
C         5.97027399634785    3.58927655202735    1.68382776551528
H         7.03862873016092    3.73425399422949    1.75368689765516
C         5.13543663445525    4.67195205211163    1.68425660737560
H         5.56484074655071    5.65728084628605    1.76576261280832
C         3.73455504372381    4.51996335516307    1.59580834441046
C         0.70217037367643   10.98210414435604    0.54940508170195
H         0.22416468000842   11.10821866124845    1.53204519110463
H        -0.04104596075812   11.14077635574669   -0.23520424616447
C         1.86829456549417   11.98132072914760    0.38685463517569
C         2.35256498805544   14.38357149445067    0.69480641535964
C         3.67085740003050   14.38159989025404    0.25117306256258
H         4.10350722974661   13.47506900644566   -0.13709398880011
C         4.41606651107603   15.54597478702567    0.31163463255077
H         5.43924018603341   15.53704273424830   -0.03479398428138
C         3.86471185198202   16.71471408000208    0.80651298998531
H         4.45351322580414   17.61860265539940    0.84975535620507
C         2.54883071671099   16.71862211547879    1.24144486089637
H         2.10816394533006   17.62802201204696    1.62287588099896
C         1.79529030534166   15.56332482743905    1.18630590989044
H         0.77017365496635   15.55771020326641    1.52599999870824
C         2.19950972595497   11.71520547152914    3.57482452359862
C         2.53252215085572   13.89292566189023    3.97305880966004
H         2.28008181582136   14.89011507512759    4.26727205069494
C         3.69489934085115   13.37799558580000    3.51251068748991
H         4.63736415846382   13.85022024722837    3.32861825554007
C         4.46673088287781   11.16546238640903    2.72164862110194
H         5.38413735204246   11.74921505821677    2.59563534062714
H         4.11975779579446   10.85185194815616    1.72729048027948
C         4.76983940135014    9.92783423480144    3.53788430963031
C         4.18632435133693    9.68324588206046    4.76206666975916
H         3.55348090621513   10.42760833494581    5.23918920432449
C         4.49537766589437    8.51823867744155    5.49011750785671
H         4.01504967771333    8.35281772855691    6.44354941864516
C         5.41524699085712    7.62825940568139    5.01770523910623
H         5.66634387316715    6.73998167214341    5.57862444120370
C         6.07744135210401    7.86863054215337    3.79583903310360
C         7.08533101945668    6.99736241783404    3.33226499270247
H         7.33939145405384    6.13801710566387    3.93603615291153
C         7.72666520261772    7.23119152456886    2.14828006409889
H         8.50203606255760    6.56411288043140    1.80188328758680
C         7.36500858161964    8.33804269580471    1.36700594503804
H         7.86166641907115    8.50403458799761    0.42238255985201
C         6.39500947116440    9.20455567164317    1.79101553758361
H         6.13235153416937   10.04348096203302    1.16702578439907
C         5.73393071048308    9.01378771151402    3.02570460131547
C         0.28361802512694   12.99105930053345    4.50682252260561
H         0.16926477934292   13.99315994091574    4.92959148416511
H         0.10439756745186   12.25046880753542    5.29157383619083
C        -0.75320257580431   12.84040591942032    3.37863753122959
C        -2.82656527473632   11.60561228130575    2.86797625701723
C        -3.06553056719349   12.11416500857386    1.59559084426369
H        -2.39881594706188   12.84714017554518    1.17261982598107
C        -4.16697742880944   11.68036132161281    0.87916461379285
H        -4.34554650836072   12.07939206124096   -0.10887516658514
C        -5.03368591111543   10.74455171501031    1.41489197272990
H        -5.88928040430817   10.40920778967138    0.84797056828560
C        -4.79607156868195   10.23833469564991    2.68297189677919
H        -5.46636205573392    9.50595115284498    3.10772528729774
C        -3.70227802204093   10.66576733029864    3.40799956548392
H        -3.50884765383227   10.26759735115443    4.39259450544426
C         0.81224888669187    8.72560925332492    5.31177398341112
H         1.31353779738944    8.65787282292921    6.26643491183995
C         0.86842411769084    7.81468462402469    4.22885381625690
H         1.37950028071418    6.86104366619518    4.20066412749884
C        -0.31278692984188    9.57277813161904    5.08399099420640
C        -0.24509111514728    8.13258928405187    3.35468263542912
N         1.24547659183869    9.65710724345966    0.46299188764312
N         2.45428982341170    7.96038213068622    0.95416976166359
N         1.53235654648844   13.24966745916530    0.68360543559510
H         0.61284339224806   13.40972812812801    1.10110149521012
N         1.63293192158564   12.86231780614160    4.01307252007551
N         3.47407319957881   12.04836364192136    3.27911799177359
N        -1.73550864607897   11.98421445729227    3.66199018653826
H        -1.65322155469704   11.45113084002630    4.54088382275556
O         2.96361192713491   11.59566280598717    0.02489514021817
O        -0.64626105051787   13.49953416434558    2.34833239928772
O        -0.96921023531405    9.17630283866751    3.92438973445923
O        -0.62513729044208    7.62932138707740    2.31680625839740
O        -0.81034259642456   10.46942120611501    5.76836323022773
Pd        1.59644145450379    9.63627060140562    3.50502407535974

