89
CSD_code = AKOZIK | q = 0 | S = 0 | Stoichiometry = C44H36N6O2Pd | MND = 4
C         3.54813487828820   17.26047236165332    7.48462408889868
C         4.42366149990664   18.59251648604540    5.93228676449079
H         4.67781298952776   19.51571993860073    5.45365272978861
C         4.68621390655140   17.31137356485098    5.57596129020821
H         5.21366476759109   16.91401054273428    4.73383056496195
C         4.21787115381555   15.06422283375733    6.54741686366013
H         3.69116475755427   14.67889705663008    5.66791729233425
H         3.69296553509028   14.70635845320979    7.44146114302191
C         5.65141393948324   14.59805958139313    6.53293757957382
C         6.14014458042193   13.95717816464741    5.42345281975002
H         5.48527686758684   13.76537243034922    4.58485815660539
C         7.47580951476913   13.53881989222250    5.35173532514911
H         7.82475895389270   13.03162929745342    4.46476669394257
C         8.32334484284128   13.78407570829369    6.39327328046638
H         9.35849320160813   13.47840330028281    6.34580652816564
C         7.86619519942739   14.44395148149780    7.55281718908642
C         6.50634206104031   14.85185141707298    7.63938933786530
C         6.07579063391472   15.49424841270211    8.82183591510915
H         5.03612593148939   15.80037089967315    8.92816852337540
C         6.94974816548073   15.74872461922290    9.84265934021268
H         6.61041519971623   16.25822333810406   10.73232581577138
C         8.29342660953732   15.35872775647602    9.74630488623501
H         8.96733676852185   15.57015982425681   10.56308399036786
C         8.73793470780719   14.71157766813837    8.62902769230630
H         9.76838652231468   14.39633863824113    8.54731002393987
C         3.25295159480063   19.64300496700689    7.89265294829033
H         2.15610004185562   19.60473940287331    7.98655756285132
H         3.54301579575685   20.58248542122960    7.41931781638577
C         3.87987107485239   19.61500072810643    9.32259686920551
C         4.07663060480943   18.30598878199952   11.30044713638766
C         4.26413354304238   19.34914905007595   12.21143844414446
H         4.11453781407597   20.36715502448370   11.89152043926142
C         4.64190360100666   19.08028202911945   13.51332436049882
H         4.77736520699827   19.90099590688006   14.20325615823588
C         4.84146685653980   17.77921029761848   13.94328170000405
H         5.13278309754135   17.57830105646966   14.96351056372713
C         4.66841609241382   16.73672150936639   13.04742205341181
H         4.83043280679585   15.71598602310554   13.36586303089518
C         4.29388264796514   16.99568632946331   11.74431103127745
H         4.17481330979188   16.17142464151839   11.03807004221576
N         4.14058042848324   16.50910838293347    6.54224171583937
N         3.71930674926125   18.53637784342966    7.10186222981439
N         3.62373330094899   18.49458375618547    9.99379404755110
O         4.53490016149856   20.58362200654914    9.68133466220738
Pd        2.51820026220008   16.95402750768640    9.19459020622802
C         1.48840196283724   16.64759724859857   10.90463462700584
C         0.61290365408111   15.31555748032952   12.45698859828001
H         0.35875482666471   14.39235445151559   12.93562546686774
C         0.35035754211256   16.59670000805581   12.81331820342370
H        -0.17708689927708   16.99406459768986   13.65545258703576
C         0.81860167338836   18.84384646554244   11.84180538704386
H         1.34529801153441   19.22920235546148   12.72129426552337
H         1.34348937397141   19.20171132690515   10.94775161188985
C        -0.61495934822276   19.30996196421575   11.85629012416561
C        -1.10369499065025   19.95084481607046   12.96577354286809
H        -0.44881924788406   20.14269182039420   13.80435218885537
C        -2.43937954189019   20.36913702596457   13.03751589978967
H        -2.78833076618207   20.87633341077568   13.92448037381529
C        -3.28692852212172   20.12381621918842   11.99600418378126
H        -4.32208922796948   20.42944401812073   12.04348824372785
C        -2.82977380318790   19.46394204821977   10.83646138713235
C        -1.46990164090010   19.05610963248295   10.74986302426444
C        -1.03934752044590   18.41371929317066    9.56741417961261
H         0.00033581785899   18.10767030309899    9.46104659903667
C        -1.91331775436981   18.15917495871372    8.54661837929155
H        -1.57397726362521   17.64968289746783    7.65695125143134
C        -3.25701397876115   18.54910288001525    8.64300070992066
H        -3.93093589896015   18.33761077320952    7.82624726902423
C        -3.70152633215264   19.19625262409275    9.76027650499525
H        -4.73199492682402   19.51143019342135    9.84201900822432
C         1.78350903740730   14.26506486510127   10.49656507392193
H         2.88036320630339   14.30331518265877   10.40263354110311
H         1.49344874684779   13.32558470131571   10.96989935016155
C         1.15650569617479   14.29307279748055    9.06665451848917
C         0.95980264403665   15.60204132271558    7.08876110480818
C         0.77229193854183   14.55887320382613    6.17778243778197
H         0.92187505521344   13.54086999001306    6.49771267414729
C         0.39450679921644   14.82773158568978    4.87589947146942
H         0.25902568919389   14.00701142586079    4.18598037798912
C         0.19493994720925   16.12880058602581    4.44593534138106
H        -0.09639700134998   16.32970235325156    3.42571169091349
C         0.36801193388906   17.17129800954089    5.34178095791231
H         0.20599392778039   18.19203083597030    5.02333471950753
C         0.74255656156549   16.91234150377437    6.64488918025841
H         0.86162173338403   17.73660790474520    7.35112748142286
N         0.89595919855582   17.39896451725880   11.84701819968740
N         1.31721262246938   15.37169359911452   11.28738781928100
N         1.41267064597541   15.41345977399008    8.39542096277726
O         0.50147823974264   13.32444269533981    8.70793462626099

