57
CSD_code = AKUFUI | q = 0 | S = 0 | Stoichiometry = C20H30Cl2O2P2Pt | MND = 4
Pt       -1.16921977986327   -1.12517297301683    4.55187873284566
P        -1.12448070147105    0.12282894220925    6.51223859775412
Cl       -3.06667939865241    0.09338325058854    3.99152091098765
O        -2.42303115233503    1.03012293662850    6.66977819751268
H        -2.95521953441563    0.96854683283846    5.84613870341189
C        -0.98374272668677   -0.57360736609054    8.18453931273831
C        -0.12401425881791   -1.63591040766222    8.44094935822700
H         0.43949615488691   -2.07934860597620    7.63481701633902
C         0.25749041606494    1.38686991712590    6.41358232485252
C        -1.72547574477724   -0.02225362074931    9.22371616821731
H        -2.40333403293222    0.79231883935548    9.01988645555718
C        -0.73013906820476   -1.57172634536217   10.76143848549943
H        -0.63024682197261   -1.95880686739319   11.76486676371068
C         0.00191231030379   -2.13026722861389    9.72649907390121
H         0.67146865608415   -2.95525079917892    9.92030339153288
C        -1.59572864860963   -0.52038055088376   10.50712735387324
H        -2.17155100956144   -0.08674189337347   11.31180362989104
C         1.60258903701528    0.72532934668509    6.68660638864127
H         1.77396700314724   -0.10333373050649    6.00359746335867
H         1.64911306789979    0.34856361733641    7.70698441437600
H         2.40553408937271    1.44849493009493    6.55113383617453
C         0.20597515681902    1.91724228072612    4.98024777839855
H         1.00162445819278    2.63980419712623    4.80597622637717
H        -0.74928683362118    2.40357522189611    4.78362864221190
H         0.32950272875332    1.09299413710872    4.26668407270927
C         0.00251776272248    2.50267907831958    7.42085735498531
H         0.02193061195466    2.11236721963035    8.43727302678047
H        -0.96496702585304    2.96876038447228    7.24792938188328
H         0.77349735018457    3.26636928910920    7.33087766043600
P        -1.21510145044020   -2.37374636395299    2.59224445049651
Cl        0.72769013508211   -2.34414793426385    5.11249370106804
O         0.08376991931318   -3.28060520744589    2.43450346199523
H         0.61540872211279   -3.21858772661147    3.25858041356175
C        -1.35710944719338   -1.67833364629945    0.91961564609335
C        -2.21736108535704   -0.61647301071131    0.66312391353732
H        -2.78051942243951   -0.17276602524452    1.46935159768781
C        -2.59676226783104   -3.63807088421020    2.69240531723253
C        -0.61584439286043   -2.23002439063659   -0.11973438768115
H         0.06245018780539   -3.04422570709067    0.08414118058696
C        -1.61268916194667   -0.68176779572132   -1.65771911571860
H        -1.71336686318962   -0.29528534807146   -2.66130124202198
C        -2.34425377134341   -0.12287696871010   -0.62263067968212
H        -3.01418925423733    0.70179166859952   -0.81647869434503
C        -0.74659677697882   -1.73269816550668   -1.40335174146107
H        -0.17116506472982   -2.16660761606629   -2.20816582216310
C        -3.94219534504190   -2.97695007013488    2.42000557208405
H        -4.11324573002851   -2.14792528183175    3.10266092501353
H        -3.98957718714810   -2.60078552049032    1.39944738577190
H        -4.74490466618188   -3.70018752386330    2.55650219174506
C        -2.54414821743610   -4.16771398881323    4.12597227721379
H        -3.33942985406435   -4.89046170454117    4.30112274262086
H        -1.58858817619447   -4.65360249844652    4.32223947917871
H        -2.66752014639672   -3.34313515275735    4.83920743270592
C        -2.34227075810627   -4.75435974787479    1.68554597964651
H        -2.36225643067395   -4.36455506878732    0.66894581540581
H        -1.37466191624634   -5.22029903308365    1.85818102014971
H        -3.11316364387779   -5.51804931987962    1.77631045609038

