29
CSD_code = AKUFIV | q = 0 | S = 0 | Stoichiometry = C8H14N2O4Pt | MND = 4
C        20.41947969063356    6.53741074314312    2.02170928371769
C        20.51337500642934    5.49167093125500    0.87488594929133
C        15.07720102933702    5.51076945898490    0.51091372435084
H        14.23591635362596    5.35611135971518   -0.18029215758419
C        14.97155966105248    6.93516902641816    1.10018477396102
H        14.92383181449066    7.64653156357946    0.26618774918998
C        13.70823610280281    7.07301798470158    1.95766885411540
H        12.83561019939924    6.97921422106341    1.30925422304964
H        13.68054892903721    8.06803472322021    2.40592759311938
C        13.64018037146739    6.00293137966445    3.04609478761059
H        14.44531420694354    6.13815946487119    3.77154530582698
H        12.69999588988054    6.10563025371001    3.58837778147346
C        13.73494744175757    4.60852429525644    2.43567953926659
H        13.71524313748940    3.85692636124453    3.22459057893089
H        12.87122773883973    4.43698193299614    1.78951158756473
C        15.01457032698394    4.45751898137727    1.61774509208666
H        15.89691271782325    4.56225194798034    2.25912371924143
H        15.04847215247674    3.46209771832807    1.17195317304464
O        19.20745277383099    6.96850567632645    2.26698647319322
O        19.36835456827443    5.19501439582567    0.31387874152647
O        21.38421041529423    6.91710534581496    2.64397779316893
O        21.55727708794833    4.98612844922629    0.53301126817650
N        16.36435431427375    5.39776529583108   -0.19490570628719
H        16.35799971338858    5.91249251353334   -1.07639737763884
H        16.58690242513608    4.42521187971277   -0.40825773223996
N        16.19680886310097    7.23602683546827    1.86407463535467
H        16.10521776087219    6.91474128569627    2.82861691492390
H        16.37671886779157    8.23819422513396    1.90355714898053
Pt       17.83878043962021    6.19936174992107    1.06339628258641

