65
CSD_code = AKUGIX | q = 0 | S = 0 | Stoichiometry = C18H40O4P2Pt | MND = 4
C         1.79082742064860   11.69896676234510   -4.21736213487969
C         1.85345536248639   11.97873144750368   -5.71551219323699
H         1.98096794265290   11.06672816049282   -6.29001395576764
H         2.67779295367399   12.65117636190701   -5.93975417273667
H         0.92589335886121   12.45184761533819   -6.03555336999959
C         1.36172612493997   12.97170552548822   -3.48377448216751
H         0.32776116447862   13.21703593517443   -3.72223865971639
H         1.98738417876298   13.81105966720755   -3.77966725309217
H         1.43653753932870   12.82786554236853   -2.40130683886269
C         0.79861163968274   10.58786318310401   -3.89202914648756
H        -0.21079123908942   10.90970103612058   -4.14663089412139
H         0.82530498865240   10.35672939400456   -2.82922048085203
H         1.00990353757667    9.68321772144594   -4.45618692491835
C         4.09922998702443    9.58411370998094   -3.98365874620657
C         3.80125362871838    9.20246763611125   -5.42841573017743
H         4.11255999478813   10.00080666061277   -6.09880090287883
H         2.74583712517972    8.99571820631179   -5.58439941371361
H         4.35871623136404    8.30301336058435   -5.68852235255212
C         5.61421646221027    9.66737326665306   -3.79366528183217
H         6.05800078174402    8.67437494780286   -3.84070611312953
H         5.84381503162492   10.11036537086627   -2.82620626294756
H         6.06658568925935   10.28435895998741   -4.56652085996140
C         3.52030197141192    8.57506630643443   -2.99762544218612
H         4.01606120274203    7.61118700800513   -3.10362782956783
H         2.45434288425521    8.43176302824604   -3.14931160065129
H         3.67246119966421    8.92898528226842   -1.97372587611159
C         6.42740222444739   11.90249546215622    0.22068588344786
C         7.87169243343363   12.36758277491927    0.07141011380512
H         7.99520682363027   13.39493142398542    0.40222689627161
H         8.17486300284901   12.30226109881400   -0.97121829690248
H         8.53017726085536   11.73561436191162    0.66656742862723
C         6.35014061209364   10.39895844837559   -0.04481297609487
H         6.84743799122252    9.84318619312059    0.74935532945127
H         6.83754628654865   10.15684352408716   -0.98672480272802
H         5.30425192535402   10.07619579829893   -0.08602520991984
C         5.89272245840970   12.18748185849253    1.61743674563883
H         6.45239859730238   11.60162957153321    2.34722547746665
H         4.84461690392765   11.91005987818922    1.68565644559024
H         6.00139220059513   13.23594870341386    1.88219735278494
C         4.85629373166097   14.44868646563120   -0.77131855981978
C         6.03496899510457   15.28816233840540   -0.29671184542603
H         6.88556645464244   15.13300070632109   -0.95782598002979
H         6.32620123451060   15.03848918344826    0.72024962988830
H         5.77050129915521   16.34549621857998   -0.31990799245684
C         4.37737487048901   14.97817600998953   -2.12072046458547
H         3.60832692043941   14.31743517181919   -2.51730878097762
H         5.20239308666921   15.01197274891731   -2.82810943888174
H         3.96384247640288   15.98028613620978   -2.01695382832593
C         3.69753151673229   14.46983350280195    0.21525428577989
H         3.25353693063680   15.46411618287492    0.25630757278064
H         4.01536429177593   14.19343390648410    1.21553753354041
H         2.92640141859876   13.76234117554000   -0.10430787092623
C         1.85046365511931   10.61230928465996    0.55402459725390
C         0.96779928840104   10.12652864984969    1.68011304410620
H         1.45787149072545    9.28926659964108    2.17443898100777
H         0.00903621253319    9.80078372988411    1.28660186083417
H         0.83198706217092   10.92121252028397    2.40963576050358
O         4.41544160111565   12.29470784416126   -4.27798700564235
H         5.19469079085921   12.52318937991345   -3.68609367521723
O         6.19546657538956   12.69105139152708   -2.40750240373103
O         1.55450301518749   10.34935140245444   -0.63351691351831
O         2.88461835109851   11.27382755676097    0.83329894281001
P         3.47834485439247   11.29638064821314   -3.49634318797760
P         5.37601839373886   12.66992014940781   -1.15656837298216
Pt        3.42374959913549   11.45592990256944   -1.23902935669207

