126
CSD_code = AKUKOG | q = 0 | S = 0 | Stoichiometry = C57H63ClN2P2Pd | MND = 4
Pd       10.14748016042826   19.61591958593236    5.88568099209243
Cl       12.10019883128563   19.61050962670815    7.08632471307424
P         9.73171598751623   20.60459842319817    3.55493995639153
P         8.81240054391988   19.36427719000960    7.70117176159270
N        11.15441044009001   20.18296574918664    4.12502224229635
N         9.69251862442342   17.56441728790202    3.97123075393079
C         9.02815404627854   22.27412679620263    3.89522189516457
C         8.72737060419072   22.59451957355843    5.21620673760206
H         8.91241362245138   21.85764021938879    6.00198844935706
C         8.20894398124605   23.83338388571030    5.53961001087965
H         7.98327338420624   24.06929972442191    6.57023887530976
C         7.98770737304935   24.76861384511295    4.54020460619432
H         7.58434925390944   25.73944539389878    4.78736835675001
C         8.29134257854455   24.45977985591381    3.22480820421955
H         8.12541129826008   25.18989842299224    2.44618177070355
C         8.81417929833707   23.21952869246321    2.90032001508853
H         9.05348796678694   22.98465285325886    1.87216277808821
C         9.62359442464316   20.50024070291115    1.73918862994095
C         8.37373154210720   20.33516153190893    1.15201475199247
H         7.49565583020801   20.29003261929869    1.78430129236723
C        10.76294527987018   20.56689177191612    0.94868270967198
H        11.72986712225057   20.69339994736960    1.41505023818168
C        10.64684286349099   20.47944681523533   -0.42757634358369
H        11.53045242851489   20.53550812386821   -1.04607754216110
C         9.40089451697044   20.31817773298515   -1.01148184293059
H         9.31428186701690   20.24824810648810   -2.08601559798845
C         8.26316174478860   20.24380699132038   -0.22195439365598
H         7.29294677347973   20.11568655399016   -0.68027281745056
C        12.47968276964048   20.57760157566153    3.88934443532035
C        13.33314149543399   19.67209674671333    3.22690198430021
C        14.63252204861775   20.05826236487422    2.94397569504594
H        15.29359429292403   19.37844587203660    2.43076007089276
C        15.10572168138686   21.30468199366747    3.31044134962295
H        16.11709223592009   21.59515010958269    3.06567045887639
C        14.28852496189800   22.15917727831118    4.01931271485816
H        14.67192278848463   23.11680162528063    4.33820631977476
C        12.98346782783627   21.80834416424700    4.33511806834284
C        12.84894410839033   18.27584872415316    2.92401984967984
H        11.78825445706924   18.32185621047744    2.65164228747849
C        12.96231689101952   17.46384772498329    4.21642183568676
H        12.29730608163719   17.88378218600773    4.97475263520594
H        13.98360225234579   17.49217559990095    4.59318769317440
H        12.67535754206094   16.43173734907439    4.03299722106662
C        13.60660863408437   17.57620925801062    1.79869529794106
H        13.62873889908745   18.18665676212182    0.89671082532231
H        13.11632113103341   16.63194846272003    1.56886670315145
H        14.62897962218077   17.35086776208272    2.09412313965439
C        12.15242043901496   22.75122661917863    5.16927646251499
H        11.20494504164171   22.25026932322963    5.42061993113385
C        12.84842223441079   23.07958939485976    6.49169160885132
H        13.04997885586299   22.16444823426775    7.04382407267310
H        12.20947625909101   23.72370000402825    7.09312061522533
H        13.79062041875374   23.59544177910218    6.32523768244710
C        11.84536280382380   24.03098626038631    4.39019099218842
H        11.40852252060622   23.79844772880223    3.42001723377388
H        12.75776926643128   24.59916091375985    4.22284195781985
H        11.14498526534195   24.65643668258377    4.94129875985340
C         8.59165635404991   19.56932525747028    4.45548337276495
H         7.60699240488327   20.02706209408535    4.57915959367076
C         8.57214517220461   18.16348300887821    4.08819148112299
C         7.22679680765799   17.50295073015405    3.90846191003840
H         7.34138638853682   16.42307652638345    3.83398952603540
H         6.75556682421102   17.87177921509521    2.99746540491496
H         6.57398760407266   17.74254020202752    4.74592202478318
C         9.88740683225500   16.24134875529003    3.61066897997508
C        10.34125166215412   15.35560992210561    4.60496960355558
C        10.66477724093658   14.05699556256213    4.25144735419970
H        10.99855683121235   13.36150586353277    5.00602271988302
C        10.56604084273862   13.63181826493201    2.93874870885983
H        10.82800030363993   12.61720557838347    2.67597519589539
C        10.12156385548532   14.50669595390771    1.96726850519901
H        10.03645535131071   14.16276704366087    0.94666747299849
C         9.77102326697271   15.81230509925679    2.27895574743646
C        10.38593236581178   15.80807764192911    6.04801417206594
H        10.41495443041654   16.91890512191153    6.07232210645209
C        11.60476178868256   15.28326655071200    6.80480040475862
H        12.52105175773370   15.53248492295716    6.27764911885166
H        11.55538383764020   14.20409861404797    6.93250169661000
H        11.64365719566362   15.73476315403391    7.79262472348718
C         9.10140114277139   15.34761372190809    6.74371395891392
H         8.22948154941718   15.75597814820102    6.23673421849585
H         9.09635796110285   15.67384519123957    7.78262165617818
H         9.03162752841503   14.26088307091082    6.72241127129097
C         9.26000997881772   16.72954352419722    1.18985497996167
H         9.05722040768907   17.71346443111392    1.62621470052135
C         7.95711568952518   16.18906801610099    0.59255418548461
H         7.22344745800850   15.98782445627583    1.36967573470268
H         8.13945393742025   15.26332375126184    0.05219730537683
H         7.53645316967623   16.91351048878852   -0.10301544678898
C        10.29413779734567   16.92191241581373    0.07944942282130
H        11.18434594191071   17.40568218658195    0.46915535449928
H         9.88103002559809   17.55001470575675   -0.70777574374809
H        10.58024056933488   15.96790875164523   -0.35650647595562
C         9.13931511714588   18.25845154245654    9.11688079923408
C        10.41611568865402   17.73379450452965    9.28133539362588
H        11.18145972266157   17.97262717523561    8.55598967612211
C        10.70380632429352   16.93554375079144   10.37514390719844
H        11.69824908950050   16.53218762674374   10.49603272617166
C         9.72306223382655   16.65694316735000   11.31107638371854
H         9.94575555439216   16.03118395903737   12.16272227917575
C         8.45237085883038   17.18852402226548   11.15701217272101
H         7.68581034277674   16.97990124656308   11.88931820829559
C         8.15911120520498   17.98960393005113   10.06966282277762
H         7.16369621577522   18.39545577401865    9.96208945606293
C         8.74548162610467   20.96805583866073    8.58733604386001
C         9.81150701041510   21.85190453515635    8.44246209012137
H        10.65570831833395   21.57546800388638    7.81655679279927
C         9.80454089221841   23.06478815138479    9.10911609169382
H        10.63584090762057   23.74458564540974    8.99580757345298
C         8.73726202254575   23.40610638378267    9.92231011756086
H         8.72968352961491   24.35424557537648   10.43978522175224
C         7.67697949645764   22.52677414560526   10.07417891983438
H         6.84362674635403   22.78846722904847   10.71005070067696
C         7.67945864939866   21.31187157613418    9.41442244409786
H         6.84244110684764   20.63913633726829    9.53340088570597
C         7.04370816226242   19.08427142860123    7.34245930771624
C         6.27011060291301   20.13665688966165    6.85495557657053
H         6.70467956837570   21.12315309956882    6.75814681929743
C         4.94693840338828   19.93359900299715    6.50966350568143
H         4.35651196834817   20.75880725660335    6.13831526581611
C         4.37861430843332   18.67612711285284    6.63907338686707
H         3.34453467600653   18.51855544402660    6.37096001664816
C         6.46962868683414   17.82193285521754    7.45407885472240
H         7.06191482281671   16.99608090360115    7.81792371081742
C         5.14342290595832   17.62213694260986    7.11101014206154
H         4.70774574605851   16.63854426712760    7.20931865681880

