94
CSD_code = AKULAT | q = 0 | S = 0 | Stoichiometry = C39H49Br2N2NiP | MND = 4
Ni        1.52552943786329   10.31575896827883    5.81726284570734
Br       -0.21331326756883   11.61155371918105    6.00129718318286
Br        3.11142371332780   11.90482519672913    5.90999496740980
P         2.25311106683346    8.76987637648803    2.95763965776666
N         1.16564017813881    9.71189684197829    3.61278728547521
N         2.68432469931309    8.91506387510739    6.24980940701758
C         1.86382836501788    6.98077092684066    2.76001879105928
C         2.13175695291729    6.25717407625303    1.60479207834177
H         2.60646126438207    6.73706836139721    0.76158886632822
C         1.79031981268719    4.91770651135397    1.53469192820061
H         1.99535024605257    4.36168002398876    0.63188572163735
C         1.18635486539008    4.29051114251046    2.61193892921006
H         0.91631544656720    3.24722827955584    2.54802100280995
C         0.93000924343140    5.00323050597575    3.77184776406768
H         0.46459341722387    4.51739689599723    4.61694835020129
C         1.26954639930883    6.34071748094695    3.84077398534201
H         1.07348166214956    6.90844481183791    4.73771349610742
C         2.83583969563786    9.23994807501477    1.30339159134390
C         4.13298312070426    9.63446702220538    1.00666951437093
H         4.88151457605028    9.69093910484612    1.78261787454364
C         4.46693050017718    9.96040685641581   -0.29677318943320
H         5.47689358021365   10.26231158886943   -0.53019965969421
C         3.51176974820583    9.90466950531805   -1.29877833928269
H         3.77948120505868   10.15967910525588   -2.31301754513435
C         2.20929130166890    9.53530349508503   -0.99904619040083
H         1.45899218928139    9.50775756393867   -1.77478641339175
C         1.87053495766670    9.20448902427489    0.29959588438073
H         0.85646036152070    8.91772985134716    0.54704599876271
C         0.18083190026515   10.34588865643763    2.79384267798839
C         0.46128425160709   11.57461422087869    2.17473886828373
C        -0.51936728779623   12.16060769736746    1.38695616421678
H        -0.31404630671006   13.10646052547432    0.91031344622629
C        -1.75044494106316   11.56483373670829    1.20390371986721
H        -2.49625380439264   12.03515338485092    0.58002610074498
C        -2.02865339706838   10.37365416762278    1.84236634664149
H        -2.99883839845331    9.91620775704461    1.71856114049933
C        -1.07989314446241    9.75578433751166    2.64289832103742
C         1.75990187557772   12.31480755442836    2.38187900659975
H         2.45088180686627   11.66604031846689    2.93372513073296
C         1.51123615044894   13.57300149248488    3.21816931188393
H         0.98757619474649   13.33068909554665    4.13628277867738
H         0.90327636906047   14.28441328096897    2.66432200110943
H         2.45785740118963   14.04074131852455    3.47668974324111
C         2.42675177368983   12.71239287276890    1.06335465107879
H         2.48110595269569   11.87483437119956    0.37383642170443
H         3.43545743146057   13.07042028505885    1.25772711198008
H         1.87501917730762   13.51412754808476    0.57884563516854
C        -1.43544215510159    8.47037978564712    3.35001015174620
H        -0.57959552393345    8.17136196806219    3.96082825405210
C        -1.71501536490393    7.34653475890250    2.35052129849823
H        -0.85858625191139    7.19001856539817    1.69491956232297
H        -2.57835255256899    7.58493334866572    1.73410007804342
H        -1.91446280374750    6.41318899666375    2.87481781108707
C        -2.62759554248709    8.68507617881421    4.28380115415130
H        -2.42969030467565    9.51867711195170    4.95412253212958
H        -2.81373776631367    7.78794416546365    4.87317672007608
H        -3.52855393255621    8.91256935372416    3.72010639801517
C         3.71281987175162    8.75569878722877    4.08835238704371
H         4.50563571227189    8.16600884760311    3.62385894434626
H         4.00796068646276    9.81139216656352    4.17103110195526
C         3.39126513955662    8.22294576001051    5.44103515822927
C         3.96557907450659    6.88107828870391    5.77624375733866
H         3.61444706339620    6.52894582642845    6.74448915573542
H         5.05331683868857    6.94075967299838    5.79456676693720
H         3.68505245904369    6.16289321171394    5.00500689802682
C         2.57317395785185    8.61156666704321    7.62894793605053
C         1.34642570899223    8.19861294225972    8.17497814494066
C         1.28344961331082    7.89466443031478    9.52712421352245
H         0.35214756787925    7.55393982773838    9.95028215735054
C         2.39054826968401    8.02830227061347   10.33985242449597
H         2.32333898129228    7.79197458019508   11.39092867571905
C         3.57898782195175    8.48288016782241    9.80409400289634
H         4.43420769733150    8.60901524811371   10.44880785243697
C         3.70255160412458    8.77997935766810    8.45496425766511
C        -1.11631180634163    8.70185778408288    7.96492616763787
H        -0.89643661294776    9.73340316548849    8.22973209588297
H        -1.43429298232513    8.17594478508652    8.86176897529338
H        -1.94547645599821    8.70237105847323    7.26154454320764
C        -0.16974760573861    6.54117583816660    7.10797326711089
H         0.72334235117984    6.02014016852677    6.76364322755734
H        -0.96377747279575    6.40329313622760    6.37655202609229
H        -0.48198000768630    6.07912027943521    8.04260988373471
C         0.10312101538091    8.03172297183803    7.32958978131705
H         0.26286079355492    8.51295716596036    6.34495567758095
C         5.02406034221588    9.31841100811816    7.95687418716584
H         4.97697924723964    9.48406557730816    6.87733835417520
C         6.16901596486003    8.34270696905432    8.24769589062507
H         5.93350319504997    7.33515403350095    7.91045071707673
H         6.37735483452870    8.29854644135029    9.31341659743162
H         7.07277792900874    8.67626596244024    7.74294135003963
C         5.31426116981429   10.67352069892327    8.60895421174257
H         4.52364425528910   11.38158762801951    8.38105050463561
H         6.24570745885620   11.07513215893474    8.21907936476586
H         5.40011077278269   10.57830307429581    9.68816501853123

