98
CSD_code = AKUMAV | q = 0 | S = 0 | Stoichiometry = C43H48Cl2N4Ru | MND = 5
Ru        5.08543071313728    2.56468222328628    4.16107113627882
Cl        6.72704968678340    2.87937099446172    2.45148022837704
Cl        3.50562671965503    1.54250815593731    5.59550101023287
C         6.69111162500501    2.48231398874162    5.44069352083686
N         7.44288938307709    1.39084158212361    5.63539164724342
C         8.69420446695493    1.66358275807352    6.33863119940180
H         9.54712256168379    1.42334135003098    5.69721307552398
H         8.76264784212212    1.04967083634917    7.24261444272633
C         8.58913811460562    3.15663764860052    6.62935175576904
H         8.52677574764115    3.38199175506201    7.69998735986541
H         9.42121283370460    3.72611232695747    6.20956459744914
N         7.33719977879971    3.52124847476525    5.97023381206390
C         7.10925181809217    0.03433947065936    5.36840862772830
C         7.67486765636728   -0.61602636230458    4.26638316612947
C         7.35041332999942   -1.94731749900103    4.04550466454314
H         7.77492332483923   -2.45318972525125    3.18943185160377
C         6.50150409761372   -2.64028361544135    4.89544461936837
C         5.99747222440439   -1.98670242443102    6.00976165928373
H         5.35742041103441   -2.52263813746878    6.69564660296818
C         6.30227556238949   -0.65955035396999    6.27720690394285
C         8.60503863545637    0.09522597358966    3.33296462990876
H         9.59370408757395    0.19766912666619    3.78161248103534
H         8.23801256006252    1.09324879742475    3.09153851703350
H         8.71838403703597   -0.46587675045301    2.40822193443777
C         6.16446024821892   -4.07865045038708    4.64230248448603
H         5.12029129560873   -4.27612067608748    4.87640142618463
H         6.77582479754747   -4.72205734799973    5.27580519997718
H         6.35274458291459   -4.34708632950169    3.60527609605462
C         5.76515002413854   -0.00398767243612    7.50909885452016
H         6.47138748503579    0.70855928473728    7.92932191234936
H         5.52497572987320   -0.75114392314105    8.26128327994221
H         4.84900552332688    0.53551292714981    7.26063515132186
C         6.88266614440765    4.85882426304228    6.11288148119936
C         5.96922553286264    5.15550311517059    7.12635980616312
C         5.58653149556522    6.47553057927194    7.30764589665736
H         4.86581472063281    6.71192431517610    8.07696236122472
C         6.09679580618136    7.49052747077052    6.51340233970433
C         7.02313322552238    7.17048975699478    5.53110115032720
H         7.42920218950823    7.96044880413062    4.91556757363481
C         7.42969323122793    5.86372510788851    5.31288901763439
C         5.42013339362374    4.06366130120293    7.99168630336769
H         6.20252242703663    3.63672037632382    8.62027010809241
H         5.00830011863331    3.26715631099914    7.37220107558524
H         4.63330111439354    4.44672809866709    8.63459691532647
C         5.67181946338837    8.91398289061251    6.70576878514968
H         5.44835773707917    9.37355432749136    5.74457651427265
H         6.47229971778916    9.48797366137098    7.17325642875928
H         4.79043005437944    8.97202909318273    7.33880543519052
C         8.41804683211812    5.53712825831047    4.23653411399934
H         9.40127743468642    5.32686161798098    4.65902914980908
H         8.52711278580389    6.37426498966810    3.55214058974657
H         8.09341615539984    4.66179833720576    3.67508888302491
C         4.53172503278079    4.40474804436762    4.31057561226463
C         4.99230667259844    5.40925193491763    3.40164441662597
H         5.68065691836801    5.22568501045031    2.59531432710190
C         4.39887181575559    6.61780998855625    3.64704207587782
C         3.51085558875887    6.44763873081318    4.79292778728137
C         2.74792259049552    7.35373925554991    5.49863493984666
H         2.74754213309173    8.40301378527702    5.24359635364889
C         1.98519838327776    6.90066574307622    6.57090308715395
H         1.38206689989334    7.60285356119999    7.12952991294554
C         1.99016133736590    5.56353357810238    6.91971961849266
H         1.37867149589364    5.22203167789739    7.74256264244505
C         2.78439521568841    4.64738901151958    6.23684006691109
H         2.77571998781219    3.60981915997182    6.52692491682146
C         3.56838725924189    5.08401277076385    5.18392944065897
C         4.59589704316791    7.83590801849889    2.88538719681138
C         3.55184652349574    8.73633524067150    2.66099885203200
H         2.56264727203471    8.50576584540179    3.02675891286221
C         3.76307773751707    9.89498907183268    1.93800699181928
H         2.94373527033199   10.58019357497089    1.77197431913770
C         5.01659380444517   10.17964736187965    1.42190275014382
H         5.18088547670909   11.09017090951914    0.86436009735450
C         6.05513099152767    9.28186093233525    1.61426885559360
H         7.03158901231739    9.49160848917164    1.20102668302677
C         5.84681921160260    8.12086866560148    2.33116767248947
H         6.65408643039899    7.42176979659601    2.48222708591638
C         3.79169461016624    2.07581114177917    2.63627359614842
N         2.80392833119756    2.64548165841633    1.92085932149281
C         2.41922673636635    1.81679230475814    0.88357168310224
C         3.18266282142886    0.69456562036579    0.97238711238068
N         4.00743072533549    0.87871859206578    2.05971802521390
C         2.18788510659807    3.91565122233864    2.18894013923783
H         2.37512381241488    4.18511355458496    3.22784022395373
H         1.11277526597366    3.84567451560649    2.02644579959602
H         2.60216161988577    4.69277813391362    1.54237116732479
C         1.35858275375786    2.19405276777940   -0.08551849386004
H         1.30467266034247    1.45641480979883   -0.88101705287508
H         1.57074596469939    3.16752116565060   -0.52589215698554
H         0.38423821228747    2.24433236453420    0.40191486332138
C         3.22645641994919   -0.53886316885864    0.14673635585321
H         2.54932098965167   -0.44810327174866   -0.69753207974442
H         2.93026276219276   -1.40871811855072    0.73417543525768
H         4.23453426292410   -0.70993741922339   -0.23032992148216
C         4.97376024123897   -0.06675092542946    2.54372875536107
H         5.27169367407088    0.22700660692622    3.56290616725142
H         5.86027847911741   -0.08068810405306    1.90377540350069
H         4.54357796059931   -1.06852269197876    2.58887326300355

