54
CSD_code = AKUNEZ | q = 0 | S = 0 | Stoichiometry = C21H26Cl3NO2Ti | MND = 6
Ti        1.04997455060111   19.48442062612928    0.27660022684962
O         0.48235688281189   20.58795918057133    1.43337447020404
C        -0.41127592173934   21.49600871772832    1.68456317184306
C        -1.46137459224477   21.68438975119253    0.74194202034512
C        -2.43194060361069   22.66801088626270    0.98238098329254
H        -3.22561489399517   22.81029476835394    0.26360528947613
C        -2.36984064026016   23.43243526311061    2.11990654942225
H        -3.11663894058994   24.18795110904634    2.30936197414951
C        -1.33881853530367   23.24228305033114    3.03957955348559
H        -1.32607828368173   23.86668071887331    3.91767933074249
C        -0.35000434455147   22.29452735654990    2.85524466111697
C         0.79917186955203   22.08182639648073    3.83086373173124
C         0.70053253136368   23.00469112903525    5.04993652419634
H         1.53937137262690   22.80867123348560    5.71381352917621
H        -0.21642311462317   22.82454002359230    5.60648689454967
H         0.74453585020217   24.05104566385033    4.75686562446077
C         0.78609467941697   20.62851757626558    4.33171551491821
H         1.57980925701964   20.48498688790652    5.06145485349722
H         0.94581967572716   19.91974464504851    3.51750543638420
H        -0.16715908459567   20.40103007070237    4.80605870211145
C         2.12356360351318   22.38095593041781    3.10987552137671
H         2.95544027391616   22.25201257421708    3.79868440267529
H         2.13045963918664   23.40601767102936    2.74312299217787
H         2.27964889573440   21.71125854687615    2.26262260252323
N        -0.76462278018826   19.90657526849407   -0.74399217411457
C        -1.53753314727077   20.88906651405963   -0.44635140731043
H        -2.34788594556916   21.14936457101137   -1.13830397930135
C        -0.92959637591165   19.25074813486315   -1.97478882674839
C        -1.23692055281328   17.89040044797419   -1.99652047242821
H        -1.39275464762680   17.37251358519730   -1.05920789798690
C        -1.35090542371508   17.23581904692389   -3.20921823699221
H        -1.59466139302725   16.18387977327423   -3.22606437081870
C        -1.15672874217857   17.92134416113473   -4.39901515910367
H        -1.24029716088878   17.40252288314471   -5.34209284167853
C        -0.85727312565179   19.27347450713446   -4.37617307605871
H        -0.70602746380364   19.81071189668232   -5.30032595009992
C        -0.75232362239176   19.94513595690549   -3.17074738626953
H        -0.49362611077343   20.99450327940374   -3.13701963466123
O         1.62904504033545   18.16939810432415   -1.18667519971791
C         2.42951175272812   18.50785166659315   -2.32889366480168
H         3.41308236017131   18.86559638292465   -1.98822727479966
H         1.92347657768956   19.30376105173687   -2.88039532175169
C         2.55930555297791   17.20854950524755   -3.10902355595901
H         3.38105093903556   17.23132800743925   -3.81984846875730
H         1.62880195651426   16.99767096804842   -3.63869519087553
C         2.77351181837363   16.21485809162111   -1.97237247831525
H         2.49088022326987   15.19843710947426   -2.23530421140958
H         3.81885481961264   16.21968596679259   -1.66337645184149
C         1.88575645320257   16.78333618359143   -0.86193539661254
H         2.37019235150911   16.72877931755025    0.12134283453812
H         0.91675255875704   16.27512247210675   -0.81289938073895
Cl        3.01080873251781   19.05730972219611    1.20784633814666
Cl        1.81561492974604   21.20153887372181   -1.05657704672769
Cl       -0.10399970110464   17.76675677337712    1.24361132249301

