54
CSD_code = AKUTIL | q = 0 | S = 0 | Stoichiometry = C27H25IrO | MND = 8
Ir        5.08575179102713    8.90582849492030    1.71107910846755
O         5.52603705100357   11.01996674131384    3.80922899334497
C         3.74985639006196    8.54955164577226   -0.14553020048388
C         4.83076200853078    7.61083538310969   -0.10699354380940
C         6.05654556931161    8.31195770807012   -0.30964640350621
C         5.75727144847845    9.69831556037827   -0.29698500175751
C         4.31095952544274    9.84343367111778   -0.20829423180289
C         2.29762937672949    8.19437476962143   -0.21018386019073
C         4.67054939161266    6.12247987024243   -0.18609258843579
C         7.38492501370541    7.68379844584006   -0.59518418837950
C         6.69512216457904   10.80806616844920   -0.66492826664642
C         3.57319332762475   11.12396728531688   -0.45568296886063
C         5.35289290782260   10.20876809030141    2.99875067652304
C         5.59126936699571    7.33844500687456    3.01491080671710
C         4.30831188672564    7.43432979407951    3.05515636389320
C         3.04707278351077    7.03983427043391    3.36517160808092
C         1.88943754387684    6.71730656453299    3.56023586439600
C         0.57344690296771    6.29780269542204    3.82130852214545
C        -0.49691110980746    6.87689868830737    3.13251472696879
C        -1.78851362870603    6.46263637564271    3.38901493944463
C        -2.03212343896920    5.47282899305308    4.32873389303438
C        -0.97511678561630    4.89463415040599    5.01498029646666
C         0.32112563144756    5.29914566724303    4.76692878381188
C         6.74401673744789    6.57269582265319    3.36424728187292
C         6.58663320178574    5.32595589396230    3.98123655987367
C         7.69506351296321    4.56622549111614    4.29615628976627
C         8.96929396254225    5.03070229791152    4.00603680773274
C         9.13319665652141    6.26645393329973    3.39908444264927
C         8.03162182476663    7.03417890713710    3.07858857481691
H        -0.30122069437337    7.64931050404805    2.40295162906908
H        -2.61245540903998    6.91345747707575    2.85497652078533
H        -3.04441280229027    5.15295058501899    4.52664643816835
H        -1.16523999752252    4.12386240058952    5.74777949490025
H         1.14927348001764    4.85391867098971    5.29883493818542
H         5.59099538423799    4.97073295509337    4.20164120068305
H         7.56780170536499    3.60414227863712    4.77091567526065
H         9.83223991692503    4.43075636146427    4.25415296454362
H        10.12593589073679    6.62941577078672    3.17596776943160
H         8.14507924079742    8.00156238662750    2.61088498286136
H         2.06630915468508    7.35445573095552    0.44416074930273
H         2.02619722251640    7.91195867404109   -1.22989163380071
H         1.67665199110719    9.03738128938967    0.08538450632896
H         5.53655137110886    5.61078559097192    0.23223064576389
H         3.78661201628722    5.79316003258738    0.35857960993024
H         4.56292615714377    5.80976298599757   -1.22700927898083
H         7.45437488441135    7.42519763800835   -1.65427378060060
H         8.20063396287967    8.36430261581197   -0.36050481949174
H         7.52480876460720    6.77116065209272   -0.01747956348025
H         6.67320342959564   10.96700602492893   -1.74531089550101
H         7.71747214824537   10.57176507360863   -0.37803197200715
H         6.41251781228524   11.74037110528738   -0.18070428236821
H         3.47014287735942   11.29048810868524   -1.53031795164191
H         4.10501134900670   11.97317877939277   -0.03202926654777
H         2.57696912948955   11.09519792135849   -0.01969696690299

