62
CSD_code = ALABAS | q = 0 | S = 0 | Stoichiometry = C25H24N6O6Zn | MND = 5
Zn        1.60054875509605    1.93763345568905    9.65998472986785
O         1.03203653694027    0.49091813136117   10.98244563122955
O        -0.44399800059897    0.67633452378199   12.50836513300254
O        -0.02268079253002    2.31771037210912   11.21445840305636
N         1.60022700925493    3.94501673735023    9.66020261343460
N        -0.00592938622039    2.39485531385449    8.37106479344646
N         0.16658456365887    1.15493269096227   11.59184999025624
N         1.60075213531176   12.36200419102639    9.65976699959740
C        -0.28545967955304    3.69883505048198    8.28818475059348
C        -1.40680028323600    4.15032776258621    7.59814106044809
H        -1.63286047833559    5.20257791383750    7.54063976204627
C        -2.24146339298845    3.22524867637879    6.99253973921328
H        -3.11944718291019    3.55408191047796    6.45652418694069
C        -1.93376501345591    1.87820560875552    7.08649810891098
H        -2.55788026995178    1.12795334160220    6.62869265027836
C        -0.79683143661002    1.51046943541998    7.79194063112160
H        -0.49902587535078    0.47628678349226    7.89669962773306
C         0.66630049974338    4.58746151155818    8.97688220703911
C         1.20271483454877    8.88283120080914    8.53717203598853
H         0.91464672998692    8.36076968651218    7.63655076339578
C         0.63462011808395    5.97491447857886    8.94914148022635
H        -0.13025204337373    6.50448365565914    8.40570411686365
C         1.60015680028023    6.69633710568079    9.66013335220984
C         1.60017201100776    8.15434251398460    9.66007396750767
C         1.60048304612051   10.99823060995090    9.65988818584370
C         1.20673373480594   10.25728793661766    8.53059299382444
H         0.89084785837654   10.75746483163095    7.63035069666887
C         1.34986871246308   13.13045162656285    8.46029878889279
H         1.87800175070303   14.08302427976952    8.55471176619142
H         1.77271815174284   12.61244479654294    7.59630171196690
C        -0.13984005639328   13.39901967252844    8.23932572231682
H        -0.28446172441275   13.97678353318820    7.33040668663415
H        -0.68914536047084   12.46524783366904    8.15325167879043
H        -0.55211744721510   13.95924540655653    9.07520736784387
N         3.20668798524060    2.39503028471031   10.94932225096067
C         3.48612096187630    3.69905118562377   11.03198115307061
C         4.60765997749074    4.15074595159394   11.72156753840746
H         4.83366323081761    5.20302397494525   11.77880421552304
C         5.44260955273379    3.22584000046847   12.32702221043594
H         6.32074602688344    3.55483189762344   12.86268509272460
C         5.13497637970993    1.87876155584265   12.23338871435645
H         5.75927857646603    1.12864045686180   12.69114535457513
C         3.99787022431799    1.51081234018846   11.52833526372917
H         3.70017382506240    0.47657594457950   11.42380937328837
C         2.53414955307830    4.58754968896339   10.34344625418678
C         1.99767065546036    8.88290511285295   10.78291398947382
H         2.28559440880028    8.36090524972862   11.68361141325980
C         2.56574159012768    5.97499877115226   10.37114766479133
H         3.33059171190429    6.50464168111022   10.91455183751025
C         1.99397136810727   10.25736029035458   10.78930928631079
H         2.30999020467329   10.75758662004326   11.68947434323336
C         1.85189445342380   13.13058874056961   10.85910375298313
H         1.32413312464928   14.08334958902564   10.76450301492243
H         1.42883529948516   12.61292850533750   11.72320739911797
C         3.34170373881828   13.39864778138397   11.08002943114481
H         3.48649486622842   13.97661041510778   11.98879376868583
H         3.89067687457085   12.46470637696809   11.16638718671312
H         3.75421763348662   13.95850413964632   10.24401494952740
O         2.16975625336404    0.49233987642392    8.33600023104629
O         3.64519631130503    0.67976910103444    6.80967393598303
O         3.22426315395944    2.31945705893481    8.10596007857709
N         3.03507723343699    1.15710482995561    7.72721796208440

