39
CSD_code = ALACUL | q = 0 | S = 0 | Stoichiometry = C16H18N2S2Zn | MND = 4
Zn        4.09630762941301    4.15187735171234    4.42144992653379
S         4.07774825945406    3.75256736746627    6.73857865735547
S         4.35710661826045    4.75153011067881    2.16334184854406
N         1.88997415400824    4.18715185662436    4.63791044961011
H         1.35436488439981    4.69944618312513    3.93687899622259
N         3.69972544949272    2.12756556884897    3.60560008371640
H         3.87047860220045    1.32992301070376    4.21827577935261
C         1.62293155240830    4.74923909197091    5.92781570560156
C         2.54800941215622    4.57845020915492    6.96398609853992
C         2.25548475716466    5.09983722872200    8.22194229191444
H         2.97112663937398    4.95232584884050    9.01566152689294
C         1.08991452395546    5.80459670392746    8.44245912912414
H         0.88287796155605    6.20409053597136    9.42361325909321
C         0.19992035200524    6.01882925000736    7.40231246114179
H        -0.70133020465440    6.59095140231028    7.56048719165022
C         0.47086278686669    5.48905847306054    6.15361976053220
H        -0.21672922857339    5.65741812974239    5.33516775739432
C         4.51788610771204    1.99849140626912    2.43693809498094
C         4.84727167163658    3.13616064274473    1.69129789932036
C         5.61117323499654    2.98759118759463    0.53618147007597
H         5.84924300687734    3.87035750090907   -0.03648472510824
C         6.06902285900357    1.74616138338467    0.14503247762768
H         6.66271344375969    1.65224172085681   -0.75153357499365
C         5.78760772992210    0.62798484578613    0.91339243364290
H         6.16395763668585   -0.34237964168337    0.62820573903470
C         5.01351721070947    0.76082325260681    2.05203338112149
H         4.79486230571731   -0.10726134513204    2.65999773772963
C         1.52406773626517    2.75943379472920    4.52976345828809
H         1.89737906012064    2.26364778157026    5.43413886893507
C         2.25229811589135    2.16611437686519    3.30896140701378
H         2.11796492668125    2.84554050410547    2.45839797074772
C         0.00824169412017    2.59780107136835    4.45776874128229
H        -0.27781676000132    1.55387240692230    4.53730723849301
H        -0.37644596863268    2.99874169756521    3.52133053847985
H        -0.45286476415751    3.13292229115590    5.28554643357694
C         1.74531378103750    0.77811044837907    2.92778775634158
H         0.72491334221119    0.82200007394527    2.56061226209493
H         1.78324689490298    0.10712412825786    3.78452361409867
H         2.36727258505228    0.37036214893028    2.13339985399574

