49
CSD_code = ALADOI | q = 0 | S = 0 | Stoichiometry = C23H15N6O4Re | MND = 6
C         0.06728683541731    9.67049965793429   -1.06696384303758
C         0.57187113875906   12.02881177321702    0.37783472145861
C         1.77335084884107   11.67136920828746   -2.08105559234903
C         1.23784466389095    9.80267942226852    2.59722958012189
C         1.19550093999163    8.62189928755052    3.49843406199381
C         0.78691613914352    8.46688920245439    4.80483061724637
H         0.40052574447642    9.30154734887172    5.36928242533380
C         0.88541946394566    7.19465657887875    5.36110404774372
H         0.56712410820893    7.03536924683016    6.38083792700575
C         1.38331385903883    6.12747141278386    4.62877052983516
H         1.44520955839154    5.15284982637423    5.09045120188118
C         1.80228982906182    6.28673386747516    3.31175483850090
H         2.19073582616046    5.46158272023703    2.73628493936009
C         1.69653374658038    7.54582551147884    2.76023993874171
C         2.02468483854069    8.07770441976660    1.43016515825244
C         3.00735752503982    7.77315345724612   -0.64944376285246
C         3.73098828874274    6.89469664782165   -1.57580072319567
C         4.08933216507434    5.56415629364066   -1.50876262939400
H         3.83795652697049    4.96847751498894   -0.64575852687944
C         4.77708489375485    5.03019135782930   -2.59198338164498
H         5.06889528284246    3.99039554822999   -2.57635812373473
C         5.09590005642874    5.80693998485569   -3.69633474769780
H         5.62919777559025    5.36082879639981   -4.52279481181747
C         4.73981360933333    7.14988883160890   -3.75992100547436
H         4.99091178112016    7.74782293689254   -4.62421791991866
C         4.05208622829982    7.68003641393093   -2.68904751939667
C         3.52993287850185    9.02976934741720   -2.39746670578714
C         4.71136570105948   11.61255383130838   -0.25085464752057
H         4.85598235509936   11.28919855659868   -1.26352149117900
C         5.58917122613939   12.20077210093986    0.60980864317314
H         6.62114939991881   12.46180044390032    0.49776929198848
C         3.64623186230826   11.99973527190999    1.56996726854601
H         2.86628390520130   12.07021421832699    2.30569541033015
C         5.41610807108920   13.06283669285173    2.94949518392056
H         5.79209117633701   14.06148152507392    2.72022492748116
H         6.23188262749113   12.46903981438895    3.36705639031371
H         4.62018262067306   13.14347577470417    3.68738474410944
N         3.62545579268688   10.12613234075738   -3.03016827087751
H         4.09549358058778   10.07328684396197   -3.92804244416351
N         2.89010572033772    8.99331157508624   -1.16608783402223
N         2.60329845733080    7.31640211261228    0.52858216430527
N         1.70332236026549    9.37697615662922    1.36419625333396
N         3.50345624762356   11.49147526914919    0.36446793695676
N         4.89905346823278   12.44179809704753    1.76346321909069
O        -0.84113684425873    9.06223713312291   -1.42093021001353
O        -0.06447731644589   12.87672116813624    0.81019160676465
O         1.77614106031663   12.36014905551020   -2.99568654921380
O         0.98188631095166   10.95966104378637    2.86691380851558
Re        1.64618766491837   10.61709435893504   -0.43903609613652

