47
CSD_code = ALADEY | q = 0 | S = 0 | Stoichiometry = C24H13N4O5Re | MND = 6
C        -0.70757913628624    4.79894087936563    9.51745163347453
C        -2.53466585018912    3.19134071856419    8.09610430357309
C        -1.07299084288464    5.07023557268235    6.73607466523169
C        -1.30979909632324    8.08011902404070    7.77738969928289
C        -1.22967118914029    9.42445113007249    8.40011706459194
C        -0.62893027534960   10.59672836265913    7.99743752962872
H        -0.07861859984042   10.64979020789673    7.07089635112732
C        -0.75646552578652   11.70191626893032    8.83483226663769
H        -0.29453061531791   12.63644869881869    8.55312276423993
C        -1.46474284624921   11.62395782261333   10.02441018273403
H        -1.54396789598860   12.50035583472742   10.65067203349397
C        -2.07416868755261   10.43983556961359   10.42816196229239
H        -2.62639621831223   10.37198754938741   11.35185235845946
C        -1.94310411874225    9.34564820588776    9.59980982725895
C        -2.43059010643141    7.96352149621076    9.69831125644893
C        -3.67104398138065    6.37387558926915   10.84750006314341
C        -4.52778272036480    6.03606475879539   11.99184115319709
C        -4.94924228910741    6.76244047373214   13.08516455744504
H        -4.64868866522271    7.78964313545706   13.21668479973571
C        -5.76938035343631    6.11572018133784   14.00477009352243
H        -6.11547616983857    6.65335894755430   14.87524093062680
C        -6.15064361185232    4.79433172166680   13.82751663183548
H        -6.78663334427474    4.32296709792251   14.56197168260409
C        -5.72745787792539    4.06373587541173   12.72023594132312
H        -6.01950170564715    3.03509169003382   12.57619765949160
C        -4.91283957675084    4.70411578658665   11.81272071715906
C        -4.29012508051874    4.25647573265977   10.54258458495386
C        -3.96494545415915    6.58814506574629    6.18483782295119
H        -2.99898116687530    7.03511213340321    5.98901765972706
C        -5.08020368736901    7.01567437998896    5.48583737997182
H        -4.98419693392835    7.80780197137281    4.76016316458959
C        -6.30208226622460    6.41089274047171    5.73154778796315
H        -7.19226525388533    6.72337933344546    5.20681593922986
C        -6.34537927642406    5.38411570369656    6.66051495440160
H        -7.26566420371511    4.86562889848750    6.87852394096893
C        -5.18185527663587    5.01884500161820    7.31469848904566
H        -5.19418629728548    4.20445503445445    8.02733504415942
N        -2.03184257472551    7.25640090849478    8.63785348058572
N        -3.17469911033176    7.58971892203253   10.72158854002349
N        -3.54144054522826    5.31807537363495   10.03995360609298
N        -4.00889153636735    5.61722555284834    7.09903128788389
O         0.15968663579039    4.65838331628624   10.25518344282531
O        -2.67179685211001    2.07405125538446    7.89980958551974
O        -0.41941690541694    4.96903154284360    5.80429454153628
O        -0.88923456905319    7.72287173289052    6.69811487587432
O        -4.41773350551854    3.19356135038094    9.97400120390807
Re       -2.21613483981917    5.10813145062006    8.32320453922627

