48
CSD_code = ALADUO | q = 0 | S = 0 | Stoichiometry = C23H14N5O5Re | MND = 6
C         3.04764838533501   10.09867658879149    3.41541946457467
C         4.97644840684226    8.58350666075549    2.01261657924380
C         4.48706490443699    8.16298233148379    4.75554776855448
C         4.22388000667298    5.18159997484349    3.61209544450896
C         4.42772457874139    3.89314598811753    2.90285836722782
C         4.99001337501110    2.69828897625301    3.29476477208968
H         5.39862573945912    2.57443562818236    4.28581726942403
C         5.01623541023875    1.66542662406545    2.36147155947908
H         5.45612184163053    0.71705630386854    2.63242273445495
C         4.48918806336450    1.83313545904912    1.08984536095707
H         4.52644356792804    1.01138015410710    0.38985198604007
C         3.91454162918907    3.03811195541007    0.69748475871587
H         3.50154248723389    3.17519609232041   -0.28915004602064
C         3.89630245586665    4.06206980751307    1.62051549710253
C         3.38970262739838    5.43965377099121    1.56415341058607
C         2.17519027636675    7.06504052279738    0.44000774839139
C         1.35419643946769    7.44161686088330   -0.71836999586471
C         1.04364121800466    6.78715311968738   -1.89141185605170
H         1.43048291228972    5.80121156230267   -2.09423804697754
C         0.22017338045191    7.45093573063541   -2.79563702773969
H        -0.03989703373806    6.96961958264309   -3.72697377503668
C        -0.27320290675655    8.71850379630970   -2.52610286022760
H        -0.90934495734821    9.20502080720684   -3.25058607366210
C         0.03800649529418    9.37606114211393   -1.33881675739479
H        -0.34222584498341   10.36245594490778   -1.12269945999199
C         0.85710369029559    8.72004311575006   -0.44670435851852
C         1.38512982903723    9.09938826050376    0.88831224880573
C         1.55599238368830    6.69016501133852    5.16775292556443
H         2.40008376419248    6.13403833400736    5.53181820864522
C         0.33748674285804    8.08287491478556    4.08233850047325
H         0.10085275189830    8.86432925197239    3.38670318954410
C        -0.47881964747138    7.43284731324960    4.95882061317344
H        -1.52826047863777    7.52603192275175    5.14693772853505
C        -0.12099115030114    5.65461951166623    6.67781485042686
H         0.74585059658816    5.14203896917098    7.09067678164742
H        -0.81708245542414    4.91391191321099    6.27800277902362
H        -0.62012144275860    6.20969022903759    7.47371050844107
N         3.63794221891117    6.06855148756628    2.71811214737803
N         2.73711583068398    5.87099585829175    0.50281197642238
N         2.19284144380762    8.05570373218410    1.33400276481768
N         1.60513387918478    7.60593096234743    4.22312500559746
N         0.30841097341339    6.55140646028378    5.64275485472493
O         2.87240080670985   11.20314674466617    3.65028192590866
O         5.11090641804215    8.19688928618045    5.71407553584911
O         5.87495709357958    8.77051172352067    1.32278921957074
O         4.44690558976318    5.44214550780025    4.77662383995566
O         1.15263977251661   10.09647445504897    1.53595766229786
Re        3.42041793102857    8.20087964943108    3.11839426933497

