49
CSD_code = ALADAU | q = 0 | S = 0 | Stoichiometry = C24H15N6O3Re | MND = 6
Re        1.71495801011641    5.87826151998872    8.92674004663968
O        -0.63777181540870    6.22570075400616    6.94717817109495
O        -0.14829686971175    6.09390121102399   11.39006460278663
O         2.07338392399551    8.93705488477712    9.24582229716493
N         3.93436094372109    7.76369978828110    7.33452840788940
H         4.47187970349910    8.48424260176191    6.86388467301765
N         3.07100388862059    5.62991106720506    7.22827355405814
N         2.66240815644808    3.35885910705310    6.56700458607515
N         1.57145450977336    3.70996895872979    8.67630983723838
N         0.47945512066217    3.33961613277633   10.67143155478450
H        -0.05269038691771    2.68649855597011   11.23702724714788
N         3.49063208830279    5.44561885425291   10.19314579288424
C         0.22281624924870    6.12128984552607    7.70168772084601
C         0.53792068697138    5.94745735045971   10.48484075889683
C         1.99094611185110    7.80633870004558    9.08310291477079
C         3.80307844181563    6.67571230867257    6.68977617492187
C         4.37421549725315    6.23215149992337    5.40300011010498
C         5.15853325243574    6.85877411581007    4.45777225188865
H         5.46358647694217    7.88959308665592    4.56756570097624
C         5.54080055958607    6.11868069512167    3.34434571893809
H         6.14994576067834    6.58338354739165    2.58307338544671
C         5.15301877083479    4.79523397934775    3.19307767179467
H         5.46824843567339    4.25010805506587    2.31553006535883
C         4.36701701053093    4.16056762614360    4.14734733218911
H         4.06113113181081    3.13223179449171    4.03881030938277
C         3.98383049464307    4.89772850184982    5.24848855248521
C         3.16538557925839    4.57109452329183    6.42285041172681
C         1.93999313073786    2.99689165784556    7.61122432733361
C         1.43748095619155    1.62180879100592    7.72211051803674
C         1.54620436436689    0.52216416155685    6.89644618027614
H         2.09134771640401    0.58176680600857    5.96795087692549
C         0.92687130060250   -0.65190588086439    7.30777925757908
H         0.98785210237424   -1.53201692525128    6.68461287198330
C         0.22871457968923   -0.71625318170660    8.50495532615260
H        -0.24367980859002   -1.64338498831754    8.79445993281519
C         0.12478083569939    0.39156489155696    9.33892830584203
H        -0.42196968736510    0.33367375689607   10.26921032271227
C         0.73492851572143    1.55857032019643    8.93014988374595
C         0.85533297489646    2.89727077039563    9.54018957339484
C         4.65529369810041    6.05812368843730    9.97587782089998
H         4.65826899490771    6.83687538627460    9.22224833488701
C         5.81074823488320    5.74530854890493   10.67089991720204
H         6.72680347488098    6.27104898000429   10.45116145795314
C         5.76680033221210    4.75940874342533   11.64310499126289
H         6.65105145111886    4.48824161879648   12.20033819700936
C         4.55194039667676    4.14002105133610   11.88726687249074
H         4.45735879799251    3.37710354227136   12.64413550419902
C         3.44424959180819    4.51360209448462   11.14604100657008
H         2.47857631405188    4.05673710113356   11.32822867021998

