71
CSD_code = ALAHEB | q = 0 | S = 0 | Stoichiometry = C24H42IrNOP2 | MND = 4
Ir        5.06158027490736    2.51391199847481    3.39207198048124
P         2.97131204252660    2.10735419321706    4.25769241482879
P         7.31019326255694    2.37528370526534    2.85516173337090
N         5.60258062827759    1.12618188700647    4.84597595728892
C         4.58035043576974    3.77735680122726    2.15169059818288
O         4.24462457079153    4.60679469730342    1.40259440651249
C         3.40248273463332    1.34871278775903    5.87583879964066
H         2.63584924977314    0.66607346940273    6.25097555206108
H         3.50677946548441    2.16659847300980    6.59702602223181
C         4.74012897166741    0.66448500671486    5.76611561064397
C         5.02822678508862   -0.35644476340142    6.64060476216317
H         4.29227530441988   -0.68642959706716    7.35721006580758
C         6.30259947342901   -0.95106874368582    6.59250930372632
H         6.54352845199687   -1.76184751730952    7.26537239458580
C         7.21093215412957   -0.48034828602764    5.70378347020420
H         8.20524316455134   -0.89603723236549    5.63894361907052
C         6.87705959681169    0.58902631885171    4.81083942937197
C         7.81485250314447    1.08255147578014    3.93284711367195
H         8.80982870424972    0.66340229237995    3.91109176731862
C         2.04418737550169    0.72867556104587    3.35352960080897
C         2.99025831736232   -0.47545850650206    3.38827091965544
H         3.08870316988015   -0.88643176105093    4.39065274573371
H         3.98110175628227   -0.18892424457752    3.03375373347925
H         2.61476583103862   -1.26375523913649    2.73686993588163
C         0.69564801137814    0.33678445855353    3.94841376533388
H        -0.04421811763384    1.12070872494675    3.80699046849187
H         0.77600235714436    0.11207742325127    5.01040666433597
H         0.32795133575785   -0.55846126735104    3.44715059765010
C         1.88051582814705    1.15448252470982    1.89294454519176
H         1.55612696096263    0.30663531009297    1.29112546186052
H         2.83368245791408    1.51332095013842    1.50226144974659
H         1.14639568642305    1.94629614837479    1.78126874012956
C         1.82130434075960    3.52109333517397    4.76867938701413
C         1.07159190787468    4.04219207049205    3.54421447821923
H         0.27508129224617    3.36471715926829    3.24691260517713
H         1.75767836401479    4.17510088696968    2.70960395766429
H         0.61936450043304    5.00730421655176    3.76934359433142
C         0.83618212395279    3.18336210596794    5.88664514907647
H         0.25723109248296    4.07408057804126    6.13000129557959
H         1.34793599795010    2.86577281349574    6.79182899741052
H         0.13893597418786    2.40522925921339    5.59253639095471
C         2.77640246566210    4.61978914048476    5.24859763343914
H         3.46651400170614    4.89209701455033    4.44961319516855
H         3.36073464966079    4.29760102388483    6.10874064165611
H         2.21530884214684    5.50673803993928    5.53858089220168
C         7.71021589868452    1.75087427824079    1.10910708242747
C         6.90783397604196    0.44922646227146    1.02394461359214
H         6.97816047355192    0.01702916000429    0.02687826890234
H         5.85654093270900    0.65319631867824    1.24051055686900
H         7.27402232707653   -0.27870635132747    1.74558778128282
C         9.19129660689556    1.46061319739426    0.89168613112261
H         9.59988764103946    0.87966502054755    1.71551240047806
H         9.76121291702672    2.38138756734356    0.79170978444480
H         9.32389380821772    0.88621230249384   -0.02531105648999
C         7.19162511592473    2.70263620393252    0.03397575057313
H         7.78347681017749    3.61031045622158   -0.02353161539249
H         6.15835787676607    2.97526215502371    0.23847347318289
H         7.23233764882996    2.21401695463224   -0.93935830330779
C         8.36764098311428    3.87778084450553    3.32798117658663
C         9.82430024775523    3.52564817652645    3.61411523687924
H        10.34347072095520    4.40286572551399    4.00065338419995
H        10.34443892485815    3.19475642240176    2.71997324616898
H         9.88511831543462    2.73937945203413    4.36332364240283
C         8.27169272492668    4.99166210962048    2.29105333342067
H         8.62611009495168    5.92932968820132    2.71897243599497
H         7.23868222148343    5.12678308916956    1.97475045516269
H         8.88450485093747    4.77231904439037    1.42015834712706
C         7.70770032736915    4.34440281343631    4.62952705376432
H         7.71399935439104    3.53911348030940    5.36378777107329
H         6.67214599368417    4.63591595605586    4.44264100712155
H         8.24031890972073    5.19663477935548    5.04989619510518

