50
CSD_code = ALAJON | q = 0 | S = 0 | Stoichiometry = C25H21NO2Pt | MND = 4
Pt       11.02896324540751    2.85900529911121    3.25941950093419
O         9.39775319921167    3.08073896887588    2.07146857015110
O        11.88721590998228    1.74376618415667    1.61251864746211
N        12.51832567250490    2.75002859535131    4.55708683328330
C        12.13125566801085    2.72084723206685    5.84663240226661
C        13.09308485889951    2.66996106837315    6.87611525430498
H        12.76401168986088    2.75150411593319    7.89825680409617
C        14.43056259453211    2.55999695625730    6.60760610409045
C        16.19381683136663    2.55410905565589    4.85118409694034
H        16.95624693241017    2.40798271810181    5.60006517569274
C        16.55044897513748    2.70834098846595    3.53860246589889
H        17.59042754121714    2.67162061504445    3.25029894136331
C        15.56838627889101    2.93937806753120    2.56810923487328
H        15.86127699412878    3.10112358762077    1.54153798800988
C        14.24557261401710    2.96517004275430    2.91646829515576
H        13.48220456229807    3.15237878883473    2.17573365257790
C        13.84265741667778    2.75643301896203    4.24982586697922
C        14.84322684237729    2.59808788144046    5.24707628832782
C        15.42812335217639    2.45790390326437    7.71672915929425
H        16.13090984396377    3.28902845222675    7.67809466441518
H        15.99524329195788    1.53147887326588    7.63419364382681
H        14.92685709319895    2.47239719542254    8.68099303738818
C        10.07620651791669    3.42816676906603    4.89359568170188
C        10.71213247085700    2.94990779919089    6.04941860801284
C        10.40737657783579    2.06829890435472    8.37975431198358
H        11.28028163277869    1.44082718510645    8.28970342942068
C         9.67758639482757    2.03320371987502    9.53845685243260
H        10.00973247436721    1.42387703783218   10.36688503447574
C         8.49057329645636    2.76628895029507    9.65602429287632
H         7.93750870538911    2.74537695231309   10.58358543318454
C         8.01810677823190    3.46280762444129    8.57851523402713
H         7.07231192032694    3.98328507712898    8.63375920761562
C         8.18006058578189    4.10257725423592    6.21440079849179
H         7.22761580271290    4.60639560864558    6.30810739662044
C         8.79865270452656    3.99909389061596    4.99863570650659
H         8.32302155766932    4.38716972134702    4.10979167738133
C         8.73049154240998    3.49213083722147    7.36305445533604
C         9.99460794127335    2.84565002795186    7.27870981483719
C         9.21220047042406    2.68035677627577    0.88500411463272
C        10.08610317564599    1.93828868598159    0.09415238376307
H         9.75606155203702    1.66321850554204   -0.89564150927533
C        11.34852640266226    1.49799991763705    0.50604145237165
C         7.87533534221021    3.04658365761381    0.27200533679183
H         7.29005603688499    3.61862218635133    0.98681181589150
H         7.33064173564589    2.14533055086867   -0.00035597712035
H         8.02755269078997    3.63901247276785   -0.62751736794981
C        12.13960907693884    0.65816107107465   -0.47657457272871
H        13.09012155012913    0.37181329829553   -0.03329630126556
H        12.32103674926820    1.22571183179714   -1.38707128676945
H        11.57871690580119   -0.23623792255511   -0.73867265056744

