76
CSD_code = ALAKII | q = 0 | S = 0 | Stoichiometry = C32H35N3NiO5 | MND = 4
Ni        2.87665015091941   10.31021746339997   12.77784380291429
N         3.96088831508007    8.68252560124381   12.65432487430975
N         4.27458936591760   11.16527846262854   11.91654134033308
N         1.83931591588445   11.82024301914839   12.80694611006835
O         6.57012078272573   11.11873342594328   12.10320922530832
O         1.40159562940455    9.42934139675914   13.50021973342291
O        -0.52902979610307    9.82632047069324   14.52195125802496
O         0.08896139259090   12.73871298425839   18.66394426952812
H        -0.75716419369978   13.09950568778121   18.37568162718437
O         3.97161588708698   13.16114516255056   14.41781085825026
C         3.67399453439906    7.64061762187398   13.65572521672859
H         2.60101779881872    7.43647196117053   13.62182436715886
H         3.90577138075131    8.04362351564784   14.64406499802152
C         4.44415126458124    6.34465729177402   13.40722313139225
H         5.51981554376341    6.52048251924162   13.47053303382587
H         4.17887068514830    5.62820923757454   14.18564483952789
C         4.08625862292559    5.78998268508599   12.03316321987459
H         4.65119966847062    4.87898496759060   11.82768811490427
H         3.02356382398209    5.54004492014675   12.01022536439429
C         4.38431944646559    6.84580099066342   10.97488070150908
H         4.04828604203519    6.50702493400489    9.99354510788962
H         5.46219248109100    7.00719003562922   10.91019370567904
C         3.66240552751414    8.15612562453768   11.30363201822963
H         3.92896043092654    8.91565392886361   10.56101355896118
H         2.58088643444355    7.98504557669565   11.25726158370274
C         5.34078344736984    9.17535169676059   12.76119484125588
H         6.06284193620908    8.54252195582216   12.23411909119464
H         5.63137500568126    9.20915787002084   13.81465118733421
C         5.47141144834997   10.59766083663527   12.20612703234221
C         4.17970163845916   12.29312447789184   11.13241731433626
C         5.17330719938748   12.60500752436800   10.18905713253335
H         6.03783837600279   11.96633619014784   10.11414043196577
C         5.07041454779751   13.70027021590874    9.36540772832208
H         5.85398405552051   13.90284043498090    8.65058543642375
C         3.96292783625934   14.53811082556846    9.44137364067460
H         3.87979519346743   15.39612186605778    8.79234109179437
C         2.96966251651563   14.25437014856660   10.34693755309283
H         2.09916681792504   14.89120251367211   10.39723815258200
C         3.04453006263477   13.14384960318307   11.20119746816184
C         1.97359129098299   12.92183876195526   12.14890614232787
C         1.02049207472311   14.04601856259355   12.35715824914200
C         1.39492989480782   15.13731200382064   13.13228821266870
H         2.38065969104820   15.16102987929074   13.57148738795241
C         0.50631365405191   16.17799127613610   13.33772625936179
H         0.80092347165773   17.02167278838603   13.94395744987736
C        -0.75461861870487   16.13989664182902   12.76642513672099
H        -1.44592242469233   16.95341899808914   12.92728716804558
C        -1.12718322163981   15.05821941500769   11.98559017266101
H        -2.10779588420467   15.02663400266716   11.53503218013642
C        -0.24554596975176   14.01149728966761   11.78149879492582
H        -0.53207725379914   13.16660025559687   11.17198095906068
C         0.84214665023423   11.70128697097045   13.85925674251182
H        -0.05897673390985   12.28776540414869   13.64607340674408
C         0.49776899041422   10.18983029962003   13.98914068168273
C         1.47562042362270   12.21680371808275   15.17948498082001
H         1.76731638432893   13.25869712768004   15.00233778863836
C         0.44114920497833   12.20166009124650   16.30568400771739
H        -0.42468036619173   12.78762965881108   15.98123895514219
H         0.08823710588432   11.18897349931439   16.49884905751905
C         0.99807539794176   12.81046428724340   17.59345711666744
H         1.28962640504112   13.85694323115606   17.40844610068434
H         1.88327571626619   12.26248947915607   17.92422288066718
C         2.74172884172545   11.44766844039521   15.49321026387755
C         2.71990281921851   10.25896656465954   16.21055993195763
H         1.77297500539798    9.83161020013867   16.49921313846686
C         3.89161745977474    9.61840171618191   16.58140530443861
H         3.84710505240666    8.70740907228332   17.15935826372813
C         5.11060984489064   10.16310825041724   16.22484696612516
H         6.03199982712518    9.68289199294087   16.52214092133562
C         5.16432700915530   11.33263946989179   15.48449547329413
H         6.12562404991492   11.73397819177136   15.20638553035342
C         3.99194306874086   11.97990928081453   15.10609899524528
C         5.19960092843340   13.74753795147996   14.04308193632812
H         5.78398489048678   14.03829283967148   14.92186076902037
H         4.93826207136302   14.63827058921144   13.47262081400605
H         5.79531603157270   13.08627615318186   13.40931169699019

