58
CSD_code = ALAMIL | q = 0 | S = 0 | Stoichiometry = C29H22IrN3O3 | MND = 6
Ir       -2.44853526053697   -7.23351389401182  -15.99896402396853
O        -2.06851140305252   -5.17821566571207  -15.33445605171818
O        -3.28537720629538   -3.43527093828160  -14.68628444030724
O        -4.83406440426960   -2.57985892544683  -16.69173461884162
N        -3.13545165882901   -7.43661513234603  -14.12129114908257
N        -1.67440249289752   -7.01028148053337  -17.81617245692306
N        -4.18576473506581   -6.09620838332353  -16.75723992865823
C        -4.34830573186702   -7.07075729165619  -13.71417330686136
H        -5.07545179311400   -6.85468250458307  -14.48554124479439
C        -4.69972839881158   -6.96389726442541  -12.38308482145857
H        -5.69536619551061   -6.65415737731400  -12.10937577155598
C        -3.74102085746353   -7.24661403773586  -11.41976708312205
H        -3.97203574180580   -7.15455152713594  -10.36931320192722
C        -2.48645635504880   -7.64642040963683  -11.83283441907741
H        -1.72185519333684   -7.86927723991229  -11.10681223103221
C        -2.19714702562284   -7.74112520652083  -13.19395500045164
C        -0.91850732518953   -8.15663438864252  -13.75109449850215
C         0.15385461992377   -8.61852349792305  -12.98834158036511
H         0.07761701108773   -8.67911769418117  -11.91273496597112
C         1.32484393885740   -9.00469575921812  -13.60695913545365
H         2.15646529682465   -9.36224163388139  -13.01756326381402
C         1.43019752951013   -8.93259841185897  -14.98760177497471
H         2.34691925353331   -9.23777655632019  -15.47232646692279
C         0.36889313552571   -8.47199020714315  -15.74896966295543
H         0.48079729258790   -8.43144451483593  -16.82408804949226
C        -0.82483112833753   -8.07426854653500  -15.15663818917279
C        -1.00556802266017   -5.92309514777394  -18.19357531265861
H        -0.85766148567561   -5.16904899608451  -17.43222072683535
C        -0.51854988307508   -5.75410612113602  -19.47517809319109
H         0.01834466975807   -4.85640815079943  -19.73599269012758
C        -0.73377602052562   -6.76088154549996  -20.40791357959186
H        -0.36815641748894   -6.66157960198676  -21.41887824223309
C        -1.41860913382804   -7.89530139057239  -20.01769124840400
H        -1.59210492777117   -8.69415303153785  -20.72036951353416
C        -1.88318504754902   -8.00932930327300  -18.70828342130389
C        -2.59927465244764   -9.14754773039092  -18.15202489096729
C        -2.94743499159671  -10.28656673689812  -18.87747966327907
H        -2.69332963838960  -10.36981547612842  -19.92413155644508
C        -3.62482779383669  -11.31685920593939  -18.25865891287876
H        -3.89574420126034  -12.20024729035246  -18.81803497046192
C        -3.95392198678040  -11.21501318936490  -16.91471387976550
H        -4.48137703211900  -12.02462510620491  -16.43026422650749
C        -3.61025365379138  -10.08534042414006  -16.19123985151507
H        -3.87545207721919  -10.03495046471012  -15.14397148325189
C        -2.92977075693096   -9.02370624212362  -16.78133853045917
C        -5.10750388223348   -6.54183325592034  -17.60830464421752
H        -5.10472573029025   -7.60425450354835  -17.80713418739444
C        -6.02293311722932   -5.69470208706491  -18.19703563985277
H        -6.76564173671943   -6.08253376873426  -18.87680114755895
C        -5.97175458931854   -4.33875421630780  -17.91211030500212
H        -6.67607220524148   -3.66784595131364  -18.37916834531571
C        -5.00744921195202   -3.86727717379708  -17.02218361899607
C        -4.12896507018140   -4.80874944621403  -16.44426650459569
C        -3.06672806436941   -4.41112917945214  -15.38028567264032
C        -5.71175949227308   -1.61228300259179  -17.21172494476878
H        -5.38974952704187   -0.66785558521762  -16.77728979419011
H        -5.64473654235893   -1.55147733719222  -18.30382312918593
H        -6.74860294839683   -1.80909084860773  -16.91979393546506

