66
CSD_code = ALAVUE | q = 0 | S = 0 | Stoichiometry = C28H31Cl2FeN2PSi | MND = 4
Fe        3.49260024961364    5.90020986163558   14.01802344314605
Cl        3.10458749847292    7.54641202904530   12.92310619836948
Cl        4.34884490605743    4.40397869935856   15.02421830853068
P         0.54548865356796    4.68517671428539   12.66875940127899
Si        2.20624645706273    7.19736077576284   17.18077080425483
N         1.12702685608667    6.16436667133466   14.83175712355803
N         2.07272136812197    4.32326898574000   12.79674271803365
C         0.23263775248496    6.02697089778446   13.85579220329998
C        -0.90795764793765    6.80704970576998   13.73872082731305
H        -1.59472524182024    6.63409463788134   12.92179480154095
C        -1.11929026244568    7.79855278944124   14.68189002180358
H        -1.98540111021922    8.44219090820292   14.62382575861922
C        -0.19378799069027    7.93595882387849   15.70271758243790
H        -0.32858628122535    8.68984664829494   16.46159820674693
C         0.91993831682920    7.10149958666950   15.76521136671731
C        -0.02659423268683    5.36032736316804   11.05866735818069
C        -1.11998009893171    4.87381163117293   10.35241407614520
H        -1.71342326971099    4.06657790841179   10.75814510413256
C        -1.45393329809153    5.43119178754623    9.13005567916534
H        -2.30306088506295    5.04897475682301    8.58195158915508
C        -0.70581701232357    6.47488377311224    8.61066934957486
H        -0.97097203927080    6.90492548447981    7.65606191543168
C         0.38024452717588    6.96821886238902    9.31708580850540
H         0.96214591736381    7.78558237949764    8.91793114997338
C         0.72094288391660    6.41177121430358   10.53571993198809
H         1.56464796357366    6.78670863672748   11.09898069437757
C        -0.62184923043799    3.33147579011345   13.02642449852376
C        -0.54763430268792    2.21363270758929   12.19968506830854
H         0.13156694714264    2.22139907861758   11.35725676965639
C        -1.32908296353662    1.10454082888341   12.46399990501172
H        -1.26897271982142    0.23736531031570   11.82325683430000
C        -2.18231351793584    1.10549069258883   13.55662071625376
H        -2.79176658798877    0.23875589130285   13.76522633017834
C        -2.24976019346645    2.21327285901634   14.38618379453192
H        -2.91147337088319    2.20903493341901   15.23985100712469
C        -1.46711600031197    3.32494359582156   14.12791104665147
H        -1.51098800807138    4.18757895233955   14.77832398227776
C         2.64943028214831    3.09414323767204   12.43344628462679
C         2.53816169552862    1.96856986949748   13.25827739070725
C         3.15250524428882    0.78811404856164   12.86197993724649
H         3.05851786390260   -0.08440330007702   13.49333450374942
C         3.88565870199164    0.71782937044669   11.69336859512782
H         4.35199399714125   -0.21095131957794   11.39909175643171
C         4.04658307005931    1.85305665838746   10.91782671570904
H         4.65186250243136    1.81512604533731   10.02297071841247
C         3.44190760907973    3.04465159128677   11.27874424920981
C         3.63556033828841    4.29437962110731   10.47606189373168
H         3.93035805138581    5.11381205584284   11.13869916174868
H         2.70462677238172    4.58638365211033    9.98718603551532
H         4.40165845191415    4.15479104439325    9.71720926021739
C         1.82836887790314    2.01974618692311   14.57884259413141
H         0.95670561992599    1.36462719242387   14.58459397582331
H         1.51176695516433    3.03525156183891   14.81000362215080
H         2.50643937969373    1.68822835454360   15.36416207097336
C         1.55068351504691    8.41582978906180   18.49680995164420
H         2.22150392430592    8.44352176445862   19.34895311123649
H         0.57294078577866    8.12225241296226   18.86575692774807
H         1.47401462341630    9.42900240034018   18.11455132801395
C         2.38552739188607    5.44682241473314   17.90316785222625
H         3.08273342655723    5.43353060170653   18.73533937720475
H         2.76280517032596    4.76405346340829   17.14708889082830
H         1.43657322084900    5.05802108481537   18.26202798816147
C         3.84131918345437    7.87396313116010   16.47664763393474
H         4.53203130488477    8.14834905538915   17.26775004630936
H         3.67990618366990    8.75283130362711   15.85790933847777
H         4.34150182474714    7.11746453466915   15.86124741350787

