79
CSD_code = ALAVIS | q = 0 | S = 0 | Stoichiometry = C36H37Br2N2NiP | MND = 4
Ni        3.59109130986153    5.21825075028033    0.47819250871122
Br        3.85918424298412    7.01591106097729    1.75001607645368
Br        1.97417563449164    6.10829808224785   -0.71471529951956
P         5.01850315400972    2.81777963302583    0.45916816635904
N         2.55815130640888    3.39598996393880    1.27533442018247
N         5.22370165922737    4.30187098220398    0.97982279215814
C         3.29502836457353    2.38272882705479    0.82466760385420
C         2.78312509940154    1.11639541163481    0.59413695163489
H         3.41129480633217    0.34377997248177    0.17379903647927
C         1.44879747235977    0.89325620370625    0.90402583395300
H         1.00618552929588   -0.07877230983572    0.74317317401286
C         0.69907757415490    1.93295245308613    1.42127427498386
H        -0.33629422667442    1.78757623792257    1.68527889077270
C         1.28068577228649    3.19085569894327    1.58479126360746
C         0.52980451764874    4.33969573132099    2.17885656058476
H         0.99815311450535    5.27750807993344    1.86859657624273
H        -0.51032545086737    4.32532202460547    1.85470476082980
C         0.62770507984864    4.21283541805448    3.68128749409728
C        -0.36674474501510    3.57845851514662    4.41195706395740
H        -1.24523292178085    3.19606073447520    3.91085088479306
C        -0.24890684365386    3.45046300060811    5.78511823371568
H        -1.03161496744287    2.96276521699046    6.34799574127907
C         0.86584311191314    3.95103783380538    6.43570055744299
H         0.95399108817702    3.85418434801817    7.50791305942845
C         1.86211334514477    4.58193710973335    5.70948088954074
H         2.72717711403490    4.98621080418222    6.21334340166273
C         1.74678075496646    4.70727024845011    4.33699016838343
H         2.51869851590938    5.20695356944089    3.77035558245194
C         7.05340459425464    4.53387446520812    2.56042192985632
C         6.48916590887121    4.83261940109400    1.30944418394305
C         7.14294710156972    5.69424061073484    0.41608387251502
C         8.41221496016159    6.14806916422178    0.74037377833773
H         8.93999311249956    6.78904106909606    0.05125270898719
C         9.00792109532438    5.79834572378578    1.93624247446341
H         9.99948508744574    6.15603134752354    2.17123737044612
C         8.31715438972624    5.02436145482773    2.84890596049104
H         8.76757779304330    4.80388307361071    3.80389453398662
C         6.26741574548188    3.78934836227289    3.61138797662725
H         5.45349202955483    3.23496455092560    3.12389958476108
C         7.11044467499880    2.78848001127629    4.40094096409509
H         7.71400246921008    2.17260517183156    3.73775812598285
H         6.46129169258298    2.13622080113900    4.98220724823605
H         7.77300710142084    3.30078912799808    5.09386125499611
C         5.63192012070481    4.81239241142868    4.55790649663105
H         5.01938820184974    5.51808124286781    4.00347114221652
H         6.40487416886548    5.37455417204835    5.07694564626784
H         5.01143586340770    4.30482692293668    5.29326653881170
C         6.48887054851410    6.14709355771443   -0.86966317651935
H         5.41779164864649    5.85839472562715   -0.85304003171942
C         6.51862473873340    7.66953295660388   -1.00990385874903
H         6.09141854651350    8.13577111741072   -0.12506442347434
H         5.93089335301401    7.97008607964835   -1.87483456773619
H         7.53321152805140    8.03634594145276   -1.14238253607101
C         7.14556588424150    5.47058811138125   -2.07399953017085
H         7.12247319022728    4.38463142357581   -1.97657619957953
H         8.18499495864081    5.78138489580938   -2.15946120267310
H         6.62751717203704    5.74133724069623   -2.99196810382916
C         5.09583575248821    2.55204890623177   -1.35528092144583
C         4.31873656356438    3.41007185149581   -2.12600515770416
H         3.71799413194973    4.17714316770561   -1.64186709178582
C         4.30108688116538    3.30496794767494   -3.50243424152336
H         3.69455733834044    3.98075772331392   -4.08594445050735
C         5.06597629937853    2.32832047460406   -4.11978724616167
H         5.06354235830865    2.24128988436557   -5.19576218704598
C         5.83241632176600    1.46032076318144   -3.35841881197275
H         6.42369625185617    0.69611474542660   -3.84106657297935
C         5.84835464483301    1.56357472480203   -1.97865737503438
H         6.44387513910398    0.87970734268319   -1.39022991629671
C         6.18249375716710    1.60777204793104    1.14016555988321
C         7.51988073503672    1.79940207262141    0.80315048387938
H         7.79708076370410    2.62622106169387    0.16126013786743
C         8.48391718955590    0.93608498362484    1.28894507192091
H         9.52067283591805    1.08566732201719    1.02761175433466
C         8.11509905030450   -0.11778689621197    2.11074369816344
H         8.86642883989344   -0.79600745861659    2.48614969364326
C         6.78669445238795   -0.29560822426235    2.46297830569813
H         6.50452919374946   -1.10849494894600    3.11520684871731
C         5.81774171025023    0.56988094063764    1.98693028810725
H         4.78384269748406    0.44078083077413    2.27598730101071

