54
CSD_code = ALAWIT | q = 0 | S = 0 | Stoichiometry = C25H23Br2N2NiP | MND = 4
Ni        2.30293252919327   13.36153336960096    2.59388975609157
Br        3.33698569272637   14.18086824878580    4.37174433110183
Br        1.35392451849065   11.65287767070223    3.53272729668277
P         1.91951403348834   16.29299934408829    1.72796718511161
N         2.46898319886958   14.85366766803347    1.31123144192420
N         3.89525671751043   12.59607454521424    1.13513592094714
C         4.54237589422146   11.42712503051486    1.14714649962217
C         5.22403222216356   10.97036595774570    0.02440172421203
H         5.73213103846920   10.01954243491151    0.05802689947846
C         5.24292281580443   11.74600130529070   -1.12109694221507
H         5.75980322916220   11.40795699122596   -2.00679006659323
C         4.60586380093823   12.97388385760762   -1.10686249717148
H         4.61865748917427   13.62396407155863   -1.96821854889684
C         3.94468169211673   13.36566263880057    0.04980574010726
C         4.51704461276710   10.64878947446987    2.41720662478419
H         4.43101628572644   11.32916909610606    3.26541386617171
H         5.41434869063316   10.04474622690449    2.52100378303256
H         3.65002089285266    9.98771156186053    2.43558791999721
C         3.29853305677527   14.72593751001660    0.12759145762666
H         4.11287525800449   15.47086434628093    0.11242980732417
H         2.69882321945231   14.88823625828997   -0.78350341548419
C         0.97653666303979   17.03618201599154    0.35427124622629
C        -0.40362199712824   16.89812902919966    0.27789704523929
H        -0.94382089280766   16.44054748962992    1.09567122485843
C        -1.08184226794124   17.36259278104307   -0.83515470860295
H        -2.15577456001872   17.26321845565909   -0.88957993439393
C        -0.38514227757851   17.95137534573738   -1.87790938873186
H        -0.91651351694785   18.30955169319897   -2.74683837779711
C         0.99298147054633   18.08168486392346   -1.80851331834651
H         1.53607295426236   18.53940524249256   -2.62217184223603
C         1.67435401657200   17.62337015641361   -0.69617833572028
H         2.74976332503158   17.73123976441375   -0.62831365322758
C         0.80890479172684   16.02596209397097    3.12092600650883
C         0.00909483166891   14.88069905321380    3.11871238110977
H        -0.02851186132426   14.23960131675145    2.23759049466336
C        -0.77928661102741   14.59358921433016    4.22017883463196
H        -1.38021471951816   13.69650137196920    4.23100145480126
C        -0.77018127085097   15.44348559064658    5.31556219615778
H        -1.36797678636244   15.20438804363485    6.18171068790601
C         0.00766338306401   16.58948395071106    5.30677533000491
H         0.01461505070449   17.24604413881176    6.16334485025491
C         0.80110403332791   16.88472740832123    4.21171111635359
H         1.43571719992348   17.75962069467730    4.21248021699464
C         3.15847392741503   17.55439996827454    2.16206931040244
C         2.85469276044768   18.91111133507370    2.10050596762833
H         1.86873338030721   19.22767225783140    1.78650691346121
C         3.81629046782105   19.84233233213926    2.44334698890712
H         3.58294127632706   20.89620219274161    2.40118337904364
C         5.07734680091770   19.42458016336530    2.84268607252859
H         5.82456341245702   20.15711853412682    3.10937425231242
C         5.37931789639224   18.07452538242018    2.90391554363394
H         6.35800761848775   17.74920688404589    3.22139567017542
C         4.42080799691317   17.13591446901416    2.56454833105378
H         4.64047661551429   16.07985915838541    2.63115526038160

