48
CSD_code = ALAWEQ | q = 1 | S = 0 | Stoichiometry = C15H24ClN2O3RuS2(1+) | MND = 6
Ru        9.57225349623421    3.51151457744154   15.14973571684736
Cl       10.74653852170906    5.06696238768255   16.42822150727633
S        10.85024146672413    3.87716022270835   13.31255459821360
S         8.13192499638053    5.25862126100141   14.73166675662843
O        10.94891942818148    2.62950618405215   12.57650374854544
O         7.65036126622168    5.23254075914237   13.35509264926827
O         8.52250881043603    3.22533935693892   17.13679579543228
N         8.60166893716417    2.06162642080961   14.13282403745926
N        10.78145518151853    1.94459079472482   15.53334128461182
C         9.24315123572457    0.87653516611910   14.08885721874896
C         8.74686035078034   -0.18937887692668   13.34306498728617
C         7.57239654566211   -0.03409480152171   12.62853353803988
C         6.92390356560154    1.18931519276033   12.68235464874144
C         7.47776248856942    2.20520621858584   13.44359289120131
C        10.47481435823312    0.80970171910044   14.87791602785166
C        11.29018470248882   -0.31572429321526   14.98190291582839
C        12.42469886039146   -0.26526899341759   15.77242872557187
C        12.71633677799762    0.90895714962439   16.45217683583347
C        11.86752984242568    1.99091061985027   16.29938915511772
C        12.55084361635703    4.38344950473840   13.70375634977477
C        10.43807593270931    5.18004979843193   12.12340119094960
C         6.65967068523159    5.21585478542671   15.80199372665977
C         8.60513710772577    6.97991241322785   15.06021889859656
C         8.35187858685204    1.96624554319000   17.77510733421593
H         9.27706247632124   -1.12604443618981   13.31187747225806
H         7.17851927693717   -0.84609451979695   12.03829493354962
H         6.01146947212563    1.36537342915871   12.13702670283851
H         7.01372241669535    3.18060163433519   13.46857491514077
H        11.04642817619226   -1.21749223961676   14.44657863372784
H        13.06989635961468   -1.12530237691548   15.85642326976897
H        13.58618829068882    0.99098217107205   17.08285294252698
H        12.05829292395009    2.93292734060251   16.80131114054681
H        13.03066263161475    3.55994601801300   14.22301478396456
H        12.51461389619694    5.25840756242717   14.34307669874778
H        13.07016710684931    4.58933466653362   12.77501448456873
H        10.96056527816410    4.94768500370967   11.20221790794295
H         9.36356343750272    5.17385564978452   11.96337188580580
H        10.75659421178546    6.13349026089510   12.52785273021703
H         6.25383058526283    4.20877692367647   15.78831661565074
H         6.96318845053444    5.48320239316802   16.80756426624887
H         5.93215116197926    5.91817166773030   15.41050647331619
H         8.86337179602934    7.07957757050292   16.10779274867946
H         9.46368645890986    7.22356544294344   14.44376198862116
H         7.76462844515791    7.60903304210016   14.79111249200839
H         7.70518110782843    1.36294297233789   17.13748516706579
H         9.30424595382439    1.44930423854544   17.92380170444812
H         7.86442079481763    2.11245954953259   18.74291615586214
H         9.12643252967165    3.77486292499027   17.67932334776209

