87
CSD_code = ALAXEQ | q = 0 | S = 0 | Stoichiometry = C40H40Cl2FeN3P | MND = 4
Fe       -0.18812743242117    4.24978656637700    6.08022219849068
Cl       -1.08371669192514    6.03051883773475    5.81148760512251
Cl        0.21817155708479    2.30035106180629    6.16364967774487
P         2.19835352304439    6.03607287503681    8.03855675437485
N         2.01840840035012    5.46264888907583    6.57948578423147
N        -0.00636314468907    4.49447654832224    8.50553155539362
N         0.71698149943441    5.41445313123963   10.37455705047845
C         1.88550855554081    7.82360979394534    8.37073793698644
C         0.60143392074614    8.26002498129508    8.05092022900100
H        -0.10857822023014    7.55315828637092    7.63892207393542
C         0.24898493500058    9.58250799730359    8.24096425422975
H        -0.74566122728969    9.91462941008585    7.98460426694120
C         1.17392800874852   10.47796610955999    8.75549102890771
H         0.90318150989132   11.51330779546781    8.89967599234106
C         2.44690511233609   10.04516547621347    9.08728171630733
H         3.16702875177085   10.74073223829653    9.49302552476511
C         2.80588505342618    8.72108074441504    8.89929609589196
H         3.79751515536304    8.38879242160573    9.17276363016430
C         3.82075884587813    5.66956439038115    8.77805609909217
C         4.00221504855759    4.66632784713614    9.72250223408313
H         3.15046357280086    4.10244674756165   10.07680741986688
C         5.27261708918384    4.37890020915055   10.18784455135289
H         5.41275780957371    3.60614303936232   10.92936909488123
C         6.36750317159362    5.07152005650434    9.69491830589949
H         7.35746965414779    4.84571984355854   10.06177103736225
C         6.19645444702737    6.03082675893715    8.70880088184562
H         7.05295508516938    6.54317710910864    8.29656655836578
C         4.92749205780021    6.32435964070932    8.24393672745668
H         4.78542663667625    7.05028042737811    7.45413537913880
C        -1.95082484192118    3.20246553901097    9.28020873547114
C        -2.64024843437376    3.23694741608346    8.07011379923621
H        -2.36159496217179    3.97048785178075    7.31808633916091
C        -3.68410579468374    2.36247598727479    7.83506114868721
H        -4.21095513554436    2.39782665900444    6.89338896573006
C        -4.05503287275054    1.44520452193296    8.80434854677314
H        -4.87107262661481    0.76229553062096    8.62047391363606
C        -3.37189663074711    1.40204155693379   10.00875571416205
H        -3.65188612372340    0.68199805394658   10.76376734812498
C        -2.32444125425273    2.27104215432476   10.24738782449547
H        -1.78217275566592    2.21947812604354   11.17995684349146
C        -0.97881554577991    4.62644541845969   12.03180188009595
C        -2.34616942735780    4.85070295659778   12.19150923745397
H        -2.94818649264354    5.07324905505869   11.32356772524797
C        -2.92048806853219    4.78769243229369   13.44593158524594
H        -3.97957105647199    4.96397649628765   13.55909624314360
C        -2.14230823085635    4.50090353757049   14.55655727545363
H        -2.59338845912672    4.45169983632309   15.53609718054973
C        -0.78555766934676    4.27144879130988   14.40555256976730
H        -0.17669940790897    4.03792014199686   15.26652552176129
C        -0.20400549604037    4.33389149968151   13.15212627020609
H         0.85008780697766    4.12614500252799   13.03996730209652
C        -0.83620590568736    4.11394952077017    9.50989951492646
C        -0.39732901602652    4.68480116023371   10.69554962622870
C         0.91933963491107    5.26335559534592    9.03919852037978
C         1.47499197710950    6.24493022477308   11.26790707406213
H         1.87913131563139    7.09465898975288   10.71828054057615
H         2.30460739708184    5.69394417722864   11.71755337113877
H         0.82165396603670    6.60720962278586   12.06216805107517
C         3.04450674360346    5.62489200892814    5.61244058928859
C         3.97321997412659    4.59159752421344    5.40940006459571
C         4.97943884283875    4.76481848766023    4.46996154692550
H         5.70042778675379    3.97647503240345    4.31490157573047
C         5.07509996369141    5.92400239443678    3.72606785587398
H         5.87191672101327    6.04656601857152    3.00684434980490
C         4.12617464369997    6.91360467500605    3.89029856378412
H         4.17838185989278    7.80554536070552    3.28371660588636
C         3.10659609608944    6.78154363131071    4.82126773864665
C         2.05674171604467    7.85940080708129    4.93024463614102
H         1.37453536400979    7.59351341240742    5.74101933593454
C         1.22985635588771    7.91388813510222    3.64417061428082
H         0.76411983599523    6.94758722559504    3.46441624090937
H         1.85139083000709    8.16522204616375    2.78752808847604
H         0.44404557228074    8.65991700406273    3.73837765262860
C         2.67010356569933    9.22511333435648    5.24210396150953
H         3.30196264653934    9.17175902021016    6.12745830803862
H         1.88339693493116    9.95301414562653    5.43019552707539
H         3.27443229405099    9.58182693732288    4.41141709701502
C         5.15548142339751    2.84844329525789    6.80825552910571
H         5.54581053755992    3.64858140376331    7.43171849321752
H         5.91384580733194    2.58803787487295    6.07358908792166
H         4.98007192692587    1.97554740807243    7.43365204631040
C         3.41781093709189    2.20117327333053    5.11890643856149
H         2.49644511036793    2.50435909678631    4.62778873652831
H         3.23781803561896    1.25648742364996    5.62588401787163
H         4.18390767795224    2.05344337157270    4.36038291299063
C         3.85300586388211    3.26911642569718    6.12597245183572
H         3.06994635236641    3.35658613026257    6.88749960148668

