71
CSD_code = ALAZES | q = 0 | S = 0 | Stoichiometry = C35H35Ta | MND = 5
Ta        2.43767133207249    4.06943467684256    4.39211245650627
C         0.34825230290674    2.99715711105167    4.03361315030411
H        -0.38894180347070    3.71817878448542    3.67826890266994
H         0.57588420756355    2.29420746909034    3.22996917719813
C         3.40266966641503    6.24252428486843    4.20772067407791
H         3.02073526054368    6.78360607195006    3.34235853585548
H         3.15474768607685    6.79850852000678    5.10956700791518
C         2.45342744898850    4.18081010340551    2.02416764126118
H         3.16628922506034    4.96178200184716    1.76429026478160
H         2.85998225803891    3.22040645751023    1.69533246216676
C         3.99110302269776    2.48427516413789    5.03939176822810
H         4.76126777973295    2.96774288856126    5.64397893824856
H         3.49081731616472    1.72092185947573    5.63914766345139
C         1.30917323588110    5.12395026622457    6.19726242902756
H         1.09823184373571    6.17913277510610    6.02085460893966
H         0.37137352420761    4.59622621025836    6.35749755012261
C        -0.12988994468304    2.28115467900604    5.22091994280929
C        -1.19274167816153    2.76592114557008    5.99078867182468
H        -1.71105074810982    3.65879067567706    5.66845023581773
C        -1.59892676445766    2.11263359407619    7.13872808602821
H        -2.42102099883647    2.50746003727616    7.71793717462841
C        -0.96135355656614    0.95261713710218    7.54720414900779
H        -1.27772406085614    0.44408256261583    8.44539600200830
C         0.07706684709402    0.44135318069269    6.78438502378091
H         0.56912787303832   -0.47224512667980    7.08691035467020
C         0.48386100318224    1.09468140985659    5.63810035908587
H         1.28566751947501    0.68024698175995    5.04087212860357
C         4.85325767524966    6.03870837062374    4.11879501509986
C         5.54345903730074    6.13513700979858    2.90629483992385
H         5.00291523561451    6.39054993070268    2.00500478701206
C         6.90970524038061    5.93653858697266    2.84621567940920
H         7.42287712650957    6.02205269755172    1.89919422393635
C         7.62435006842087    5.63576395412234    3.99442261109817
H         8.69228322270223    5.48291628126928    3.94697095105184
C         6.95811407209840    5.53949892820475    5.20759965807180
H         7.50945258477464    5.31075801788974    6.10874079303651
C         5.59351561326831    5.73814199186366    5.27050296396936
H         5.08216689645519    5.67372591887036    6.22346105246294
C         1.14875916777360    4.43845394731406    1.40106640367334
C         0.53796663804668    5.69171192767658    1.51304884277520
H         1.04976978654776    6.48075779962632    2.04754072556023
C        -0.70286838988883    5.93019979549989    0.95658806350396
H        -1.15654199161922    6.90618990880632    1.05265420801582
C        -1.36746286258179    4.92499031433942    0.27157564702152
H        -2.33637551365153    5.11330902238481   -0.16655536737484
C        -0.77582408165605    3.67934380621154    0.14631397248664
H        -1.28359601755441    2.89234875375604   -0.39270427609003
C         0.46570393011794    3.43916038583450    0.70382908607772
H         0.92608616508328    2.46685777731943    0.58877149107230
C         4.53991839877312    1.93355132130493    3.79562262626335
C         5.65933932866722    2.51366779516482    3.18836365734014
H         6.16850850218119    3.32552791603844    3.68751482583033
C         6.12341419105784    2.05652031031114    1.97079242342891
H         6.98736333778591    2.52287699729558    1.52021449169824
C         5.48969088994799    1.00371032268682    1.33010058020005
H         5.85278214379612    0.64742000494008    0.37778046638868
C         4.39220799361268    0.40283877536976    1.92620411560552
H         3.90072179726418   -0.42709396211153    1.43869906301635
C         3.92292414119226    0.86005536879186    3.14198181051887
H         3.06916494852728    0.37690105301956    3.59968144973444
C         2.21274542125924    4.92138186020541    7.33642918533316
C         2.99875633050869    5.95266418174477    7.86052844070569
H         2.89816533869170    6.95353064766390    7.46220410147443
C         3.88525161279825    5.71836282672430    8.89529945480284
H         4.48171779893396    6.53120046108220    9.28473115269540
C         4.01000240653157    4.44887482591880    9.43496744303259
H         4.70537593820259    4.26665213755447   10.24070499887303
C         3.22327895715381    3.41779526290119    8.94368586895890
H         3.30239074303965    2.42913522122804    9.37279971907927
C         2.33539436228613    3.64883256287370    7.91247346683921
H         1.70597201669260    2.84491806082972    7.55016392736294

