99
CSD_code = ALAZIW | q = 0 | S = 0 | Stoichiometry = C43H51N2O2Ta | MND = 6
Ta        3.09661537099020    2.04755366728286    1.34819286157098
O         2.09951679544601    1.73651062808183    2.80009754827318
O         4.19068053030618    1.47028810455934    0.02664099449328
N         3.13180452447462   -0.75188698608409    1.68849590430861
C         1.07924702101360    2.07774750767039   -0.00470715348597
H         1.29406387224112    2.47509101069099   -0.99546718572763
H         0.86794905840789    1.00995574112783   -0.09364340430179
C         2.93607147322727    4.40996787133808    0.92605616697656
H         1.91725204332395    4.61531922739474    0.60888206677556
H         3.11695495566498    4.94883371813116    1.85543198314708
C         4.87942036652257    2.94837432449272    2.71081695806838
H         5.56602170288058    3.47801435528427    2.05414185601992
H         4.45949256251114    3.64489571739973    3.43542172991139
C        -0.04894078776695    2.77341792922209    0.61818172248928
C        -0.75705856281883    2.19592629064625    1.67937998145498
H        -0.49791146765976    1.19959548362786    2.01280245805750
C        -1.77542085881845    2.87500938001608    2.31550869692846
H        -2.29709062561056    2.40747358201817    3.13912377593531
C        -2.13379174584738    4.14925290927522    1.90223751658458
H        -2.93018251956415    4.68090100310706    2.40183234729844
C        -1.47116220561936    4.72479398883211    0.83153115312142
H        -1.75719691897023    5.70824591824903    0.48591256743836
C        -0.44913099521706    4.04608202405553    0.19553844266250
H         0.03871745131999    4.50069209977619   -0.65613506476836
C         3.89128543482809    4.84490899446350   -0.10907725337837
C         5.07222871089768    5.51401534546885    0.22155417878146
H         5.28212042919803    5.73348071256448    1.25916038603991
C         5.96635688976848    5.91684124038554   -0.75326774825666
H         6.87261450763608    6.43362455896999   -0.47024519648009
C         5.70114969176947    5.67099967024291   -2.08952661667569
H         6.39690473026138    5.98927326683242   -2.85192540475357
C         4.52752292701073    5.02098200492204   -2.43925660430712
H         4.30639444297193    4.83522370748973   -3.48137722347167
C         3.63713332896074    4.61618462178548   -1.46477783938117
H         2.72314962825231    4.11516676713744   -1.75006350937741
C         5.54650061119890    1.83069794483606    3.37621240372451
C         5.13722713718823    1.38511936556200    4.64012284611912
H         4.30588509260474    1.87523265905977    5.12923434578657
C         5.77932877602475    0.33918081276170    5.27277011855996
H         5.44970471531714    0.02153142191164    6.25275965350505
C         6.84924652273176   -0.29843066181124    4.66347747471568
H         7.35547764408956   -1.11138941958226    5.16290241274797
C         7.26855044032911    0.12570160215365    3.41177604087650
H         8.10505913176830   -0.36147606304097    2.92977251204035
C         6.63005225664268    1.17339130826921    2.77835940809739
H         6.97226987799738    1.49906063200164    1.80512536114469
C         1.60701789957523    0.95657637307248    3.74727137552770
C         1.19009924420401    1.52168596071684    4.96707030473133
C         0.72103069806565    0.69786317795734    5.97178438349600
H         0.40831911570693    1.13571855510389    6.90944093602522
C         0.63562731472544   -0.67933337169145    5.80057285369887
C         1.01160189009162   -1.21945705805360    4.58108521627751
H         0.93079533666662   -2.28398473904523    4.42161796140092
C         1.49622579595156   -0.43112412201122    3.54759733610277
C         1.79766894742771   -1.06556611747017    2.21081131703035
H         1.66435482111712   -2.15196803684044    2.30328628592428
H         1.06725534369592   -0.69156769093918    1.48142405572992
C         3.27325097005489   -1.19419765673713    0.29518031955012
H         2.49016396057497   -0.69256556054054   -0.28830231710337
H         3.11098505412370   -2.27938275045447    0.19726059705413
C         4.61424050897706   -0.83529677394668   -0.29443192717538
C         5.48011800174168   -1.82505723422254   -0.73248193792803
H         5.18925746390721   -2.86149383541836   -0.62821650136701
C         6.70643806992386   -1.52124867833215   -1.30467569012508
C         7.05651334645310   -0.18463491311407   -1.44112993249174
H         8.00765559754024    0.07032385901576   -1.88703961940108
C         6.22102568719373    0.83614912318907   -1.02322302549101
C         4.98571635480542    0.51535317710365   -0.43287028225649
C         4.19496655662354   -1.25229324337880    2.55600581617087
H         4.06535983072752   -0.77093730185725    3.52602903083041
H         5.14192967310703   -0.90744754870181    2.13349111697970
C         4.29707899637312   -2.77395050818479    2.75057475807782
H         4.13171769626578   -3.27204277498717    1.79335638464380
H         5.33374011247964   -2.99826966193597    3.05823571455473
N         3.34348415668177   -3.31009970068996    3.71059500043418
C         3.74597503966379   -3.03651272699512    5.07543618889978
H         2.98685657200122   -3.42036465580369    5.75479028024634
H         3.82883246249890   -1.96355457194447    5.22834675702977
H         4.71199701454555   -3.50365808583926    5.32531846319354
C         3.13941669691394   -4.73222813978048    3.51836539699618
H         4.05931758545307   -5.32037641332016    3.66232140155760
H         2.76525662782813   -4.91552308060085    2.51114286059971
H         2.39338092566134   -5.08286227373073    4.23058858717881
C         1.25414939682847    3.01159345992245    5.11566366480702
H         0.69341250659332    3.48558885013964    4.30879681371992
H         2.28454090546894    3.35991314753473    5.03926227506509
H         0.84376167651380    3.32469621219060    6.07199613845344
C         0.14515696474127   -1.55223258052894    6.91660156467913
H        -0.04209719621282   -2.56336543289756    6.56468283510955
H        -0.77374238785732   -1.15317568133593    7.34220414709541
H         0.88807532348968   -1.59705833389060    7.71319207290485
C         7.64110866399291   -2.60831518383112   -1.74283418550565
H         8.32287300719908   -2.86502198973899   -0.93116304341797
H         8.23800633048345   -2.28581721870091   -2.59253588651548
H         7.09177732202139   -3.50558842791657   -2.01767546873121
C         6.59921672016654    2.27553989904474   -1.19465157514675
H         7.67692937591547    2.38603561765107   -1.28645295764278
H         6.24082035072659    2.86960232575770   -0.35517918962742
H         6.13315570275440    2.68125834789317   -2.09302034248107

