28
CSD_code = ALBTCI | q = 0 | S = 0 | Stoichiometry = C12H9FeN3O3 | MND = 6
Fe        5.28753475963312    0.95908256337402   -5.14160935423684
O         7.60356696022314   -0.60090468420486   -4.38295685373679
O         7.10807860221091    3.23091457540710   -5.46411365819145
O         5.20654187492144   -0.61739533121154   -7.61344096668221
N         3.02219009221288    2.53034355686164   -4.57757565559262
N         3.73646731073788    1.99680574896984   -5.58710655701809
N         3.22518336248051    2.29369462820485   -6.71868926323393
C         6.68091900135705    0.01778711898027   -4.66817559001037
C         6.36279036671773    2.37035761345476   -5.32701571026219
C         5.19498339221521   -0.00339642862966   -6.64924013137695
C         4.05591419295721   -0.05292956328118   -3.80340673250146
C         4.47474899782882    1.18191208604430   -3.24778764984050
C         3.46838335535682    2.32162907558328   -3.22545795459743
C         1.97975998734531    3.22295994368999   -5.09784438338538
C         0.93612907945596    3.95890089779488   -4.54878323081343
C         0.04721221135473    4.52312388541818   -5.43620468527101
C         0.18172600063590    4.36572366612685   -6.82322936948495
C         1.20910677443767    3.63944795891169   -7.37764776893774
C         2.12449964918316    3.05801646581744   -6.49928376888992
H         4.45615388963783   -0.96707942994473   -3.38019641125876
H         3.01716958879374   -0.16408919233041   -4.10807940073956
H         5.12756942426137    1.17560525869151   -2.37938102764367
H         2.59999237067543    2.07995702578935   -2.59839944354154
H         3.92361164674804    3.24522845781512   -2.84622769541483
H         0.83233907903654    4.08136766670973   -3.48191978552642
H        -0.77921443345009    5.10470759953044   -5.05676297964598
H        -0.54786266449183    4.83177300658041   -7.46786402838223
H         1.31770512752411    3.51345582984640   -8.44189994378364

