38
CSD_code = ALCPMO | q = 0 | S = 0 | Stoichiometry = C15H17MoNO4 | MND = 8
Mo        1.48150680639356    2.85253165219016    1.63744082281192
C         0.17777624015378    1.38704397867952    1.85333238561204
O        -0.80794788194829    0.84406989405593    2.22195618367138
C         0.25922558287486    3.63684809052106    0.35196499246811
O        -0.47112425328860    4.05293287949216   -0.42908190590084
C         3.65019747885586    6.61453272492418    2.40478490995586
H         3.19645002842114    7.57252865644536    2.16021357584046
H         4.30276174759510    6.31227770097636    1.58884675552585
H         4.23518019898762    6.73756905322937    3.31369418972856
C         2.57054611589946    5.57207037280296    2.60987719758678
O         2.54435208819495    4.59777506032990    1.80995811874645
C         1.66089120242223    5.74378589723995    3.65488736808398
H         1.73922202022472    6.62704817729006    4.26885649163367
C         0.63030131155346    4.83300403896155    3.91485545321975
O         0.43234053297354    3.75800632591952    3.29006049083320
C        -0.32480094722235    5.14870075693882    5.04855263067359
H        -1.08143916486241    4.37053193908808    5.10747722068702
H        -0.80571571592402    6.10844565313985    4.87640423695578
H         0.21667674343415    5.20245576365033    5.99085586656199
C         2.41134352654255    2.29608016155746   -0.39994115823486
H         3.32738967900237    2.78800421454404   -0.71569661506842
H         1.67941468662154    2.20089705929746   -1.19710393028607
C         2.51355680429642    1.28848089375068    0.56748597457042
H         3.47037971762651    0.85423470072185    0.86336553804462
C         1.25438673862795    0.56146430876742    0.88478468584650
H         1.44460837315510   -0.35242846600258    1.45717065947231
H         0.66294199064045    0.32745643327634   -0.00881113241578
N         2.73008665868646    2.24522461000724    3.22496702021350
C         4.02184402828300    2.59170321820399    3.23838714531052
H         4.43901693190660    2.90462109780742    2.28687550814045
C         4.80375353408459    2.57501275497658    4.37654793338330
H         5.83935275340285    2.87336451290608    4.32269731919105
C         4.23754913909077    2.17002206974974    5.57729707952483
H         4.81921945371652    2.14272005144493    6.48561283891212
C         2.90211235392825    1.79343521551859    5.56819629385534
H         2.41250083393203    1.46349535160245    6.47096910563818
C         2.19553066552911    1.83757535204719    4.38131640360615
H         1.15491199620403    1.54247784397683    4.34184234560566

