101
CSD_code = ALEBUO | q = 1 | S = 0 | Stoichiometry = C53H44P3Ru(1+) | MND = 8
Ru        3.72211640598631    4.18756433638463    6.07815231959264
P         5.58905838215456    3.39783057314299    4.95801544408679
P         3.76124830000922    2.65683752685794    7.77110055597106
P         4.86349156817953    5.50132349675508    7.59808739768716
C         2.57057743417830    5.72579942304039    4.86860029292429
H         2.80514826541751    6.74043463874549    4.57614284300786
C         2.74535024289458    4.58248503235249    4.05967027833169
H         3.17751840566561    4.56156768877622    3.06714396734756
C         2.10017738924972    3.48404612463010    4.68984973018435
H         1.92803984306529    2.51993299947367    4.23242417555218
C         1.47922946229412    3.97204004753226    5.86825734685808
H         0.79575920122039    3.41854378143314    6.49901519247762
C         1.78433577447537    5.34489105500557    5.99696270561261
H         1.34308064715737    6.02437710687572    6.71371361731282
C         6.74217227129891    4.65748104658774    4.31664661827190
C         8.12362976472322    4.49906847923435    4.32600018475814
H         8.56852093674493    3.62399258957811    4.77544380066189
C         8.93252810196683    5.46323547824114    3.75036134719391
H        10.00421289526486    5.33491339864529    3.76301183400215
C         8.37611182800871    6.57861509588762    3.14809259411801
H         9.01223405248302    7.31946388039938    2.68869295818969
C         7.00044775577609    6.74187631368399    3.13574548046041
H         6.56201857256895    7.60930079558842    2.66498694382004
C         6.19008985866168    5.79247588562150    3.72739478618206
H         5.11565995594465    5.92053548609735    3.73201198941915
C         6.74018762894477    2.22390769828360    5.73966532211469
C         7.27984449598957    2.64254211254547    6.95198815069600
H         6.94448578060191    3.59099477485944    7.34976470744434
C         8.22275840876387    1.87694458137260    7.60887395900388
H         8.64034924673375    2.21509096158186    8.54628844362378
C         8.62833060156341    0.67101821163771    7.05635922375948
H         9.36511794376333    0.06593654984429    7.56246678878717
C         8.09149154511268    0.24660399298296    5.85223482398606
H         8.41199866705096   -0.68937409388423    5.42010956084629
C         7.15388217792915    1.01828214920863    5.18601650168673
H         6.75693941555584    0.68245033130058    4.23984812371746
C         5.12023836761041    2.50284879933234    3.44218932230373
C         5.45329128791275    2.92546588018871    2.16070006432225
H         6.03644494861035    3.82365973621252    2.01609648146179
C         5.03759123875938    2.18862723286919    1.06379330310843
H         5.29773890687839    2.52067108641852    0.06997135419604
C         4.29560583961619    1.03232761378405    1.23552584393809
H         3.97502051434852    0.46380355119394    0.37609520516397
C         3.96735153358489    0.60397040502397    2.51299578938077
H         3.39482994734999   -0.30124406933963    2.65189868443955
C         4.37406819580656    1.33733651593722    3.61055229461716
H         4.12770736643352    1.01234133383191    4.61373191971243
C         4.06347232983156    0.90138358672154    7.42892975984093
C         5.20101615255471    0.19609766843457    7.79925779725690
H         5.97977608445057    0.68011643912216    8.36806090208781
C         5.33533392275743   -1.13236841473951    7.43206847475873
H         6.21952557604353   -1.67739696231899    7.72582160093724
C         4.34636534744755   -1.76145158843572    6.69521180574008
H         4.45752339288094   -2.79749181726053    6.41458371264559
C         3.21028846085446   -1.06083751036175    6.31815121320624
H         2.43638167524297   -1.54939511442649    5.74503332521298
C         3.07266621387890    0.26588007056928    6.67732069915872
H         2.18979444768016    0.82572821094978    6.38960670061687
C         6.38583513562658    6.43663399381767    7.17865968263698
C         6.27029338506470    7.51749737138859    6.30776046184453
H         5.30669540839986    7.78372367748757    5.90336914094209
C         7.37741525772381    8.26012691809722    5.94580515818141
H         7.26258156809391    9.10584076587005    5.28483447976877
C         8.63007014822882    7.91721136764581    6.42389842082861
H         9.49678047147172    8.49422678170052    6.14121501081526
C         8.76267864534320    6.82538257590946    7.26318327397276
H         9.73636618178321    6.54295215398248    7.63437480397489
C         7.65348399165897    6.09035971580081    7.64104953930474
H         7.79314663650386    5.25358999256832    8.30830762898763
C         2.26211202382443    2.60074905266455    8.81502071079039
C         1.72510307094327    3.83047715904617    9.18836743914265
H         2.17135199518842    4.73992938254993    8.80260174735227
C         0.63909264161793    3.89298774642716   10.03835737578042
H         0.23041746048379    4.85202508559303   10.32020765118891
C         0.07860175315515    2.72233363470185   10.52625859992924
H        -0.77330931736776    2.76565593735333   11.18717701094080
C         0.61588467171612    1.49758385369109   10.16775039272667
H         0.18472580730154    0.58556770147047   10.55224311663645
C         1.70899717820420    1.42972190878436    9.32003658988475
H         2.12135763765371    0.46762483336461    9.05299884490497
C         3.83413821666537    6.79038533107626    8.40784756347627
C         3.54454526779006    6.76454350206737    9.77092150740122
H         3.93757397252008    5.98316261786512   10.40339884642799
C         2.73224988267380    7.73311511750965   10.33457724924941
H         2.52161542577568    7.69538485138018   11.39278695109866
C         2.19078221253361    8.73914696603638    9.55362409838992
H         1.56014537698779    9.49380238623498    9.99742057847346
C         2.45338603567890    8.76122341878204    8.19409091384575
H         2.02324786012435    9.53118519202308    7.57102021497564
C         3.25826583831030    7.79110783384104    7.62708397247865
H         3.42335060081853    7.80821992252086    6.56097898497669
C         4.89105746533800    3.17841854158843    9.10120040028867
C         5.36089101307083    4.49278935110196    9.04202681557900
C         6.11740355996364    4.99729433338526   10.09780443055948
H         6.45439098995720    6.02476596386434   10.07621549601059
C         6.41828028648827    4.18989571318548   11.18130862644901
H         7.01261415231376    4.58322031747913   11.99200360060373
C         5.93865792796635    2.88953353067542   11.24082363111012
H         6.15909751993903    2.27254489635436   12.09847263882052
C         5.15778265015131    2.38884308788352   10.21413567093861
H         4.74356701433294    1.39261331120073   10.27834446448072

