61
CSD_code = ALECAV | q = 0 | S = 0 | Stoichiometry = C30H28P2Ru | MND = 8
Ru        8.58495040280668    3.29673673950370    2.10032419780298
P         6.38397547314373    3.76693911331520    2.37104806594613
P         7.44940960846506    1.80965866539500    0.82673623569844
H         8.62064630697370    4.26784630133786    0.89742177680378
C         9.78227705914508    1.88805438811074    3.30065194270618
H         9.69137899917554    0.81017506277036    3.37023230898908
C         9.18685023121174    2.82476936771815    4.16802110744103
H         8.57348396142921    2.59188039556073    5.03043118380995
C         9.71154107874221    4.11656566149942    3.85338567473127
H         9.57848740443445    5.01494334777556    4.44442242083836
C        10.64395706124496    3.95606564023831    2.79949004483759
H        11.29404887742027    4.72947033720547    2.40797796865501
C        10.67605839893542    2.58513509025755    2.43328425626783
H        11.39655420366191    2.12610823851562    1.76756004513841
C         7.49438575872812    1.52913755279688   -0.97379054786487
C         8.54984707441648    2.06694843506750   -1.69750799934358
H         9.30553079891483    2.62853136454932   -1.16198832998322
C         8.60832681325624    1.89160715679050   -3.06910721031731
H         9.42973716627468    2.30673944633935   -3.63463180036939
C         7.60904561918677    1.18431281516462   -3.71704839415252
H         7.65181988762577    1.04722536218848   -4.78780097132903
C         6.54901476083165    0.65313654898932   -2.99700260079875
H         5.76985383439553    0.10602707600244   -3.50835683689533
C         6.48843417760334    0.82261202771991   -1.62688870229661
H         5.66937024179380    0.40598674977797   -1.05515758672544
C         5.50375098695046    3.40099733745858    3.93182119906601
C         5.94624344571599    4.16615555540940    5.00931995914304
H         6.72658202974258    4.89828650619206    4.83390376058971
C         5.40333954806696    3.99478221106518    6.26686243405559
H         5.75271665051976    4.59277877296286    7.09645252942577
C         4.40994280822741    3.04721468446061    6.46267423167436
H         3.98532423600241    2.90356900137908    7.44534752143079
C         3.96205774387901    2.28601150572081    5.39669039719441
H         3.18428211071276    1.55090611523548    5.54777939327372
C         4.50341252508171    2.45908122266951    4.13359525929815
H         4.13504148125596    1.85746825107826    3.31441289590199
C         7.23331204919385    0.11611690960858    1.46555216695286
C         6.72449404019427   -0.01974105768097    2.75425004206389
H         6.42982178321848    0.86971864732500    3.29939745398093
C         6.61401861668397   -1.26737920130381    3.33530801672329
H         6.20762901161696   -1.36556984320442    4.33190436597014
C         7.03665805666142   -2.39126749366166    2.64133928162971
H         6.95572082756432   -3.36835358506446    3.09473935094725
C         7.57721905256985   -2.25862963312985    1.37320320509740
H         7.92263326290515   -3.13282406617415    0.84027821876461
C         7.68259119240513   -1.00988499740100    0.78511577273565
H         8.11036095272569   -0.90584778134475   -0.20235915701122
C         5.50170111161042    5.31096793368859    1.94123946536979
C         6.24670923069167    6.40778124399521    1.53167522442627
H         7.32402697670746    6.30562826921079    1.47995407587642
C         5.60964578606081    7.58789645502779    1.19035514371310
H         6.18772741258309    8.44323639816351    0.87227276099146
C         4.22864825570764    7.67080980353292    1.25652224896854
H         3.72907592898026    8.59084992107307    0.98980973237961
C         3.48248198685503    6.57528631868680    1.66448075992403
H         2.40510920042878    6.64413512089410    1.71347834572574
C         4.11478291986642    5.39628661416015    2.01077111858108
H         3.53969413231127    4.54009518616501    2.33784341557909
C         5.75650932804064    2.57190753488814    1.07626733369842
H         5.48316296117587    3.13555126074561    0.17591513132162
H         4.95288715726478    1.88506599358509    1.35002069493468

