78
CSD_code = ALEGIH | q = 0 | S = 0 | Stoichiometry = C36H34Cl2N2O3Ru | MND = 6
Ru        2.88839619120758    6.00757049506400    3.25330879065864
Cl        0.76025117144492    4.97871977404732    3.10106772119947
Cl        4.95063836200604    7.01016254273397    3.56324151556858
C         4.10197043588080    3.95069075638235    1.59636043586105
C         4.75467281430100    5.15813453595281    0.86306317339703
H         5.44987870062776    5.60038461459358    1.58741989479907
H         5.32934803829845    4.80455521597957    0.00647378999248
C         3.77760872041021    6.20467732291259    0.43661461653210
C         3.84753699107425    6.69453768809296   -0.86387881825259
H         4.62197750818804    6.33353224463513   -1.52227902382972
C         2.93056044977175    7.63008472416025   -1.29826732115634
H         2.96266020505161    8.01421141710693   -2.30606456759786
C         1.96607727507486    8.05358695625696   -0.40593123846790
H         1.21216824359914    8.76366568169535   -0.70647134330598
C         1.96078326522011    7.56258657398574    0.89532683602882
C         0.91911052559952    8.04652188833217    1.84785738284262
H         0.28445438343234    7.19736992635206    2.12816239997054
H         0.29469755342917    8.80663398843561    1.37823785560773
C         1.50408395036440    8.59576536382563    3.18408616672176
C         5.20867725100882    2.90813124576242    1.77865102262418
C         5.43447968001937    1.90047856839135    0.85261775912007
H         4.80212810915512    1.81476641019695   -0.01927477643552
C         6.46571852998965    0.99855874969396    1.05074585037787
H         6.63641641265587    0.21423906524522    0.32747648427156
C         7.27419093641358    1.09678839157409    2.17040818007650
H         8.07665134404959    0.38934724668259    2.32109495825561
C         7.05071664627991    2.10313513083211    3.09483513783465
H         7.67958204567820    2.18603779954292    3.96913797678380
C         6.02394577812294    3.00805917985250    2.89789871190383
H         5.83484376913384    3.79892579314427    3.61070172099522
C         2.92290773862914    3.33691920790989    0.84285682119404
C         2.04967393766051    2.54110489026860    1.57702803819680
H         2.23999908497980    2.39145919262907    2.62991948378840
C         0.95077622092689    1.96051507594715    0.97251680267531
H         0.27262597870828    1.35942934618105    1.55931435659081
C         0.71891441752226    2.15550775425161   -0.37791978755184
H        -0.14116050869854    1.70696200817305   -0.85310908184705
C         1.59782965596150    2.92520793593162   -1.11869187306793
H         1.43159273224884    3.07240751753416   -2.17644665925586
C         2.69578028025841    3.51468914150762   -0.51429857157970
H         3.37167028487985    4.10167420474179   -1.11643807053139
C         2.61887845560520    9.61508435390446    2.96750620112122
C         2.72484042454263   10.40359471451592    1.83007067090372
H         1.98847330416443   10.33917014803097    1.04457100218302
C         3.77093183537130   11.30090205149628    1.69945864000380
H         3.84258442999176   11.90775154575829    0.80800304749118
C         4.71922914471618   11.42203552963231    2.69998212900931
H         5.53914627567445   12.11623423791728    2.58812479400316
C         4.60641932106757   10.65487997606759    3.84593852187783
H         5.33718852086440   10.74539985851202    4.63528223430751
C         3.55871908628323    9.76329871986104    3.98174277713376
H         3.45964001228735    9.16642677509212    4.87716629404335
C         0.33220237597480    9.21177711883062    3.95413903877153
C         0.17812932535836   10.57921182404968    4.12547519104011
H         0.90017808680314   11.26246300656552    3.70328927625342
C        -0.89917495852908   11.07225446579445    4.84288884109594
H        -1.01137655728199   12.13910708165568    4.97087220661978
C        -1.82607261974724   10.20689451473863    5.39690245616429
H        -2.66343829911222   10.59590517394690    5.95765894919889
C        -1.67585268864895    8.84054674379100    5.22753390463804
H        -2.39862864063579    8.15875114274726    5.65230150304503
C        -0.60464959900580    8.34609217196146    4.50703207242545
H        -0.48683071889935    7.28042855844635    4.36335323878754
C         2.00505641623333    5.53190900989202    6.01811474541661
H         1.13536641414342    6.12224172999103    5.70248534580773
N         1.93537273611979    5.06850459263143    7.26055620628378
C         3.00702144525809    4.27250232945124    7.81446433250945
H         2.63188426993489    3.29241554834740    8.11389617478325
H         3.43670459467481    4.77116099075713    8.68532227126710
H         3.77260565223646    4.15077305715202    7.05084280638279
C         0.80431785939896    5.31749296203102    8.11472740072883
H         0.34082223533241    4.37317784882751    8.40989235255456
H         0.06888176953657    5.92383166187903    7.59081670326982
H         1.12277757912612    5.84539559218618    9.01678801442500
N         2.85665402485309    6.65208542855698    1.30008948113610
O         3.66617628989600    4.34400061903722    2.83850075587609
O         1.99503661430113    7.55068238790703    3.93535519512298
O         2.96955047151912    5.33058096147079    5.28240247333630

