115
CSD_code = ALEHOQ | q = 0 | S = 0 | Stoichiometry = C58H52N2NiO2 | MND = 4
Ni        0.70922815975439    7.22678940367348    6.66924118313790
O        -0.43781899136166    8.67927923144489    6.75248688449965
O         1.85218680804547    5.77795883216298    6.82844784751066
N         2.21552882329235    8.44018677045772    6.58667022831408
N        -0.79462051742794    6.01086502145991    6.57955110385366
C         3.46657652009058    8.10092933163733    6.54231282705003
H         4.20277848188242    8.90276196652566    6.44902329959335
C         3.99742188100227    6.79305605147606    6.59903873636597
C         5.39001781893187    6.60930619990252    6.48644218953510
H         6.00847023946732    7.48115097769370    6.32349158010124
C         5.95381856114701    5.36616766484243    6.57516836752400
C         5.10443365000681    4.27111838185378    6.81317567447307
H         5.54751479070234    3.28920942314030    6.91530844291058
C         3.74466199174417    4.39334297282305    6.92245179860727
C         3.13172910719891    5.67766055297567    6.78102581259638
C         2.87288804757614    3.20466377531812    7.18419633665110
H         3.44371973210320    2.39892843673298    7.63934004355490
H         2.43691773255911    2.83952091810066    6.25460641693779
H         2.05036305696963    3.48452964315166    7.83812459490976
C         7.43106615514792    5.14648024660695    6.44446445040294
H         7.64499676159680    4.49111082084181    5.60050648494532
H         7.82728367938436    4.67267930674773    7.34209121448947
H         7.94984155643488    6.08930585457583    6.29113072658850
C         1.98107898071530    9.83611732952251    6.48800589340775
C         2.19943764929037   10.66328027183849    7.58194906127287
H         2.48433008439859   10.22305242542510    8.52681849147129
C         2.04701095199752   12.03110930528910    7.46032688518331
H         2.21742832367362   12.66733776496969    8.31677185408573
C         1.68437363489133   12.59873150580526    6.24486671168222
C         1.46853323923688   11.76327112745929    5.15697290544443
H         1.18972607638224   12.19272351597652    4.20449777818837
C         1.60786182474884   10.38838448220479    5.26013166542038
C         1.42780223338910    9.45209671540417    4.08637698023899
H         0.89287492016298    8.56621451214319    4.48032860715634
C         0.56253233335202   10.06176374899900    3.01034757585490
C        -0.79974269561501   10.19992804877201    3.25880735342922
H        -1.20808543210487    9.84628393895921    4.19449434209705
C        -1.62997801592832   10.78423066897862    2.32108485633357
H        -2.68423217491276   10.89322410831912    2.53280682392962
C        -1.11170077090337   11.22954505993065    1.11573913808214
H        -1.75920299384597   11.68463368618538    0.38051442283998
C         0.24015063085467   11.08622437994505    0.85803524549070
H         0.65064806212459   11.42850180036694   -0.08100147072385
C         1.07468535628691   10.50866510006896    1.80058639449571
H         2.12946685107703   10.40419133690625    1.59156652939586
C         2.77937666637250    8.98031432544044    3.59780685739259
C         2.94816499044954    7.66951106696194    3.17223692953788
H         2.10397490063937    6.99589202804215    3.15631422474670
C         4.18914249752985    7.21006239503510    2.77094854449623
H         4.29866945046616    6.18458441878991    2.45142266637585
C         5.28142893709931    8.05957949528083    2.78499668670640
H         6.25353970055441    7.70034246246196    2.48109620249465
C         5.12052471993583    9.37394263162297    3.18897002205914
H         5.96686329733927   10.04608672918131    3.19522631403278
C         3.87871742237424    9.83162136682959    3.59209644111847
H         3.76234451972429   10.85698935150356    3.91412976614551
C         1.51826620316605   14.08295887349661    6.12253185826730
H         0.66211212373226   14.41357641568350    6.71017743194284
H         1.35729519863931   14.37318347320839    5.08737330058430
H         2.39897401132227   14.60061724014984    6.49952320467933
C        -1.71486510443382    8.77831815733196    6.65861840259918
C        -2.33166003386681   10.06599005891440    6.73928895073476
C        -3.68669462805280   10.18406991402354    6.57772692127402
H        -4.13223476891449   11.16861701311336    6.63323769645595
C        -4.52786541508970    9.08208009638229    6.34328565469298
C        -3.96223512703864    7.83690830476464    6.31409621701635
H        -4.57510239312411    6.96015089334860    6.15652265163943
C        -2.57467970713856    7.65746376980026    6.48150479957702
C        -1.47081578281067   11.26434335990475    6.99457792980709
H        -0.64853593622180   10.99668588563209    7.65365740274323
H        -2.05135995307374   12.06788582234061    7.44168852708913
H        -1.03615468477510   11.62758102901983    6.06344310086538
C        -5.99942093778834    9.29711009574255    6.15394254227285
H        -6.43218097873567    9.77012117194947    7.03508924123470
H        -6.50888996126312    8.35251731114031    5.98158679071864
H        -6.18201875417053    9.95136806540042    5.30197197569316
C        -2.04315774270270    6.34858592202152    6.48324785026396
H        -2.77667721696592    5.54422310783593    6.39056448704475
C        -0.55911543931270    4.61240391117321    6.52856333025038
C        -0.80266322563318    3.81769299530087    7.63937610890439
H        -1.10786692677929    4.28430553780169    8.56501131914948
C        -0.64846964743990    2.44518563469238    7.56106729916810
H        -0.83910188658963    1.83694259808163    8.43341289899382
C        -0.25927168442008    1.84371009107667    6.37285810998388
C        -0.01699461183880    2.64891802087627    5.26511459872119
H         0.28468671925316    2.18919727010776    4.33393445294111
C        -0.15669096427475    4.02471096019540    5.32509463606650
C         0.05623232891010    4.92832315636489    4.13143527284370
H         0.58054368799041    5.82483484242253    4.51564956841705
C         2.30545191019305    4.15639222852930    3.38933037009800
H         2.68675052791401    4.53344415902271    4.32734370447806
C         3.16184867113677    3.54779305602937    2.49145502709714
H         4.20926978183075    3.44319309868157    2.73668686850252
C         2.67835665285842    3.07281479665809    1.28296148260619
H         3.34640314584964    2.59882160540457    0.57871808797821
C         1.33490541009596    3.21086289962208    0.98213100920521
H         0.95167377629512    2.84549058180893    0.04028842208403
C         0.47403522869601    3.81279690773343    1.88491015050002
H        -0.57397117168802    3.91309880218280    1.64243610823081
C         0.95129883105450    4.28964103001351    3.09744333967804
C        -1.28039573458343    5.38671032963876    3.59176248487814
C        -2.38207802126710    4.53851315097942    3.58453294216290
H        -2.27771656088203    3.52397302933407    3.94292488498744
C        -3.61120797494415    4.98581970422112    3.13368740523988
H        -4.45975149082121    4.31642782434016    3.13953589100187
C        -3.75678321446195    6.28650748651878    2.68249795196095
H        -4.71920080923601    6.63798107521603    2.34101540386688
C        -2.66153815192910    7.13224883033994    2.66951520669827
H        -2.75900092738717    8.14685523225422    2.31350838464367
C        -1.43330066871363    6.68318333533433    3.11878880593430
H        -0.58663533740701    7.35370178973946    3.10323987698000
C        -0.11428808283542    0.35586991147853    6.26680508858242
H        -0.05311841901937   -0.10003459659405    7.25169856418186
H         0.77871043026749    0.09616842980395    5.70174239790882
H        -0.97295477957982   -0.06969458636746    5.74639666343190

