39
CSD_code = ALELUZ | q = 0 | S = 0 | Stoichiometry = C13H16AuN4O3PS | MND = 2
C         6.31672411266757    8.31653940723415    6.75588132137509
O         5.96373190835232    8.71076967774214    7.85403137648626
C         6.53105270970092    9.19366686056556    5.56721592738378
C         6.37083309233961   10.56942393887300    5.51795542829356
H         6.05924832721490   11.10326463910478    6.40243678989276
C         6.61808686226336   11.21983797429901    4.31831908590216
H         6.49995566120092   12.29167230782814    4.25735230391649
C         7.01622403659544   10.51170310032660    3.19324813322802
H         7.20467572388092   11.03705709391778    2.26883883232109
C         7.17769288902456    9.13162984406470    3.24255381030960
H         7.48741468629820    8.56753338036673    2.37703562415819
C         6.92937125700292    8.49993954999961    4.43811927870250
S         7.02872010568274    6.77523774653165    4.89513437062101
O         8.37813901383373    6.28459356402406    4.85718854199813
O         6.04539332946977    5.97825142472003    4.21617782575956
N         6.56495101402613    7.02991628559165    6.46497415362274
Au        6.39068993847757    5.56711750326856    7.82220554720462
P         6.22610500876487    3.88475725677307    9.27090936873497
C         7.52910539911280    3.63415508885105   10.57663552135235
H         8.50335100666207    3.51700804816497   10.08693683008187
H         7.56987653374720    4.52599371728247   11.21352121068262
C         6.21311701243243    2.13886601698530    8.62885449746917
H         5.36394720498812    2.01775386314172    7.94560042888818
H         7.13532124642690    1.96360220379866    8.06203624006224
C         4.75125045326389    3.72224978510822   10.39563719413080
H         4.68458241986253    4.61777760622072   11.02495067211591
H         3.84267104525017    3.66451398855613    9.78432312833975
N         7.26035756283250    2.47184902575125   11.39462765448193
C         7.24333086349445    1.24812863628345   10.60863459393474
H         8.17175058620644    1.17545526213840   10.03662138185823
H         7.18210857919108    0.40225391191416   11.29959727524214
N         6.11290652785940    1.16881839713021    9.69728060031706
C         4.88109825955052    1.32281923732262   10.45450651164026
H         4.79889708510683    0.47774263186920   11.14425187305047
H         4.03197471950627    1.30614950656883    9.76664147225631
N         4.83889228429747    2.54858673756718   11.23656849558392
C         6.00035617706676    2.59305523305512   12.11064782792357
H         5.92804391018200    1.75796171159128   12.81353719194220
H         5.99355144614951    3.53214783546354   12.66961167873951

