60
CSD_code = ALENIP | q = 0 | S = 0 | Stoichiometry = C21H27O10PRu | MND = 9
Ru        5.77040143097820    2.73561425651384    5.40255713506388
P         3.94432761892227    3.05687379527072    6.71472664917359
O         2.35802182960969    3.04640661411593    6.26346610472843
O         3.73721343048203    1.91296994846513    7.83267435868995
O         4.03986110404051    4.40595900063721    7.56252810099527
O         3.73817823902107    3.03134973115266   10.32603150347772
O         3.94695396228872    4.61344246532095   11.99565257838428
O         3.37929292014479    6.23791336246799   10.52898805391434
C         1.54655505661422    2.54871350541274    7.31593365058905
H         1.03171549146253    1.65218056665483    6.95657424605237
H         0.81168975553128    3.30286756257378    7.60555120543817
C         2.50837526576204    2.21276122348420    8.47147895908207
H         2.21304172073710    1.33229819572934    9.04649873868379
C         2.72260577085201    3.39920991450580    9.42015102915810
H         1.78786507855441    3.63617321294178    9.95339753347652
C         3.23570062034714    4.66523753303888    8.70759037518867
H         2.42519814994496    5.34231900333296    8.41980502584107
C         4.12304396648363    5.31650033444973    9.77538378402172
H         5.01363122446292    5.76454095864572    9.32408458933297
C         4.43675258489481    4.16472973848637   10.76259973857958
H         5.49531361989318    3.89260575395256   10.82721063942718
C         3.66158645538911    6.00073375191203   11.90008413375668
C         4.87427952529714    6.82160278727878   12.34987622756232
H         4.65531412198766    7.87980420372540   12.24337440884030
H         5.73467788205002    6.57204419629645   11.73450346909888
H         5.10085283593143    6.59319539296929   13.38682329375887
C         2.42154572454378    6.32318714504193   12.72623184987594
H         2.17325367885333    7.37230064360163   12.60429923721546
H         2.62053019842120    6.10616592039303   13.77027476803692
H         1.58921571865360    5.71389676786160   12.38638113131088
O         6.15251245312263    4.73758176041019    5.73667263109087
O         6.56353583931094    2.71001147918579    7.31879602777537
O         6.64859185297873    6.21089154138497    7.31935263859554
O         7.05147534751565    4.01300475418492    9.04697970893172
C         6.49742789538564    5.07336214279316    6.92995543659550
C         6.73363613252860    3.85224739072226    7.88578937638906
C         6.95847967874062    0.88260181407931    4.88698927128697
C         5.60611590259126    0.59399443794562    4.60630718526629
H         5.15397320974850   -0.30434567445962    5.01246331530958
C         4.84937831044752    1.43708579489893    3.75701356857818
H         3.82082174757415    1.17237508034044    3.53843660390489
C         5.42898057494918    2.56903480107180    3.13916395270130
C         6.79728972231870    2.83469458947948    3.40466817640079
H         7.27851415310110    3.67245840088520    2.90898135416634
C         7.55323915119757    2.01412272579291    4.26254992239484
H         8.60994054369060    2.21051797792116    4.40729390521225
C         7.74863345469375    0.04205660800068    5.83684715987055
H         7.31974695760596   -0.95191661580938    5.93920205412368
H         7.73065284694247    0.52416352526036    6.81810983748302
H         8.78653715260156   -0.03968012377925    5.52047704146491
C         4.63429479312447    3.50312289994986    2.25505032374073
H         5.34282024469974    4.05187501021979    1.62422074715170
C         3.90220125212625    4.51452544694809    3.14680337552557
H         3.38502378080456    5.24949805209754    2.53496839440460
H         4.61039681058330    5.03186525352281    3.79422771374342
H         3.17362480136761    4.00561158990700    3.77771376839989
C         3.65082885930358    2.76825511920754    1.34298266416323
H         3.23744022578682    3.46470320687037    0.61817749761777
H         2.82430276280166    2.35108735494330    1.91224424010565
H         4.14838855975188    1.96579616866251    0.80242958944004

