65
CSD_code = ALEPAJ | q = 1 | S = 0 | Stoichiometry = C33H28N2PRu(1+) | MND = 8
Ru       -0.15930280497358   11.10224261472089   11.35158051877569
P         1.25846404104882    9.79790896205804   10.07781895661207
N         0.79873121525744   12.72401486525422   10.69140147426372
N         1.25842751879914   11.32219995826235   12.73428640154600
C        -2.03083205944656    9.97993305318998   10.76923261163524
H        -2.16871232033263    9.18940694975706   10.04069315971939
C        -1.78900724531102    9.77458602285743   12.16163646410380
H        -1.77254961589113    8.81177735528523   12.65239868933222
C        -1.88411307928686   11.03546273370819   12.79759560879703
H        -1.86285789161167   11.21083800426222   13.86525877256132
C        -2.15028491834695   12.01761881415805   11.81147807278642
H        -2.40094658289848   13.05198417874829   12.00501936931148
C        -2.25886119801334   11.35970980525933   10.55439978263375
H        -2.63172816368095   11.80672024915824    9.64323691279751
C         0.43169054103346   13.42420452672069    9.61485745554488
H        -0.40983136379047   13.04134175988510    9.05412927052706
C         1.08331699116859   14.56837313668629    9.20395224212150
H         0.74138273570443   15.09517391548227    8.32837199086515
C         2.17841225077375   15.02176791789829    9.93264097010281
H         2.70835885267889   15.91227014155325    9.63602154226836
C         2.57029282710061   14.30497624728493   11.04555472811391
H         3.41379121100925   14.62508368539138   11.63398320782128
C         1.86470070471342   13.15850364775828   11.40820552065266
C         2.14632135415830   12.33348114505046   12.57230027519755
C         3.19448727561541   12.53611916601107   13.46827289866145
H         3.89784262971440   13.33450405258504   13.30175650843788
C         3.32248017812371   11.70756521201521   14.56462160386261
H         4.12777412813862   11.84405892705983   15.26765494814954
C         2.38158293090826   10.69920249730968   14.74619519306872
H         2.42921616665218   10.04104175646937   15.59818603834455
C         1.37889396234295   10.54368642230960   13.81288903006193
H         0.63915452826164    9.76221417515824   13.92871835320348
C         1.05327394678442    7.99526435137485   10.22698073968756
C         0.81355912886532    7.47515822271994   11.49738578721520
H         0.74530483568109    8.15375300571400   12.33779829484859
C         0.66096070530977    6.11409649534199   11.67924936079903
H         0.48052131083874    5.71686340588670   12.66700901742820
C         0.73386775723126    5.26037712199209   10.58946292803263
H         0.60975560566185    4.19753387130070   10.72793579737584
C         0.95887379547178    5.77319385807563    9.32286260172741
H         1.00906381338253    5.10963601105634    8.47307898333676
C         1.11880750853400    7.13554291322350    9.13568666199015
H         1.28948075049044    7.52572087511203    8.14332734940750
C         2.99861301234229   10.09241082211323   10.53573253600279
C         3.64577479184230    9.31910019250635   11.49427116268660
H         3.16587585344784    8.43379738672951   11.88624000984877
C         4.91142937821851    9.67052495166155   11.92898852408840
H         5.41244797088301    9.06078952417678   12.66547417767103
C         5.53729169084454   10.79640520249389   11.41942845922190
H         6.52512741398918   11.06576922330947   11.75986562089909
C         4.89992122126790   11.56788187035743   10.46089489657813
H         5.39000706383604   12.43810768383022   10.05068975784115
C         3.63372496945461   11.22460281628667   10.02525687331173
H         3.13928215620534   11.81915289020468    9.26694528549272
C         1.26451924983415   10.06749089864431    8.27940839340832
C         2.38478030921121    9.78695455110273    7.49911144558539
H         3.29059312276225    9.42553802730109    7.96587624599846
C         2.33131341365095    9.96796583739194    6.12915336820986
H         3.20003369541929    9.74907675020411    5.52698294003830
C         1.16693723929475   10.42109107501639    5.52810197603200
H         1.13175837889901   10.55996247474758    4.45864776079623
C         0.04685617257403   10.68772519216306    6.29844510359555
H        -0.86335020702769   11.02989429649597    5.82930036757080
C         0.09559210254928   10.50977159379335    7.66934212159059
H        -0.77609295732313   10.70047470833157    8.28221687983115

