93
CSD_code = ALEPEN | q = 1 | S = 0 | Stoichiometry = C47H42NP2Ru(1+) | MND = 8
Ru        3.52394293210171    4.84585390187978    9.89375828965654
P         3.21521105752265    4.28294988707011   12.13886878174596
P         5.79274763995091    4.43024666190201    9.62334594241730
N         3.22104357211218    2.89822118076745    9.22443978074944
C         2.85581776782397    6.05164092816736    8.08501109636202
H         2.97847760719132    5.88816398187995    7.02351656887481
C         1.70618102076697    5.72807938524109    8.85508317564540
H         0.82266264908643    5.21923694323287    8.49125696252237
C         1.83663960217144    6.33868931815065   10.11777277340978
H         1.07207094197165    6.38803051579663   10.88207406844740
C         3.67717422458031    6.89751365765870    8.87135395120961
H         4.55850256269256    7.41324681031038    8.51285058624437
C         3.06876696873479    7.06113640692952   10.13469323636055
H         3.35697793550261    7.77480634643413   10.89355456651589
C         2.75468691470973    2.67633085224471    7.98658735737203
H         2.47782241022703    3.53874912389873    7.39560676739618
C         2.61417671076132    1.41765512626239    7.44089236136877
H         2.23991052485985    1.31807219366716    6.43376536300784
C         2.95820434783400    0.28856000880086    8.18036103249038
C         3.40930094709592    0.52234946298258    9.47587174370025
H         3.68325385623268   -0.29842387319941   10.11936991233991
C         3.52183958141970    1.81297260270923    9.94726648673445
H         3.88216337419068    1.99285018222864   10.95149837775883
C         2.82453914333471   -1.08490542726879    7.62283884147422
H         3.48392059588522   -1.77876424266656    8.13701125938078
H         3.04751560240178   -1.09520952651673    6.55876552510211
H         1.79960470790955   -1.43493383636757    7.75004119579290
C         2.98380106647878    5.79084948453471   13.15629681533195
C         1.80357080014784    6.07380365879769   13.83684629506909
H         0.96438166053320    5.39600682042864   13.78948365605603
C         1.68729352595258    7.23773926742916   14.57776699730252
H         0.76560313570594    7.44323544620663   15.10106503691819
C         2.73894615169398    8.13463454044565   14.64821741297766
H         2.64468610492682    9.03694551733082   15.23240293018481
C         3.90641829360440    7.87524785042221   13.94913878550430
H         4.72553252301591    8.57854192356427   13.98028511611947
C         4.02187394017814    6.72003138241918   13.19936726571234
H         4.91671466149188    6.54595751268293   12.61838609415454
C         1.65884727647134    3.38355987978172   12.46130748138935
C         1.32197043717131    2.99261383884797   13.75868069068872
H         2.00093947710750    3.19973976171561   14.57467914033270
C         0.12453611050436    2.34733094821897   14.00029240915280
H        -0.13032622640317    2.05084896548692   15.00651679130122
C        -0.75036261436055    2.08499943050856   12.95635769397147
H        -1.68494118459781    1.58134093428713   13.14968815986537
C        -0.42502719334779    2.47418178647371   11.66862828785245
H        -1.10656847725846    2.27611579037380   10.85479686604695
C         0.77340921782698    3.12275461881348   11.42356406628233
H         1.02462133467826    3.43441199266403   10.41683346473767
C         4.37424632602238    3.31420693712863   13.18907608123545
C         4.15613304891416    1.95283676931525   13.40993256159078
H         3.27123696587947    1.46988709377461   13.01893256918397
C         5.05498395837185    1.20698248193593   14.15045700740263
H         4.86317497229977    0.15788827486435   14.31940553791562
C         6.19044452461505    1.80018676486088   14.67682470507806
H         6.88929867025326    1.21715199406413   15.25646415269506
C         6.41955639192554    3.14794962705969   14.45777605177330
H         7.30030640003726    3.62219499222556   14.86350789965162
C         5.52274354231290    3.89852091761343   13.71779355866520
H         5.72561913946557    4.94473394756513   13.56034015399838
C         6.97552440382932    5.23079642337520   10.75727983778837
C         6.73252579809977    6.57392997476773   11.04345267041089
H         5.87667165000046    7.05958826097979   10.59142953959559
C         7.58200604007907    7.28222699576544   11.87257477277761
H         7.38812162510733    8.32355977703163   12.08335104223438
C         8.68360038507326    6.65216545165621   12.43031202923649
H         9.34522011312917    7.19950284550261   13.08397416437730
C         8.94193441221931    5.32450324366404   12.13313660631280
H         9.81106276476623    4.83799573502066   12.54954966961711
C         8.09983385181076    4.61381797701484   11.29423838820986
H         8.32724433008309    3.58620598380363   11.05488497182913
C         6.36985853003207    2.69557227844673    9.55568670453030
C         6.65130255831124    2.02769561617385    8.36878572055478
H         6.61049733890829    2.54824117989893    7.42385274264205
C         7.00727288392117    0.68982305379152    8.39163513684771
H         7.22903132229676    0.18294572198887    7.46454065595439
C         7.08908975070886    0.00504103819035    9.59191369348160
H         7.37159733093767   -1.03655974321470    9.60270636322852
C         6.81825684772770    0.66541193552785   10.77975818540489
H         6.88915044451489    0.14475995494627   11.72305472573353
C         6.45550530196328    1.99825866903527   10.76090737328335
H         6.24581402084757    2.51628121002957   11.68493207014053
C         6.35675760171030    5.07018102552423    8.00792342548193
C         7.46110340011076    5.90094119219693    7.85825466403788
H         8.04086597548782    6.19874604810502    8.71935007649686
C         7.82181224273302    6.35210073566725    6.59937930930313
H         8.67845587846536    7.00005864731640    6.49185077932250
C         7.09368854037257    5.97646855498985    5.48366670769397
H         7.37923778749588    6.33167141446994    4.50559871726946
C         5.99733336893654    5.13975249094433    5.62470564790266
H         5.43146516131076    4.83788437349593    4.75548248217509
C         5.62978178997112    4.69315865344458    6.87926045122494
H         4.77585738804992    4.03682355658437    6.99700293455696

