25
CSD_code = ALEQEO | q = 0 | S = 0 | Stoichiometry = C6H12FeN2O2S2 | MND = 6
Fe        7.26705852815636    0.90449850658465    1.74800621522392
S         7.47062993100917   -0.11844834510679   -0.29581529068322
S         7.04102968739750    1.59941224965437    3.92319842517050
O         5.64885044035049    3.08431849126856    0.77090998635013
O         9.17549623700868    2.94758800111607    1.03483637255580
N         8.72995969622793   -0.51991535272867    2.43876875257467
H         8.31679271115989   -1.31795452346324    2.92149095126292
H         9.31887394098001   -0.04500277411203    3.12239491236366
N         5.61572958378528   -0.41911051200753    2.15806832651212
H         5.05461224622688   -0.47814890081327    1.30874594188077
H         5.90897071580380   -1.37184264701849    2.37461049022329
C         9.53427546665029   -1.00505605608695    1.30881083024565
H        10.13371466881514   -0.17150382427000    0.93621614114018
H        10.20766967147270   -1.81920505195995    1.61352080123921
C         8.60084432315170   -1.47567589490769    0.20834865442290
H         8.00024431933372   -2.32541674747890    0.54354456157038
H         9.15885241163846   -1.76655538514914   -0.68017598610869
C         4.81481251953020    0.10304798732462    3.27386380564094
H         4.33517404348065    1.02723706764601    2.94406156376992
H         4.03734428141864   -0.61128825584426    3.58101881049571
C         5.73822308805953    0.41158028972896    4.43828888731698
H         6.21946666638419   -0.49856193544171    4.80599908555245
H         5.19297463668286    0.87813439786500    5.25714979216481
C         6.22937896082846    2.17997499809444    1.16093196554014
C         8.47422122444789    2.09999421710548    1.34590600357469

