61
CSD_code = ALESEQ | q = 0 | S = 0 | Stoichiometry = C14H32N4NiO4P2S4 | MND = 4
Ni        5.93958432083052    4.20627450275505   -0.00191464301594
P         7.69251102580998    2.32335357194393    1.89404008931318
S         7.55069236941328    2.61279128789301   -0.09385565638215
S         4.57865324649163    3.08995327568844    1.43753539181041
N         6.47572807533014    1.54036311001129    2.62538451445260
N         4.29457959659257    1.08778993990495    3.03038637520393
H         4.59122985580649    0.43757746299697    3.73804732438977
H         3.33292866950539    1.37619078550573    2.98579291963414
O         8.98097347686139    1.45942939427007    2.20046939001576
C         5.22335744464246    1.84119681821318    2.41280334660477
O         7.99185563542555    3.63880965481215    2.71217189380191
C         9.03028327299040    0.07567812123067    1.82721261903172
H         8.00456959527237   -0.26651930991134    1.64137413867429
C         9.61845459037662   -0.68815748455434    3.00448720864305
H         9.00014720803321   -0.53780295390968    3.88522458102821
H        10.62086585122057   -0.32426692529687    3.21529997217568
H         9.66277397054625   -1.74877974430383    2.77353239816256
C         9.86524005455409   -0.07359975380870    0.56387429907565
H         9.42446494173221    0.50667237337545   -0.24311290653400
H         9.90720678423491   -1.11836301871811    0.26864816018781
H        10.87441017770320    0.28882582908756    0.74399960342817
C         8.61242988577848    4.80912362588975    2.14696285162299
H         8.97834683113077    4.56751999593731    1.13880695942439
C         9.77594754776415    5.19555234497168    3.04458466496516
H        10.48831921541463    4.37648675946916    3.10057700003527
H         9.41335611929939    5.41176246296131    4.04639740646431
H        10.27224876189827    6.07511944958135    2.64417702720533
C         7.54872008448210    5.89236949010679    2.05093091262472
H         6.69193494525308    5.51171992112611    1.44577164677274
H         7.95058400082461    6.77818202349702    1.56700881849345
H         7.17357187518164    6.14689019867511    3.03918749587055
P         4.18595447191757    6.09105716714014   -1.89564495614986
S         4.32861230824624    5.79948523060856    0.09200500679569
S         7.29952287641758    5.32213158187863   -1.44271749893160
N         5.40242630897161    6.87506941949051   -2.62645879250632
N         7.58361358315467    7.32523440892595   -3.03420199332222
H         7.28697546679981    7.97624009864907   -3.74113771346792
H         8.54489665204565    7.03530559524041   -2.99128629606620
O         2.89708861436134    6.95470211144452   -2.20111316184606
C         6.65474271848590    6.57245494469512   -2.41600059213657
O         3.88698322201680    4.77615669766273   -2.71482634279030
C         2.84575991884947    8.33723325711324   -1.82345657062513
H         3.87124162838032    8.68113802287650   -1.63966761216891
C         2.25217799250549    9.10334403430283   -2.99653385573241
H         2.86816682288998    8.95758897121073   -3.87960668088096
H         1.25010187054737    8.73762576866044   -3.20559336758156
H         2.20582280960325   10.16308814059840   -2.76191255065941
C         2.01415164173329    8.48098011831502   -0.55729373586764
H         2.45900781850642    7.90019326291225    0.24704480659744
H         1.96981829759907    9.52491090858130   -0.25946110664023
H         1.00560870957317    8.11586375719072   -0.73534419212094
C         3.26729808128342    3.60502144497801   -2.15025948502604
H         2.90198957476775    3.84552930943710   -1.14161069571677
C         2.10330508442466    3.21882894922259   -3.04736260685332
H         1.39063608706844    4.03770188929984   -3.10228900663196
H         2.46524528579485    3.00340783301484   -4.04957883489664
H         1.60756463927911    2.33883550343973   -2.64719630861716
C         4.33141898731729    2.52202063201053   -2.05597474576628
H         5.18840751242296    2.90217461593015   -1.45084767781797
H         3.93004443336177    1.63557346564233   -1.57278791462502
H         4.70614715127790    2.26865965010803   -3.04469132113481

