97
CSD_code = ALESOA | q = 0 | S = 0 | Stoichiometry = C34H58CrN4 | MND = 4
Cr        3.88005393588313    7.90031513725891    0.00006325353338
N         3.61530293551937    9.20020716040433    1.40574090742329
N         2.54259480754937    8.98921163077507   -0.97397480017981
C         4.58333327482920   11.42434648255715    2.01927364691314
H         5.19887966253429   10.93215436396853    2.77031145813925
H         3.80442488181860   11.98262111935994    2.53929239663775
H         5.20064100878012   12.13933521308818    1.48005970904255
C         3.99141911521604   10.42486519277153    1.04237396362400
C         3.75149777004068   10.88392930285494   -0.25102315468232
H         4.08094799009872   11.88395030105907   -0.49673798248373
C         2.81431330337516   10.27442452084149   -1.10208600900145
C         2.08755215406936   11.19216250328441   -2.06107816433783
H         1.85619463837574   10.69916713154481   -3.00218091584045
H         2.70189268138717   12.06436414974223   -2.26887189389403
H         1.15191903725569   11.54302026931930   -1.62133769293424
C         3.08278539406114    9.02268651643828    2.74294116686997
H         3.74494658271451    9.43772700652557    3.52145391877777
C         2.85565736454005    7.53914146271173    3.03359431066111
H         3.80497370407720    7.01047016387061    2.99246485162775
H         2.21665187414388    7.12898826921683    2.24781792408902
C         2.20927882024000    7.33080454512825    4.40061905804255
H         2.05612380825726    6.26345850446586    4.57346751543433
H         2.87977697787687    7.70159380327845    5.18056958392474
C         0.87827702134109    8.06894671362474    4.49083951879739
H         0.18481736291856    7.65618098503711    3.75481949229790
H         0.43828763451930    7.93210811153144    5.48138506784978
C         1.08701724189756    9.55320154293184    4.21213935553847
H         1.73366094549618    9.97892705011151    4.98390443690909
H         0.13083107792209   10.08052448610026    4.25111640959603
C         1.72999096270366    9.75401946368676    2.84462420875684
H         1.86862668885273   10.81891755063138    2.64968932162608
H         1.07270321240711    9.36481473104435    2.06394648895595
C         1.27077168452311    8.50045203118210   -1.48276483574468
H         0.53666766656968    9.32098836302827   -1.51295960085455
C         0.74199178079350    7.44182199647581   -0.50698721294956
H         1.46633636012146    6.62346441857822   -0.45550757980300
H         0.66607715366051    7.88894547272909    0.48577258900082
C        -0.62278611129949    6.91551991610630   -0.94122046775034
H        -0.96807199752263    6.15814531666142   -0.23403950753234
H        -1.34801380443047    7.73377088291151   -0.93353621362891
C        -0.54888402832299    6.32283609965833   -2.34381282002062
H         0.12086816315995    5.46055126878758   -2.33499083319036
H        -1.53664188966406    5.97813754150536   -2.65841948836336
C        -0.02329848545342    7.36514253357312   -3.32479922068977
H        -0.72756843586947    8.19967715664410   -3.37778787556693
H         0.05257890514765    6.93159440491636   -4.32514255981811
C         1.34426635163459    7.87935544321462   -2.88391274395331
H         1.70957367126850    8.60950000250763   -3.60909563419238
H         2.05152295432134    7.05435790887012   -2.85035028557455
N         4.14477784861365    6.60034794052027   -1.40551795517260
N         5.21760448893389    6.81148446533636    0.97409854881268
C         3.17637405107177    4.37628612868282   -2.01873006271608
H         2.56081716496105    4.86853276827655   -2.76972179529021
H         3.95511696678036    3.81784502503156   -2.53881098716871
H         2.55901653055491    3.66143024227836   -1.47939132486820
C         3.76858700584964    5.37574824184971   -1.04198583486557
C         4.00870065369720    4.91670996954900    0.25138455847812
H         3.67927910839093    3.91669302573107    0.49718449614636
C         4.94598582528599    5.52626656691494    1.10229497364335
C         5.67293975583988    4.60861937627366    2.06122791563408
H         5.90439113883788    5.10170233251033    3.00226267443764
H         5.05867095172902    3.73640297866629    2.26917086033861
H         6.60853786089712    4.25777706221373    1.62140028989500
C         4.67728046146051    6.77764233161448   -2.74274620306411
H         4.01503626991484    6.36260616287430   -3.52118915696862
C         4.90458130139050    8.26112648522296   -3.03357754035839
H         3.95536043701118    8.78996746668061   -2.99239390098352
H         5.54374440704401    8.67125436347220   -2.24792373045010
C         5.55085967170279    8.46919685447734   -4.40068871074818
H         5.70414041630866    9.53649785686239   -4.57371128851400
H         4.88024831890165    8.09837280294270   -5.18052172928015
C         6.88173322151783    7.73081903565101   -4.49090990355342
H         7.57531118765601    8.14360243332163   -3.75501388042406
H         7.32166305936603    7.86746131206733   -5.48150738284733
C         6.67285710309786    6.24662142215529   -4.21198160683824
H         6.02611380695180    5.82086864811148   -4.98364566270167
H         7.62897256127161    5.71916774151431   -4.25093672888799
C         6.02994276195111    6.04606469462451   -2.84440113044217
H         5.89116852669912    4.98121077390985   -2.64930875998413
H         6.68732315011641    6.43529417325217   -2.06381589835492
C         6.48946029936246    7.30035960466622    1.48268516661573
H         7.22362571600908    6.47987376976007    1.51290808535297
C         7.01802902470735    8.35892809228068    0.50672158404758
H         6.29360769163829    9.17721857599245    0.45518700616933
H         7.09390042885432    7.91167548166579   -0.48598168998111
C         8.38278590073993    8.88542584991529    0.94077012345133
H         8.72792555648539    9.64273888115514    0.23345398261679
H         9.10809281191801    8.06723978851403    0.93311496382186
C         8.30894663716837    9.47834839495817    2.34326406586723
H         7.63908812205297   10.34055467432539    2.33438116964027
H         9.29669911426131    9.82319332360724    2.65773515801376
C         7.78357898508750    8.43608024223436    3.32440917754225
H         8.48792812228365    7.60161116566377    3.37744428616553
H         7.70775690604740    8.86975623859647    4.32469924259925
C         6.41602494615863    7.92166240335596    2.88374390435814
H         6.05086448114361    7.19157632199210    3.60905973757663
H         5.70868543293570    8.74659036621400    2.85014783215649

