76
CSD_code = ALETPD | q = 0 | S = 0 | Stoichiometry = C39H34P2Pd | MND = 4
C        -6.25067089641250    2.07404859271372    3.35009731096380
C        -4.18772312365857   -1.26513983468545    6.19182918114434
C        -3.79008477800374   -1.73930130474595    7.43691147474514
C        -2.53927882887926   -1.41498971920114    7.92976595699064
C        -1.67826438729934   -0.62374518111370    7.18515841841488
C        -2.07067038598623   -0.14759962860652    5.94495158304632
C        -3.32367037888609   -0.46410377868801    5.45286150845281
C        -5.72862151621896    1.91960831565002    4.60327497067419
C        -6.93201331124407   -1.45680785858457    6.88447272083023
C        -7.16581484629539   -2.45498547824054    7.82379486314002
C        -8.02257560943983   -2.21866237141153    8.88420731342450
C        -8.64908378185367   -0.99032972542805    9.01842259810523
C        -8.42326707161138    0.00715140104357    8.08372438306316
C        -7.57231578691202   -0.22765268043107    7.02013942731668
C        -5.20669267901916    2.37442939650218    5.71307326505875
C        -5.72832297428512   -3.43684355972564    5.26591294875059
C        -6.91726160634395   -4.14191882492997    5.09133287477233
C        -6.89789842788667   -5.50605430539001    4.87873990233045
C        -5.68981879360195   -6.18351336548908    4.83049791183408
C        -4.50405311178059   -5.48709572952423    4.98788531455963
C        -4.51970251269041   -4.11959791968521    5.19621800438877
C        -8.66135445608507   -2.05138895813937    2.87476630180805
C        -9.35251436905944   -3.16162926210283    2.40305547601573
C       -10.38998682685049   -3.69327293547383    3.14815565053219
C       -10.75904838714641   -3.11309158119414    4.35194546527822
C       -10.10845170880253   -1.97573708731633    4.80287147825407
C        -9.06765005884957   -1.44578159317489    4.06214936562699
C        -7.78130835931876   -1.34126540617130    0.30944390613164
C        -6.91470743329528   -1.69773770953392   -0.71836648481010
C        -7.34656861445852   -1.66860076459289   -2.03208171724388
C        -8.63885145595322   -1.27251628194517   -2.33395448073036
C        -9.50007843094897   -0.89474020226100   -1.31574050959863
C        -9.07194005376387   -0.92043092608237   -0.00274259723787
C        -5.89778481338871   -2.51087457340729    2.02779547687841
C        -4.61956628450500   -1.98123505982488    2.20539036294362
C        -3.50957135721969   -2.80418028128996    2.18730491288809
C        -3.66992345985290   -4.16682662385495    1.99308775291428
C        -4.93679360171463   -4.69878472740257    1.82340552594632
C        -6.05030381812750   -3.87702464608915    1.83928693183321
H        -7.27658059607964    2.42737506766033    3.22548584479935
H        -4.46135838314129   -2.35463101920570    8.01899012061669
H        -2.23321707442145   -1.77890184375397    8.90020253510977
H        -0.70290258481399   -0.37352207338741    7.57662934516698
H        -1.40297950425304    0.47619654216000    5.36835440612509
H        -3.65902841933278   -0.07365018038832    4.49075272445887
H        -5.58742277846192    2.23234602254794    2.49698118874498
H        -6.69129012619626   -3.42095572057955    7.71905142422692
H        -8.20333430505574   -2.99819074949611    9.61068168223464
H        -9.31727425920252   -0.81343858862624    9.84877598958693
H        -8.91520194763188    0.96409246605888    8.18306631169021
H        -7.39289404609979    0.54750800954290    6.27335436822397
H        -4.92202574750035    1.74377145856079    6.54244441680494
H        -7.85886032078487   -3.61190712410280    5.13401369406997
H        -7.82726125744584   -6.04248812909638    4.75046340529136
H        -5.67361684936994   -7.25146302457011    4.66817194361088
H        -3.55996520990432   -6.01113128126188    4.94626750051258
H        -3.58972808047970   -3.58035561800014    5.30917785174155
H        -5.03021983928830    3.43573960137944    5.83883728096839
H        -9.09461154483565   -3.59798301998235    1.44834780099004
H       -10.91784809478092   -4.56456846717975    2.78708757604132
H       -11.56510091436767   -3.54015398745692    4.93084202005570
H       -10.40757296857361   -1.50766519225576    5.72991054909687
H        -8.55643603503503   -0.53311698301553    4.39044469418908
H        -5.90343663931350   -2.00369516244111   -0.48750581833871
H        -6.67033275088182   -1.95518124193816   -2.82484393595584
H        -8.97292143208236   -1.25198184286136   -3.36095222262076
H       -10.50612513619885   -0.57619442938842   -1.54845816627808
H        -9.73892547153564   -0.61799251876533    0.79437206749989
H        -4.51144311956875   -0.89799142472050    2.34208689288358
H        -2.52144865163841   -2.38854474261451    2.32472531581764
H        -2.80637916646407   -4.81568046971095    1.97835657015863
H        -5.05969401454449   -5.76237234541393    1.67836234321230
H        -7.03275277939963   -4.30480872652485    1.71280258040218
Pd       -6.26632350572658    0.03163743135833    3.87516587130695
P        -5.81737792904809   -1.62461683384735    5.44830485606338
P        -7.23690021889004   -1.26156167876937    2.05050422203028

