97
CSD_code = ALETER | q = 0 | S = 0 | Stoichiometry = C42H50CrN4 | MND = 4
Cr        4.38636020290428    5.43038625828217    6.01184529101294
N         3.00501838720091    4.93947394313578    7.43930532918419
N         5.66568284859188    5.21791820936563    7.51050478229847
N         3.07598285442351    5.53469996745514    4.44335699302508
N         5.70062393206683    6.01564233131188    4.64791803381026
C         1.78584390651903    5.94642529308111    9.37391761152058
H         0.89079445383278    6.01917932528632    8.75894223202531
H         1.90734629869334    6.88031904794033    9.91716633485065
H         1.62795430008527    5.15171069636498   10.10199760654863
C         3.02128608707622    5.68852461195943    8.53632615624769
C         4.20169253498028    6.24265078584118    9.02971360621903
H         4.12185799267643    6.85742400733998    9.91370904803263
C         5.49017431085303    5.87514276829544    8.63657067852537
C         6.59970221775622    6.28191233255750    9.57996938040522
H         7.57857131249827    6.21442956734231    9.11369456810519
H         6.59317737001088    5.67448894889417   10.48513547300013
H         6.43413648793373    7.31553935052977    9.87739130412787
C         2.39235406426034    4.25214267996267    2.41103548811123
H         1.49737573470818    3.91982278733093    2.93379626785772
H         2.82687581320502    3.39921315144850    1.89552180725834
H         2.09008731097281    4.98113104044602    1.66013865600699
C         3.41372869565638    4.83537586153454    3.36550406443748
C         4.74606578792713    4.64251283810081    3.00320786331615
H         4.93289817677057    4.04262225095220    2.12516346631942
C         5.83229468449287    5.35207448957226    3.51970882733011
C         7.10113339915516    5.28765488564185    2.69975305526770
H         7.96950235112657    5.61713115937856    3.26330359461930
H         7.01721736901841    5.88526302403846    1.79195084678369
H         7.26193571041111    4.25439845051436    2.39853499583638
C         1.90032717021853    3.98665363803976    7.35221264007882
H         0.94630071895387    4.52290238816090    7.21635401374740
C         1.80513493329778    3.12493516662365    8.59695018210899
C         2.96678006142662    2.68175143516047    9.21732407735397
H         3.92260709347178    3.00514531790076    8.82964757925031
C         2.90096534092393    1.85930023820863   10.32630987905991
H         3.81122115863229    1.52641001715307   10.80408674746097
C         1.67146454559648    1.45988346841758   10.82366930712821
H         1.61904159822859    0.81730075248544   11.69031641792759
C         0.50963386039284    1.88874573188123   10.20546545972497
H        -0.45238405994505    1.58047092961901   10.58895164564654
C         0.57698928435335    2.71628232567100    9.09818809504256
H        -0.33400622892250    3.05317866702918    8.62273740987001
C         2.04362699373662    3.00837762087712    6.17818908650532
H         2.29957268510189    3.53496498997547    5.26670843162776
H         1.10146161354828    2.48001412398185    6.04033167437871
H         2.81329046074953    2.26969006162535    6.39146186993669
C         6.87326732646787    4.45054992813694    7.29792493083412
H         7.75710246475319    5.10878628680479    7.23875112856057
C         6.76357662987858    3.63980980508693    6.02695136919884
C         7.90603850599856    3.18342509885633    5.38476740453898
H         8.87998080993696    3.51681051305540    5.71821842404156
C         7.81015183022515    2.29809968819876    4.32207712173331
H         8.70677545818147    1.94834808474029    3.83067639256373
C         6.56736371142336    1.85575450877623    3.90165331339723
H         6.49218272879282    1.14940235672136    3.08734901521375
C         5.42193107797862    2.33051822340946    4.51925248183754
H         4.45183469814032    1.98904907981393    4.18912819995866
C         5.51451119407671    3.22826907243068    5.57367820028379
H         4.61298796588252    3.53144921668745    6.11680852657705
C         7.10958553912021    3.40466472325508    8.41036463551061
H         7.26757799960667    3.86548438342060    9.37911939414299
H         7.98006380202130    2.79926071266337    8.16617611473354
H         6.24314415771873    2.74855312252002    8.47387828919909
C         1.74570397556467    6.13837997328095    4.40213885178193
H         0.97147084956604    5.35435086368312    4.44722406309759
C         1.54151145258541    6.95647798893339    3.14113318904997
C         2.59070506647093    7.71365701241835    2.63469204390648
H         3.55421216143594    7.66419325828276    3.12218577556707
C         2.41179770783679    8.49957622089940    1.51174544798200
H         3.23721417914416    9.07873387082923    1.12324354296235
C         1.17700815190181    8.54723305421350    0.88599572992991
H         1.03634431401896    9.16082801803794    0.00823694777760
C         0.12372093484499    7.80407392538365    1.39025951947332
H        -0.84197232048452    7.83737360576841    0.90664325685451
C         0.30567903981046    7.01378918410866    2.51176683946419
H        -0.51904548005280    6.43055388106442    2.89794932418891
C         1.48754080307406    7.10062999057455    5.56975078621357
H         1.78565403836023    6.65394408140606    6.51061307579479
H         0.42609784851785    7.34175476150691    5.60213329059646
H         2.03705170355237    8.02840311026674    5.42548368439522
C         6.61592652346024    7.08799775612829    4.97144416498303
H         7.63799840565998    6.70344435499264    5.13098820402981
C         6.15327376140606    7.81719822723416    6.21204160360228
C         7.04930825910074    8.56845582577407    6.95948012323098
H         8.10637883659225    8.52796299380099    6.73173639737774
C         6.60024394942747    9.37645323624545    7.99283310564031
H         7.30708506815977    9.95843894191860    8.56679188435907
C         5.24718001003378    9.44445214432649    8.27836041941688
H         4.89361717673445   10.08984079555932    9.06966259895745
C         4.35100727396144    8.67417122250747    7.55558193350241
H         3.29572114120477    8.72342006954168    7.78052689590358
C         4.79952444735272    7.85357969769582    6.53004633044371
H         4.08005320917212    7.31621243970694    5.90284905220765
C         6.66229984173404    8.17376062896669    3.87314593153414
H         7.04950768897726    7.79169045527132    2.93512826398652
H         7.29156749145437    8.99925592668347    4.19936212157001
H         5.65663476367799    8.55546074164544    3.70536277896356

