61
CSD_code = ALEYIA | q = 0 | S = 0 | Stoichiometry = C26H30ClN2PRu | MND = 8
Ru        8.41742667555398    1.22631049753956   10.00063804801182
Cl       10.16767314568085    1.73454081249427   11.55318985825251
P         8.40925228255092    3.24863254792165    9.04578465113154
N         6.36110847508434    1.22403260585151   12.16944567029114
H         6.19503891760488    0.24129156894419   12.02778094443527
N         7.20631382166308    3.18020178832134   11.99359385145451
C         9.09028214385424   -0.03898099766121    8.25086391417144
H         9.70997893691493    0.21769515593167    7.40214422682022
C         9.51498243443341   -0.66831005815034    9.43050136714317
H        10.53479919626170   -0.93300202297894    9.67903603600453
C         8.37016937742323   -0.99933465566016   10.21142349138544
H         8.37725229268940   -1.63416260411170   11.08843274502696
C         7.22436700501415   -0.59725882028605    9.47534991304389
H         6.19380493799505   -0.83200666618221    9.71351603841713
C         7.66223597900890    0.02319710938429    8.28144326012668
H         7.03010296654260    0.31656930389210    7.45285058525104
C         7.24722416229481    1.94683878428937   11.44414696043872
C         6.31701796842715    3.21368451456513   13.03971036892327
H         6.15144191003467    4.10608426393157   13.60644665230539
C         5.77865408551077    1.97702021620774   13.16592352276944
C         4.77326358936159    1.40632655131446   14.12254476929240
C         3.54556263469535    0.92053111771944   13.33982707322409
H         3.81390269501496    0.14270533085086   12.62854519072476
H         3.09483241379697    1.74518247667312   12.79207201307807
H         2.80405177592999    0.51437269357323   14.02363242433097
C         5.40929493752230    0.23078807271471   14.87657606344736
H         5.67516669806886   -0.57669392613090   14.19842735837953
H         4.71255141755691   -0.16139022345806   15.61361124517377
H         6.31075872423028    0.55603071498676   15.39030457646540
C         4.34573991908486    2.48014742817752   15.12471531911366
H         5.20264937975795    2.83472115994651   15.69128320233047
H         3.61852402014951    2.06966973852271   15.82102043424980
H         3.89185026560654    3.32446835122821   14.61207215224505
C         8.01432038485310    4.29143451058253   11.55723134358680
H         9.07251451073732    4.01134952729620   11.65993739986230
H         7.80038345580784    5.14445081219230   12.20672714464066
C         7.72559838614816    4.63082330338469   10.09281303661491
H         8.21281157066174    5.57185582323915    9.83039236201357
H         6.64860510916182    4.72630213005325    9.93276997393020
C         7.34097881318662    3.34832640169092    7.57048939428269
C         5.97252302039105    3.16975618466790    7.76197246776810
H         5.59604791062909    3.04021026298263    8.76985058453601
C         5.11210761013819    3.12768114634857    6.68276051216768
H         4.05086496106938    2.99762826224244    6.84028597660380
C         5.61305277411283    3.23896567754653    5.39424199992208
H         4.94229752199058    3.20251637308989    4.54839903454020
C         6.97565628614735    3.37774719963741    5.19432234420336
H         7.37005834607212    3.44304805956272    4.19046858312871
C         7.83922199757853    3.42666578188151    6.27558885287219
H         8.90344431826882    3.52411243068891    6.11389940185859
C         9.95763227828943    4.01193762837809    8.45655608016149
C         9.96961871006158    5.24426517027307    7.80586766806563
H         9.04068284130587    5.77331994104782    7.63528684550036
C        11.16466779456598    5.77915926992016    7.36483288248014
H        11.17291219998202    6.73374749711533    6.85796761650204
C        12.35263736363792    5.09286309766728    7.56978352612732
H        13.28412583856717    5.51718497484606    7.22394623390555
C        12.34453354785085    3.86848807603001    8.21552435303015
H        13.26993815333363    3.33608589653575    8.37858352920737
C        11.14900668082556    3.32686089681284    8.65546488942776
H        11.12668242928124    2.37941083392425    9.17848203560375

