66
CSD_code = ALEYOG | q = 1 | S = 0 | Stoichiometry = C28H34N2PRu(1+) | MND = 9
Ru        4.13306930529120    6.17829958503039    2.06442865802913
P         2.19225033306145    4.99401461326119    2.24160569626099
N         3.96388825731821    4.68346029889547    4.85514137874855
N         5.60870791088456    6.01833843420818    4.59591568507832
H         6.25613858541135    6.66806453767420    4.17660322090941
C         5.03291188165326    7.64798939223205    0.62538144200669
H         5.75206609854160    7.46270164010836   -0.16176685192115
C         3.63135983594695    7.68125342517029    0.46581988646600
H         3.09796447425486    7.55485797263001   -0.46505566354081
C         3.07178818190302    8.13158453971186    1.69177578686209
H         2.03469785686982    8.39469777784929    1.85414930558155
C         4.13241524979627    8.37619191805095    2.60170759821578
H         4.03454917533112    8.85455860766336    3.56811102199347
C         5.35172923170619    8.06684394437417    1.94614314379301
H         6.34379876085442    8.31495578016073    2.29865650050568
C         2.40679313910102    3.50467251087610    3.31525250874191
H         1.48181687475479    2.92103522930225    3.32228866202644
H         3.22541537693816    2.89800705496910    2.91660355210764
C         2.73015364611354    3.93540848283798    4.74132469097113
H         1.90641816778947    4.54703577911711    5.13267338411193
H         2.82513396335790    3.05103525072244    5.37873238544976
C         5.76129930270998    4.78521307732530    1.65190808026732
H         6.62175523414902    5.34956870082591    1.29918978464839
H         6.00966159432688    4.03688996768929    2.40216162943349
C         4.71265722833290    4.51926908192571    0.76492098743097
H         4.18596722995810    3.57202141864107    0.84392509276028
H         4.76121814884521    4.89844116282486   -0.25328691354241
C         4.51228718568819    5.53797900760986    3.96999257308867
C         4.71507035422610    4.64457168769759    6.00962461172648
H         4.43784332897229    4.02650105636477    6.83685223741199
C         5.76511166828127    5.48622799667877    5.85343452999010
C         6.91965759368188    5.83851084865449    6.74372274981107
C         6.93717067507105    7.35527891318579    6.97411687589626
H         7.74780392552648    7.61446468601439    7.64930510246838
H         6.00196182749587    7.68412874860909    7.42144726381735
H         7.08800092226475    7.89985468555723    6.04458812967078
C         6.77572326059193    5.11852769465356    8.08534387005648
H         6.77322762073608    4.04097907675155    7.94575986046550
H         5.85499158574681    5.41094133799005    8.58297030642221
H         7.60953656510614    5.37553880813561    8.73224602112851
C         8.22219831662729    5.39742731442567    6.06176729583190
H         8.20796413791471    4.32717058388244    5.87008522734980
H         9.06776343117276    5.61773087696168    6.70712971120126
H         8.37410938483724    5.91522439167050    5.11730571354195
C         1.43666954891547    4.36483738011184    0.71858829205539
C         0.84713183936861    5.31206567474043   -0.11774404996428
H         0.81831899742242    6.34760739378399    0.19725594519656
C         0.29000555398161    4.92932114872194   -1.32220877202337
H        -0.17225035358181    5.66539113571954   -1.96251584021213
C         0.32471781966302    3.59727639442563   -1.70607523012372
H        -0.10950914439884    3.29578081071362   -2.64668861055734
C         0.91353443009297    2.65319464504876   -0.88158624000906
H         0.93833010191510    1.61617397924086   -1.18022656106566
C         1.47333826520241    3.03082879302087    0.32718001631480
H         1.92918430716113    2.28377043358294    0.96025011295264
C         0.78763889787849    5.78613549601770    3.08878382896742
C         1.04603629560969    6.76950992963440    4.03982751855305
H         2.07242313253971    7.06978695891864    4.22367048533535
C         0.00473429668170    7.35970250466093    4.73263107670304
H         0.20887617595592    8.12364220004240    5.46783965975643
C        -1.30098971605462    6.96945510962594    4.48032815743928
H        -2.11482174300101    7.43397456206317    5.01514113958988
C        -1.56228756244017    5.98320398323932    3.54248169482769
H        -2.57909793521880    5.67762445636811    3.34909626818150
C        -0.52411848774404    5.38769885981509    2.84849688246116
H        -0.73011154911243    4.62035025156321    2.11607149233495

