63
CSD_code = ALEZAT | q = 0 | S = 0 | Stoichiometry = C26H32N3PRu | MND = 8
Ru        5.80197043209066    6.87487200517947    0.61594373230438
P         4.93266194026624    4.86971614715420    0.12879159313967
N         3.02626552306137    6.51848273570895    1.80078086823302
N         4.58146684339912    6.87791273055912    3.30134156528611
N         7.01948958905760    6.12842078815742    2.32312773655059
H         7.87647962913717    6.66539070536676    2.44088719634298
H         6.36509424356749    6.36351880979725    3.09338110684574
H         7.24362980500243    5.13707046800726    2.37674206572999
C         7.36015545437782    8.41998081310735    0.08416901845298
H         8.38397480745948    8.50436655253003    0.43252136146184
C         6.23317954234591    9.05148681818038    0.68842723295104
H         6.26580504496313    9.72183213543403    1.53604789608559
C         5.12458244955527    8.85077820014451   -0.16841101488649
H         4.15385423937073    9.32011933107943   -0.06933589333277
C         5.55842837715103    8.06408043866410   -1.27197389363232
H         4.98040283339871    7.86680542991910   -2.16868263548000
C         6.96078760431723    7.83752815220007   -1.13025960023945
H         7.62013705766595    7.43046757950118   -1.88354946611047
C         3.05628586679892    4.83375756227569    0.03984875132683
H         2.76801703102585    4.66840513587446   -1.00195363576728
H         2.67013531811074    4.00939327771961    0.64484240647727
C         2.48028139941441    6.17108563082246    0.52064472391026
H         2.75453553193948    6.95048634903616   -0.20274843957149
H         1.38945273179943    6.12178022997714    0.59150922093150
C         4.35157122928536    6.73180872645752    2.01033610268067
C         2.39858227841122    6.53606096673296    3.02409170499594
H         1.33912894438831    6.40201251673493    3.11464362115813
C         3.37617288111935    6.77173711182457    3.94760470242677
C         3.28973825124350    6.87767353754885    5.44376776862132
C         3.92053390496250    5.62065550611667    6.05786113088692
H         4.94305508429764    5.50729402626296    5.70586998699943
H         3.35697718073023    4.73630364486401    5.76705972714152
H         3.92571787906359    5.68741422621376    7.14424858943584
C         4.07129338285251    8.11424908569000    5.89827006150747
H         3.61393517856982    9.01605305732069    5.49722589395377
H         5.09242142911959    8.05773935741474    5.53163722733981
H         4.08431017967515    8.18222031643711    6.98452384550729
C         1.83386880006996    6.99275638927966    5.89739342973253
H         1.35880173353998    7.85701612535324    5.43866677826931
H         1.78777609367119    7.10668701681081    6.97887323143757
H         1.27238545194645    6.10262071326980    5.62262473102425
C         5.27727584833477    3.61070832005910    1.41224025937717
C         4.54405684908306    3.52518207381983    2.59253168871560
H         3.66536683009910    4.13637775960133    2.73409635924701
C         4.94078605671205    2.66093642460924    3.59784398538501
H         4.36313706945887    2.59648475795873    4.50826800022392
C         6.07555923666484    1.88175792760916    3.44511813333314
H         6.37898846623295    1.20586633851044    4.23100054935348
C         6.82433611291299    1.97639029162548    2.28246346767644
H         7.71446580267204    1.37566489682885    2.16121648963995
C         6.43362778516920    2.84237989285998    1.27833578139062
H         7.01863605144915    2.92723035799804    0.37139470727426
C         5.25954680107022    3.86843803353516   -1.37001949529815
C         6.02577043894827    4.40502918112668   -2.39367395693591
H         6.42588973814475    5.40149523850612   -2.27009173457467
C         6.27091514851353    3.67443626492805   -3.54343480718429
H         6.86724146345685    4.09817384117087   -4.33882100576523
C         5.75216278527814    2.39738643193079   -3.67154419198361
H         5.94420554055796    1.82236089871714   -4.56568217170883
C         4.98679936760508    1.85384013485106   -2.65070205407749
H         4.58501077497665    0.85573112169900   -2.75139456274466
C         4.73803402561322    2.58455337270226   -1.50473230160031
H         4.14644462882460    2.16193608861122   -0.70400356987729

