28
CSD_code = ALEZOG | q = 0 | S = 0 | Stoichiometry = C9H9BrN3O4ReS | MND = 6
Re        1.81187619510096    7.56357684465781    2.08700817751218
Br        1.64780558330038    6.71148430164808    4.48999949982057
O         6.32528904527819    5.03455924080408    3.69848858804776
S         3.86924502809469    8.84915037942151    2.92716145556407
N         5.91539530106403    7.67495394348155    4.03638443980340
N         4.51536944960501    6.28093458043590    2.80112227328047
C         4.81062013489706    7.53322317480129    3.29650344733099
O         2.33471162934343    8.55597913851932   -0.78528435920148
N         3.42982585826795    6.07088020579085    2.00802831076559
C         5.20194579015360    5.10244388818060    2.94971405166202
O        -0.06967949411130    9.88109829494495    2.87011612970974
O        -0.59499359691783    5.76726499589095    1.35247425552484
C         4.55004410870540    4.13784198503851    2.22562335597683
C         0.58781244255216    9.01766265708130    2.51491348458257
C         4.90377637335323    2.69850157983354    2.08334750928158
H         5.87139787604386    2.48068715947526    2.53326254800061
H         4.94688835832705    2.42252176776325    1.03094309933878
H         4.15038733028887    2.07526673139834    2.56381728733742
C         3.43818006652634    4.80282222427655    1.65081398627035
C         2.40860910230249    4.20097246496982    0.77286563253846
H         1.62399532568837    3.74756110833813    1.37911727587251
H         2.85116484717993    3.42545487953544    0.15247024177105
H         1.95613329413639    4.96500398560776    0.14250309398480
C         2.12980051706056    8.18691843238345    0.28049471964638
C         0.30834951269784    6.43703991732965    1.58809053989373
H         6.45036421436310    6.87495875721995    4.33651861295319
H         6.07377631235407    8.56884352588116    4.47027358202325
H         6.61300939425769    4.11369383521502    3.74502876076024

