89
CSD_code = ALIDEE | q = 0 | S = 0 | Stoichiometry = C43H39NO2P2RuS | MND = 8
Ru        4.21884233880990    1.60967197972393    5.40672457755661
S         9.75135785801969    0.10993250240186    6.51472945978359
P         3.61235174488976   -0.53165196411749    5.82420410750558
P         3.95890986947799    1.01902972389458    3.24785932484048
O         6.02703529638030   -0.25023844749829    4.28382168911640
O         6.91710580023242   -1.82967640632140    3.05030475922925
N         8.24999355024834   -0.85072523959779    4.62108325644050
C         6.08452644627815    0.80752171464952    5.19767750609325
C         7.28153144443529    1.01090561851318    5.82074589687112
C         8.37456369723472    0.09772486585861    5.61041080215416
C         7.13258192250731   -0.95329738230956    4.02697926768796
C         7.53768744685458    2.14092598276450    6.74068485401776
C         7.92954986371859    3.36722607671315    6.21659309952637
H         8.01078010711399    3.48217498322779    5.14390497800145
C         8.23179913531913    4.42508380310820    7.05533281638722
H         8.53583391928841    5.37456408494311    6.63689499634113
C         8.15475946715470    4.26548914303742    8.42799486032748
H         8.39324929295111    5.09051692860575    9.08370830880185
C         7.78867679267610    3.03972702347239    8.95733364508191
H         7.74573527197751    2.90577534798997   10.02913400711764
C         7.48722217074661    1.98095971539182    8.11952089025579
H         7.22259645753915    1.01975136745635    8.53330298352686
C         8.04005512659917   -2.63641775314815    2.68927457600005
H         8.41636398271369   -3.13604889878898    3.58768205841009
H         8.83271120654414   -1.98439815434830    2.30790547693561
C         7.58118489825284   -3.62993117854354    1.63802374371155
H         8.41862965321212   -4.25036158489816    1.33319655164613
H         7.19421868455536   -3.10197449598675    0.77038768839867
H         6.79552154083033   -4.26547673748496    2.03830381181616
C         2.81288323385710   -1.28130214376227    4.32054665256821
H         2.83487527734773   -2.37323005919003    4.38409122112038
H         1.76345272536372   -0.97371791344191    4.37685242661922
C         3.44941955561195   -0.76464877520033    3.03624347690149
H         2.75784784953473   -0.85321997330901    2.19244865477988
H         4.36433318874208   -1.32094984496857    2.81339900227349
C         4.91481982459117   -1.70713854582544    6.32509754914284
C         5.67042469550017   -1.28127442929096    7.41769845367381
H         5.37562328423371   -0.36297093741267    7.91558103425978
C         6.77356062449360   -1.99930209268019    7.83522825925965
H         7.36634083806944   -1.65618535393035    8.66995179819059
C         7.13989514847506   -3.15018482487604    7.15490899252851
H         8.01739457788555   -3.69934247692483    7.46018028384732
C         6.39076547588239   -3.58264144594787    6.07433548529903
H         6.67836789439980   -4.47878999130204    5.54282389004611
C         5.28239078525808   -2.86596268998434    5.65387406780464
H         4.72903277699745   -3.20574470104634    4.79070872400324
C         2.29919715175280   -0.88563386662310    7.04024549744806
C         2.44099074760080   -1.78490013874526    8.08996271948330
H         3.36858657079434   -2.32363740281646    8.21858089692082
C         1.39206547127530   -1.99229711777707    8.96996407274868
H         1.50850567098158   -2.69344484638433    9.78340374560291
C         0.19918485696866   -1.30808112521194    8.81201478064555
H        -0.61545152301861   -1.47354961162574    9.50135084608667
C         0.05274247032759   -0.40628309723714    7.76903001926158
H        -0.87555084006425    0.13291737368021    7.64567063317337
C         1.09817909646146   -0.19507062580131    6.89221075510448
H         0.99865102558821    0.52014130451781    6.08501898647757
C         2.63006652614949    1.92267117658251    2.38655427158058
C         1.29664820700813    1.61398570528396    2.63875815737463
H         1.05376595552223    0.78704906225899    3.29155338941722
C         0.28411675970417    2.35941301529855    2.06485406334834
H        -0.74862782967047    2.10870653927275    2.26150925609946
C         0.59221687344417    3.43159028357973    1.24292584746026
H        -0.19895527553605    4.01618117121194    0.79728837466309
C         1.91668806925165    3.75517629993194    0.99913531271508
H         2.15963356323594    4.59452627983464    0.36365780465569
C         2.93154219713167    3.00852877045687    1.57013304345756
H         3.96592633950770    3.26358578363414    1.38243712063681
C         5.31914827968055    1.18665294783442    2.04488745719475
C         6.33835640763749    2.08124737333529    2.35398843086706
H         6.26880562914388    2.64750508284315    3.27739090846416
C         7.42696648381429    2.21878472330532    1.51345082895732
H         8.22352243779891    2.90384706387716    1.76473823292548
C         7.49901747619691    1.46470107454774    0.35319379762748
H         8.35457727250957    1.55910242703913   -0.29915340231433
C         6.47477976364806    0.58983315546035    0.02957539332636
H         6.52982762505846    0.00925875719529   -0.88020374243913
C         5.38336999336987    0.44996339068010    0.86857211107174
H         4.58567485317851   -0.23112937945565    0.60980786086394
C         4.38351931886850    3.01301354284332    7.15917586259755
H         5.00210512294892    2.97339369689569    8.04449543017555
C         3.03754300066916    2.57577905527777    7.06659161528724
H         2.47809171917854    2.09912732793268    7.86267801940919
C         2.50329774464179    3.01559251933646    5.83099551342948
H         1.46311399237470    2.98434859769593    5.53497673824671
C         3.52458259382992    3.73756050793861    5.15828744157358
H         3.39156842585467    4.30752214090796    4.24636483831279
C         4.68147899319150    3.73909618230985    5.97368075166765
H         5.57002803914913    4.33144845908239    5.80755635250328

