95
CSD_code = ALIKAI | q = 0 | S = 0 | Stoichiometry = C48H37Cl2N3O2P2Ru | MND = 6
C         7.48809078862799    4.36825052790732    2.74360327458009
H         8.19772116711599    4.83582072902687    3.41365686438047
C         7.27741601395318    4.86975821968974    1.46214350949136
H         7.83699489333069    5.73454629224703    1.14446383406556
C         6.36990290858135    4.26537713757601    0.62366769424447
H         6.18756626395082    4.63037941355931   -0.37453008722268
C         5.67081323001484    3.14065259768011    1.09802986865566
C         5.94553835026237    2.69958449576966    2.41099840018176
C         4.71137989120103    2.42819857785926    0.35090941149994
H         4.47735562990277    2.75010834608529   -0.65347752899807
C         4.05194998774416    1.33892646382748    0.86508611681223
C         4.32142274274224    0.84895857965168    2.18797681588954
C         5.28308737157390    1.56326470512136    2.94506543726269
C         3.75587597264876   -0.28926451964095    2.78275800159423
H         3.02067913952180   -0.87516703138592    2.25764097212820
C         4.15603988721574   -0.63822438039353    4.05720100796389
H         3.74293686337574   -1.51043773310112    4.53733616149982
C         5.08910810034232    0.12965984859886    4.73726786675946
H         5.40279510629293   -0.12997701689421    5.73886327229195
C        10.37180195748257    1.14936555557559    5.20811303394627
C        10.41680435811793    1.51982649276270    6.54531353309441
H         9.52225713932470    1.86711372618260    7.04088788364855
C        11.61303671149557    1.45147016620372    7.23873376454543
H        11.64639999329156    1.74818412684076    8.27633258552864
C        12.76039438973488    1.00684976710817    6.60605091919268
H        13.69407091787953    0.95823284782177    7.14720327602184
C        12.71324562306694    0.61842841280805    5.27550655195666
H        13.60679445927447    0.26373018288240    4.78222685559702
C        11.52384372801898    0.68254847473664    4.57724134492205
H        11.48580062312569    0.37697228763375    3.54015758735861
C         8.62156175486409   -0.63571939365625    4.05717883305051
C         8.02513606048880   -1.33037577056418    5.10681630621166
H         7.68484355084396   -0.78429211840776    5.97658575158172
C         7.89277495678606   -2.70520862420176    5.04778050569277
H         7.42609095130364   -3.23509447497541    5.86496459057900
C         8.36548548736953   -3.40035069819046    3.94707589577609
H         8.26208272199062   -4.47426696264598    3.89706882928413
C         8.98579700667480   -2.71660979466810    2.91462438944815
H         9.37334468129965   -3.25785556216325    2.06353494798983
C         9.12018368696819   -1.34057753475414    2.96682400908827
H         9.61635141336837   -0.82326042815449    2.15797725862648
C         9.29452037285786    1.77741914649183    2.63769805479284
C         8.56678128797745    1.38989903201129    1.51331734789778
H         7.78604261729864    0.64425815839352    1.60973022461201
C         8.83895427438763    1.95139723983926    0.28013144757550
H         8.27657240927976    1.63903338171327   -0.58807338985278
C         9.82716017408742    2.91589747841300    0.16016995927481
H        10.04033190230528    3.35075932026399   -0.80499428719622
C        10.53131164444928    3.32809068450875    1.27931609019737
H        11.29058095881764    4.09090578257990    1.18970536976308
C        10.26152866904863    2.77053372489469    2.51653693405980
H        10.79321809863205    3.10422525800151    3.39697389160548
C         5.61426793891195    4.80336014424621    7.42046067479434
C         6.61548919162748    4.45789132005333    8.31734288689413
H         7.30498136618953    3.66124958534154    8.08109517707867
C         6.73485552918430    5.14528198774751    9.51363449144534
H         7.51866981412587    4.87722767539758   10.20636152260596
C         5.85710292924118    6.16959457433513    9.82033282692405
H         5.95288825204901    6.70544805617610   10.75357655639464
C         4.84904707474075    6.50938681584424    8.93007765448087
H         4.15963341103066    7.30635567638499    9.16952994566646
C         4.72308877444499    5.82850107333442    7.73588646956354
H         3.93732550055612    6.09281223682964    7.04071734006210
C         5.15245112213262    5.27699595817799    4.66062219915538
C         5.91128989403434    6.43646811624429    4.78892470433488
H         6.56243427820188    6.55257766200431    5.64421752278399
C         5.83906673682623    7.42302015556086    3.82190484789428
H         6.42511883835898    8.32361796032591    3.93081234873615
C         5.02272001394586    7.25615428955254    2.71554094378818
H         4.96390253401052    8.02901382701579    1.96351387113814
C         4.28746228595154    6.09075678029506    2.56739340793718
H         3.66027521650529    5.95115889512125    1.69849017907367
C         4.35758516562852    5.10058994763250    3.52926666072941
H         3.79426317333374    4.18352447123872    3.40390567342835
C         3.69329051723091    3.27483336655103    6.14221026818948
C         3.61531339159888    2.07073777261452    6.83858940287945
H         4.52793561173107    1.58855669552154    7.16304172865321
C         2.38591542748903    1.51318492043359    7.13596383799382
H         2.33629328341590    0.57760438804365    7.67326418314890
C         1.22204726755272    2.15772866997610    6.75094657853982
H         0.25959124483657    1.72298181258465    6.97697598765288
C         1.29375968930185    3.37130973270994    6.08748004574890
H         0.38753847390588    3.88726635543363    5.80442008965191
C         2.52150126726811    3.93410194829217    5.78641430958869
H         2.55845670468602    4.88701303585625    5.27768344008000
N         6.84422853115157    3.30968158993275    3.21742213008575
N         5.64617879198158    1.21127586514083    4.20529685712144
N         3.08044962999316    0.71939158165906    0.01001828695583
O         3.17117181401238    0.94420987124685   -1.18455599042611
O         2.21287336177081    0.02300601729544    0.50570834452681
P         8.80751749897042    1.16770136652650    4.27818490755861
P         5.37647325746117    3.91885861863701    5.84635993964242
Cl        8.56600714293759    4.08207828623215    5.68754130261151
Cl        7.00432934909456    1.31015069512579    7.08218384305871
Ru        6.98652981227194    2.44939506284569    4.99667141287373

