36
CSD_code = ALILOX | q = 0 | S = 0 | Stoichiometry = C16H12FeIN3S3 | MND = 6
Fe        1.28411099668002    0.24271924499460   11.32061716323868
I         2.91150315353617    0.40269928444294    9.41182168934083
C         0.04469039396054    1.48344818540096   10.85534085919266
C        -0.95974447126277   -0.60950095187618    9.77170239520872
C        -1.80348928877194   -1.43849372918504    9.04169631265239
H        -2.71694569926367   -1.03281288947701    8.63773652077080
C        -1.44028671236859   -2.75559425951190    8.84897024480633
H        -2.07077482328106   -3.42488646007146    8.28518772817488
C        -0.23514590575719   -3.18921642566945    9.38841983412953
H         0.10567279201797   -4.20250252396322    9.25338326157320
C         0.53740933379337   -2.29591837100159   10.09972684087440
H         1.48691984625029   -2.60078653143885   10.51246211369562
C         1.62630364635212    2.91324834425904   12.27603630274218
C         2.19337871354598    4.00811127960858   12.91783147572859
H         1.67534785448676    4.95330463750782   12.89917885894930
C         3.40834122754484    3.85234610847694   13.55304888726320
H         3.87658509948952    4.68176662515053   14.05913701247214
C         4.01598585241561    2.60329041710580   13.50916228794672
H         4.97315238060179    2.43013448265296   13.97283592269961
C         3.37898848891972    1.57425053206194   12.84878865933505
H         3.83840662887669    0.59995114252806   12.78164790091234
N         0.19158083435874   -1.02552427997710   10.31411854296002
N         2.19382905435359    1.70081136118575   12.24980201404637
S        -1.39483979128459    1.07029635892483   10.01013724831702
S         0.09300771351786    3.09652021240789   11.44949330420874
S         0.14246975983314   -0.29086497510261   13.25708062787931
N         2.30358438534420   -1.20608687814490   12.31036604109706
C         1.48673785324065   -1.34911102398814   13.36833725063621
C         1.75445824164597   -2.25911407479455   14.39393070169697
H         1.06972927782937   -2.33759087455470   15.22269454360648
C         2.89507587120034   -3.02533382809275   14.30125542564395
H         3.13593183169286   -3.73933387429870   15.07479139635266
C         3.73801220214036   -2.87215366066222   13.20002530122388
H         4.63683462904361   -3.45829690779689   13.10126061683458
C         3.40186316979312   -1.95029432953302   12.22945205973911
H         4.02041545952374   -1.79148136756978   11.35572265404960

