58
CSD_code = ALILAI | q = 0 | S = 0 | Stoichiometry = C27H20MoN6O3S | MND = 6
Mo       13.61366340636817    5.45175864176015   -1.69107354655289
O        14.52118326894914    4.77782587527469   -2.86716570883533
O        11.75685343947322    5.66409942480083   -2.51796212968048
O        17.83818787018576    5.56069975852480    2.76736099971824
H        17.08035772187479    5.12169149135236    2.32806391451040
C        18.28164063328332    4.81746319473208    3.78581402338879
C        19.37991269943145    5.29273564150399    4.50590101476181
H        19.81174395284394    6.23259850478925    4.19977283667555
C        19.89434760680959    4.58294128361245    5.56917320025808
H        20.74500685251346    4.96987150362809    6.10989692021693
C        19.32381487158720    3.37307794237695    5.94641459180451
H        19.72742778951558    2.81709485961099    6.77858893319974
C        18.23974740729318    2.88932495930820    5.24971131026783
H        17.78932261652981    1.94921629649169    5.53599478619331
C        17.69710470513508    3.58945155910897    4.16598502730589
C        16.56081462732378    3.03660452868731    3.47523597565184
H        16.17282873269107    2.07993283886182    3.84486525571085
N        16.02209498930144    3.62881222066097    2.47899202453547
N        14.96331176378927    3.10269661777675    1.86289281238611
H        14.56492916445742    2.21322630358464    2.16929045797463
C        14.41517578467283    3.69926454799228    0.77266067959662
S        15.14151562490258    5.17851938410486    0.22788862326996
N        13.39116415546406    3.11762987363379    0.23644544628852
N        12.82505230891057    3.71791274998671   -0.84622565481195
C        12.04151041838723    2.94143627400334   -1.53441585658452
H        11.98204792083516    1.89947537837748   -1.21256041181480
C        11.21272757549628    3.33319395015169   -2.62297071762466
C        10.44227819696266    2.34404057693723   -3.26171186041065
H        10.53578266590541    1.32215251473822   -2.92200531663198
C         9.58763225699102    2.64968627762040   -4.29143572250580
H         9.01103544441493    1.87390536213632   -4.77094746251555
C         9.46538081892557    3.97377921123177   -4.71192617871588
H         8.79159359373563    4.22015570641786   -5.51947411772507
C        10.19571468501269    4.96743977663362   -4.10627741264975
H        10.11118537681575    5.99689338374519   -4.42305352937114
C        11.09742873618750    4.68489170774092   -3.06068591159021
N        12.57007090925548    6.60822440670846   -0.23750822218028
C        12.76556023865075    7.94967753850072   -0.36925339207809
C        11.73745219724653    6.21792482905522    0.72743086668883
H        11.58184293551086    5.14864538161480    0.83255119347065
C        11.08680120616425    7.09369168519858    1.58045853686288
H        10.42681809075722    6.70266064955848    2.33854634165048
C        11.29106403037587    8.46225941717373    1.45755796419718
H        10.79755120675323    9.15902548771195    2.11827253781271
C        12.15063554520836    8.92003586805208    0.46316523479704
C        12.46270296359209   10.29145737187049    0.22365042774954
H        11.99635761880017   11.03364704257156    0.85508605451202
C        13.31969063720057   10.65762594784180   -0.75934817874036
H        13.55026063291601   11.69985126205642   -0.92575745097164
C        13.94822802428943    9.69606757325761   -1.60893633752856
C        14.83408249094484   10.00864958269359   -2.63571490307843
H        15.09921347200009   11.03210556590721   -2.84682170053765
C        15.36257381552600    8.95304903945258   -3.37865750950758
H        16.05166229569662    9.15148772968477   -4.18460203908209
C        15.01469786316713    7.65022538760296   -3.10529673532826
H        15.41937721003046    6.82448306362378   -3.67771968697985
N        14.15953582035271    7.29244552757085   -2.12247979560060
C        13.64350111258936    8.33105952039786   -1.39088050181807

