50
CSD_code = ALINEP | q = 0 | S = 0 | Stoichiometry = C17H24MoN4O4 | MND = 8
Mo        9.14812186368293   12.88160869371783    2.07402629898479
N         8.30549463381811   14.68792350730398    2.75093078351550
N         7.06911899841263   14.64388741948892    3.26498652373762
H         6.56307459533704   13.76268979783159    3.19230235745869
N         8.88077791004765   12.46485014465861    4.17854649104199
N         8.30954980007398   11.28872977317891    4.44347146231957
H         7.98830711305382   10.69180867736578    3.65335151235594
C        10.02342042287158   11.11433487963237    2.09995821720617
O        10.59953757317332   10.23056728988042    2.63659731592806
C        10.97858818154175   13.42785124283292    2.19888718577790
O        12.10193822428030   13.69149584342989    2.19579431444097
C         9.68503922150653   13.50661340344127   -0.10110400080673
H         9.19743968941567   14.35911160126513   -0.56827074453062
H        10.75263859329585   13.45963562189567   -0.29707887952815
C         8.94824309338473   12.32805485683649    0.00828231551553
H         7.97458002305386   12.20473907594912   -0.46750174738634
C         9.66047406919024   11.12258887682200    0.52245301932392
H        10.64512806737585   11.00133673628689    0.05085124591135
H         9.06289490410430   10.21473308098084    0.39125927211847
O         6.90432080102695   12.33952196204751    1.95283122306696
C         6.52748159555230   11.14040853957788    1.88199167915336
O         7.19605893199312   10.17656213411142    2.28093088729209
C         5.13307574881013   10.89303751005824    1.30912453516615
H         5.16230192896206   10.03820983487905    0.63876218219071
H         4.77270878776855   11.77392146539007    0.78332129817142
H         4.45532454316092   10.65753782195832    2.12815969935054
C         6.61188414339856   15.86669541247646    3.58563157644385
C         7.63330573856253   16.74617667630117    3.28308905576025
H         7.63148195241753   17.80855572958376    3.41593849860735
C         8.67357279629759   15.96518771184127    2.75707700618191
C         5.25995173402106   16.09249635991342    4.15457869449910
H         5.15194593103731   15.56593212810902    5.10226760701541
H         4.49338425621029   15.72338987552774    3.47435234516685
H         5.09866115190697   17.15310651470046    4.32255039896514
C         9.99497562809911   16.43454969592584    2.27302028794289
H        10.30977410357088   15.84748212993554    1.41418633600723
H        10.74908544666542   16.32087861522230    3.05038548660516
H         9.93955193200967   17.48519985321225    2.00022006973396
C         9.21428765747761   13.00263582836347    5.35038525564092
C         8.83212583641887   12.13717372655777    6.38216868370594
H         8.96920319165960   12.28825354143257    7.43321615869890
C         8.25972364942594   11.04172295079561    5.75927702179931
C         9.91420951038362   14.31009173660166    5.46682102280416
H        10.62241118957193   14.41210863048683    4.64564909992451
H        10.44691698608119   14.35873164663457    6.41303993968300
H         9.20900577832457   15.14177014082105    5.42774166167878
C         7.69320259478651    9.78412703601157    6.30667530616660
H         7.12373354677974    9.26900120153000    5.53731949783731
H         7.04943128624505    9.99000098919568    7.15932427689928
H         8.49563464373366    9.12637207795277    6.63862026444437

