89
CSD_code = ALINAL | q = 0 | S = 0 | Stoichiometry = C38H46N2NiO2 | MND = 4
Ni       18.04404620045806    1.60529578719188    5.13465103850723
O        19.17280157343870    2.91299866833118    4.47421602616698
N        19.24477101247920    0.26027669609308    4.64334569707958
C        20.42679948613852    2.87143452720827    4.16256321122660
C        21.14604442328282    4.08897357636157    3.91460240642467
C        22.49309225784775    4.02994857725879    3.66686012845119
C        23.23097727506491    2.83613463484000    3.64121550926774
C        22.53351603523857    1.66716361684383    3.78954684635762
C        21.14250000898649    1.64997321664118    4.00184541935692
C        20.45808412801584    0.38010581055547    4.06039075266678
C        21.04789310287425   -0.75934257221378    3.46953867634113
C        20.45966781573285   -1.99337023566085    3.57147129968407
C        19.26810020011439   -2.11292548533007    4.27726184497444
C        18.68483949131337   -0.96473350331880    4.78170505566856
C        20.40418010659290    5.41730209511717    3.93635647544336
C        21.29892103552710    6.61276761168322    3.58896173803016
C        19.27532440813013    5.36732742806949    2.89852599659628
C        19.84041670753867    5.64061588664791    5.34342640831608
C        24.73721297452759    2.89790256084797    3.44229519481834
C        25.03935064122402    3.55579131491584    2.08846728920807
C        25.35992277500552    3.72697509556745    4.57398272969416
C        25.39065890569364    1.51296600002287    3.45308720035391
H        23.02749310349995    4.94911781641784    3.50089104669836
H        23.06010911063668    0.72869175505547    3.79340509250122
H        21.95516245699429   -0.64827371923023    2.90129179695133
H        20.91066213506650   -2.85915418602686    3.11068295828456
H        18.79195289288812   -3.07171138211744    4.39101647952937
H        22.09410942749439    6.74222052205038    4.32015387814985
H        21.73418377801332    6.50920429136082    2.59704628681428
H        20.69370570082199    7.51723699649336    3.59414894220477
H        18.71061219947770    6.29644673936166    2.91172537943805
H        19.69075556501230    5.22758924249497    1.90173070855894
H        18.59788493476374    4.54726281059640    3.11088422746960
H        20.65045652637983    5.66960370875240    6.07025281325630
H        19.30229266293683    6.58422511641372    5.38625355622293
H        19.16244668841400    4.83699959812596    5.60671027388627
H        26.11341636032340    3.58672525737524    1.91719839912023
H        24.66017539673595    4.57283271543349    2.04886456687042
H        24.57682616074096    2.98871747453973    1.28332816631051
H        26.44130825183349    3.76775585017582    4.45948684135631
H        24.97950894324899    4.74438833453821    4.57447103543135
H        25.13048640790419    3.27775795662043    5.53798310749581
H        26.46530273887666    1.61684844327774    3.31631509490719
H        25.22022775586081    1.00811216574668    4.40121428748015
H        25.00899010053555    0.89404210860156    2.64418246082929
O        16.91525485397394    2.91305149918637    5.79500686275401
N        16.84337539324689    0.26030316167393    5.62611153029278
C        15.66124015103056    2.87147956962447    6.10659558723928
C        14.94195589040652    4.08899396800362    6.35456141222966
C        13.59484568697841    4.02994920318806    6.60197068917938
C        12.85694964070892    2.83613557622969    6.62735184780594
C        13.55446477768500    1.66717183521666    6.47919943547643
C        14.94552585711352    1.65001571737629    6.26720795185122
C        15.62999647208145    0.38016955489495    6.20891229514333
C        15.04017925927579   -0.75918878013658    6.79992494092856
C        15.62852699943348   -1.99319004498045    6.69836641655998
C        16.82018306950499   -2.11281411281470    5.99273334933731
C        17.40339982657791   -0.96469919657082    5.48806340511381
C        15.68384277238181    5.41731627507147    6.33317209651100
C        14.78910815354342    6.61271245959327    6.68082028196728
C        16.81265078551628    5.36710470587852    7.37104477125445
C        16.24769056288952    5.64093877134198    4.92618791381457
C        11.35065186851030    2.89789744937956    6.82579602775118
C        11.04806516243272    3.55573478677882    8.17954834683645
C        10.72833549938172    3.72701572745693    5.69392251937341
C        10.69722308153428    1.51295410658927    6.81472369172046
H        13.06041115399907    4.94910585997024    6.76790053672165
H        13.02790768779507    0.72867858221769    6.47523940900745
H        14.13280323475204   -0.64805056464112    7.36799231510607
H        15.17753250261535   -2.85890910280796    7.15927642046831
H        17.29642422860102   -3.07158782986489    5.87926670386917
H        13.99403149397467    6.74243702700832    5.94955542610148
H        14.35369493914884    6.50883688631307    7.67263720330229
H        15.39435851799240    7.51716111917164    6.67601526868660
H        17.37736420709150    6.29622850293839    7.35810013678442
H        16.39717129242506    5.22712333006887    8.36778521609028
H        17.49010578121725    4.54709671782460    7.15852412465757
H        15.43768888698699    5.67014803966557    4.19932789111211
H        16.78587286232462    6.58452696266443    4.88361387798481
H        16.92562274933132    4.83733937426228    4.66275316809960
H         9.97393918407157    3.58670290984586    8.35042360718889
H        11.42726094721397    4.57276172229624    8.21933878149400
H        11.51027007165521    2.98860341145095    8.98483179147172
H         9.64690796092809    3.76775311846445    5.80802509280137
H        11.10871025914039    4.74444409708683    5.69363635220717
H        10.95813913456266    3.27786350660673    4.72997763609341
H         9.62253060247141    1.61683208917561    6.95111322574795
H        10.86799570768758    1.00812702231775    5.86664359747281
H        11.07860096626366    0.89400406130398    7.62374650013665

