61
CSD_code = ALIPUI | q = 0 | S = 0 | Stoichiometry = C19H31MnN2O6P2 | MND = 6
Mn        3.60101977619319   20.44589511472723    6.03499432078274
P         4.46059594277292   18.82344537625805    7.32479190780684
P         2.72051913152143   21.33594730232137    4.17045446717613
O         3.44016274379142   17.55662554987839    7.00853791920141
O         5.92670943634530   20.39519499250357    4.71594715317490
O         1.57065229073957   20.20992583196169    3.76978384356540
N         4.84888951290543   19.81723524007960    4.85567052179596
O         4.60626640843206   18.79764570013223    4.18900449164628
N         2.41456546105802   18.89345121421476    5.44960307888239
O         5.26860163638303   22.68427384551687    6.91924056221390
O         1.60266235784612   21.48696890599222    7.93041163244681
C         2.52888585222979   17.70111034680388    6.03283206234621
C         1.74952489014696   16.61313446741374    5.65898495629288
H         1.87574104285440   15.67310355549871    6.16846419913259
C         1.59165410752522   19.02956876865881    4.41084462051515
C         0.85109378826407   16.77768005412795    4.61978349779475
H         0.23245360045522   15.95343777795595    4.30206630019511
C         0.77242244569601   17.99716797823272    3.97088206576722
H         0.11795189043445   18.16282719747371    3.13219529420149
C         4.63809370670283   21.79478368519533    6.54699755914374
C         2.36373349310101   21.04617514346733    7.17662031004075
C         2.93199698748927   18.54915766106802    9.64906566053343
H         2.22534870027672   19.22793626441059    9.17364016376613
H         2.85976556771530   18.68427204390423   10.72670791899193
H         2.64753659544341   17.52629855963898    9.41105828389427
C         6.07296628780263   17.96326043246433    6.97032175257408
H         6.04285291688015   17.76851348187062    5.88995093473653
C         4.35284677726329   18.84701497389926    9.18393733474133
H         5.02995274211404   18.08621803338161    9.58377510136632
C         6.21009560695251   16.62296812696434    7.68826700209828
H         6.46793293643155   16.75772810568099    8.73662971247087
H         7.00792339876864   16.04653668963239    7.22322405752697
H         5.28947077617717   16.04591879376672    7.62289885220920
C         2.38214103412148   23.90999071161555    5.03183000907314
H         2.41624188980571   23.57869982728633    6.06976363462373
H         1.86175603955430   24.86496186830565    4.98783042168022
H         3.40747577298804   24.05583236075141    4.69680531599671
C         1.66499096507856   22.86906812298187    4.17650407560125
H         1.57890565432242   23.23647040826230    3.14943119334920
C         4.80112717390062   20.22874220306248    9.65099617529248
H         5.78418732966945   20.47851552940651    9.25686288352590
H         4.84082089715573   20.26963334512982   10.73797529676672
H         4.10046291274124   20.98583221309019    9.29867004722541
C         3.60963477746856   21.40623252249071    2.53515883169912
H         4.08962689190710   20.42243860076001    2.44503375752240
C         4.69091223552468   22.48035448220249    2.57154279732466
H         4.24991705951747   23.47472716133391    2.61642811554376
H         5.30209297067422   22.41942960238373    1.67276676173045
H         5.34165362022554   22.34007122331882    3.43418337763825
C         7.24136962596319   18.89574541372317    7.26967815034860
H         7.10752980114327   19.85158066646483    6.76372188561776
H         8.16940270077692   18.45146436146035    6.91428916035479
H         7.33571743176793   19.06974477102606    8.34018604713150
C         0.27261771690652   22.57753607418863    4.72346941158909
H        -0.27626741127593   21.91001151623064    4.06265294260980
H        -0.28793304584370   23.50577517099891    4.81856984787497
H         0.33832982494013   22.11798238159636    5.70823215488448
C         2.66650395398601   21.58278866154961    1.34748005995015
H         1.79606135733539   20.93519600345948    1.43555266530279
H         3.19242818904556   21.32435830039282    0.43005954892847
H         2.32980382191151   22.61329528143954    1.25613789178280

