30
CSD_code = ALIPER | q = 0 | S = 0 | Stoichiometry = C8H18BrCuN2 | MND = 3
Br        2.04558650289694   14.43885928370635    0.61065433504869
Cu        2.06330235240312   16.61280779947422    1.22070042221658
N         3.55176797050007   18.12764090272377    1.55595959920140
N         0.78982965768957   18.26088276039880    1.51021988042217
H        -0.03076542033735   18.16928098381998    0.91913885963790
H         0.48988112827732   18.24322001664320    2.48164593976885
C         4.86712194328331   17.79028377168901    2.08593052549599
C         4.69444773895316   18.15227145252243    0.66077851539976
H         4.71900314244649   17.38347933527578   -0.09920879358465
H         5.04467154787159   19.12343082138668    0.32731539405089
C         5.56758305027602   18.75182593632671    3.01967175152043
H         6.61385467171565   18.46633834144416    3.10372222587100
H         5.12424042265448   18.70579572068750    4.01358319936007
H         5.52374872658994   19.77804242909783    2.66396828567926
C         5.05815025991350   16.33929957564698    2.46176097656250
H         4.44512671315229   15.69600346336073    1.83482798542418
H         4.77819273397473   16.17559601728353    3.50064594606157
H         6.09962397805729   16.05272985776083    2.33404518750117
C         1.53532414657135   19.48682199457417    1.20540470845205
C         2.89926679133432   19.36943910245281    1.91866095708531
H         3.50533269742092   20.24938817548776    1.66898324313192
H         2.73172654544565   19.36320394065117    3.00148768315641
C         0.79497293921736   20.72923034782292    1.70946505973395
H        -0.18267904310017   20.80351914654653    1.23714667441520
H         1.35487213458781   21.63052750696894    1.47427476631701
H         0.65510167165999   20.68535477066976    2.78850194373213
C         1.72783160429001   19.56054124353856   -0.30882061845547
H         0.76913844375908   19.68738169211641   -0.80741893020244
H         2.18604017006374   18.64395760830246   -0.67377040389174
H         2.36460477843304   20.40054600162037   -0.57327531911265

