56
CSD_code = ALIPAO | q = 0 | S = 0 | Stoichiometry = C22H21Br2NO8PdS | MND = 4
Pd        1.16151296112630    1.76186632132667    2.09334935716813
Br        0.06878775407134    0.83110342999657    4.00530228759970
N        -0.42292953102923    3.12518290338713    1.50670341267623
C        -1.44401709576217    3.43410629048453    2.27496950222787
H        -1.73185981154976    2.70053580538060    3.02105598307703
C        -2.14977255476394    4.64010364964956    2.16358899476015
H        -2.98134547522104    4.82615627772269    2.82403902622776
C        -1.75014217063385    5.56087284422260    1.23365143973734
H        -2.24877612494574    6.51416209518953    1.13437838614995
C        -0.66107637835799    5.26404262356280    0.38911721106042
C        -0.02710636630397    4.00181049462399    0.54622938650934
C         1.04971780257824    3.68523398583321   -0.31622555815426
C         1.51161501299150    4.59274858397588   -1.23269248411501
H         2.35794972459602    4.33894823685702   -1.85093758958752
C         0.90400787078256    5.84961104112903   -1.35298717145869
H         1.29577846745912    6.55412103997363   -2.06922189758612
C        -0.16766107889350    6.17354790341451   -0.56904295588130
H        -0.64892692607946    7.13662891690271   -0.65627420065688
S         1.88797124823862    2.10974890697443   -0.17944925675885
C         0.60286128296153    0.96830512794441   -0.80858700839267
H        -0.36258712438443    1.18337452261607   -0.34889781492154
H         0.93745172105165   -0.03110811273516   -0.52785604744079
H         0.54816079002745    1.06585623777082   -1.88991125901740
C         2.75987171891153    0.67563668195643    2.43361083965689
C         3.93312915192185    1.33242160709835    2.37015521777579
C         3.84048970063616    2.79038173021021    2.26845831475139
C         4.50445640358603    3.60055737218497    1.43135420172260
C         2.53199057926069   -0.76542162727885    2.26869751110096
O         1.87383944999757   -1.14083791551832    1.31372645088738
O         3.01637669925261   -1.54346243288991    3.21763907172768
C         2.77046307160876   -2.93582440366452    3.07488532569855
H         1.73615900647573   -3.10461469719801    2.76765485827235
H         2.96208793125856   -3.38065282486802    4.04792095823755
H         3.44431311362060   -3.35116318063630    2.32308313586474
C         5.23628789675870    0.62343190273935    2.30397119831408
O         5.37501694809794   -0.51217522796142    1.92927800755073
O         6.23258033045518    1.40144983197247    2.74271887563147
C         7.53189551557578    0.82966600125863    2.70222471424222
H         7.52089436885563   -0.16555250639979    3.15042529465399
H         8.17729353811643    1.50016591582131    3.26368326686378
H         7.87029157812110    0.75236068072219    1.66661297649420
C         2.69951457223524    3.42174982226671    3.02432017333020
O         2.03567460028396    4.35256348520742    2.58682575784297
O         2.65712991944604    3.01127723304069    4.28793100379070
C         1.68853160128761    3.64360502381769    5.11882525173333
H         2.03005742456451    4.64671163768837    5.38298277550690
H         1.59306267128458    3.01638092528878    6.00133426790245
H         0.72661241252597    3.71273074803831    4.60046863947842
C         4.19224949471768    5.05603958480933    1.30990638873927
O         3.82816999980429    5.57760143816303    0.28987337549767
O         4.41433925247176    5.68615520858685    2.46013767242297
C         4.04495808568001    7.05874931538819    2.49761930963049
H         4.42607752115584    7.57694375247905    1.61549070399434
H         4.48021652741630    7.46690765501533    3.40607210765786
H         2.95604941789457    7.13773151984027    2.51998093429089
Br        5.76870549871533    3.00712661668469    0.18082967552942

