77
CSD_code = ALIPUG | q = 0 | S = 0 | Stoichiometry = C34H34Cl2N2O2RuS2 | MND = 6
Ru        8.85545212426957    6.35925936204331    5.43962167233880
S        11.07011042700936    6.26674944384103    5.00866424041901
S         8.44437637379825    7.48254536484568    3.52393473935485
Cl        8.98428827779239    8.43703000280549    6.52689300061830
Cl        8.65194392189992    4.24208010882414    4.44356854493188
N         9.08774442140748    5.36888681895793    7.12696574808842
N         6.94862567653148    6.39240592695811    5.93726529511745
C         7.90536716615834    5.54455029471406    7.95631458274850
H         7.92573757402153    6.58800923735030    8.31212068197845
C         7.76682374923924    4.59353502007443    9.14659407405783
H         8.57504995515163    4.77633997977912    9.85737933301117
H         7.82504098041130    3.56121644649855    8.79273988322004
C         6.42881479018610    4.78849129369490    9.85093854777787
H         6.36368536098084    4.10284453998618   10.69707612244849
H         6.35726765299127    5.80725888475001   10.23608522152859
C         5.29352525089374    4.52759458197150    8.87260244728579
H         4.33029243709453    4.63071297996797    9.37447902284504
H         5.36569662610541    3.50891544310732    8.48722855507247
C         5.37038782028724    5.52340768432756    7.72068150505060
H         4.54808825413361    5.33178190403737    7.02865851543347
H         5.27118293912301    6.53299911399417    8.12709562886058
C         6.70380546866428    5.40679874952165    6.97965970489685
H         6.77887324459871    4.41762629340846    6.49831992636423
C         6.03845791609388    7.23275719015658    5.60218994383465
H         5.05676631173925    7.14765027227158    6.06196449471324
C         6.11820888982716    8.38796851451693    4.73024616238869
C         5.04921048305909    9.29367473392466    4.82814408409537
H         4.23962803096723    9.07543519824671    5.50985057924226
C         5.01487810727909   10.45711445563574    4.08983323131661
H         4.18405743664475   11.13817343960617    4.19703820676425
C         6.04334140838429   10.74535497933142    3.20711115438064
H         6.02510589399380   11.65074376405041    2.62014614732226
C         7.09600410132431    9.85593199795687    3.07479414604453
H         7.89084959517726   10.06348238023868    2.37511632943599
C         7.14534859886339    8.70156112485332    3.83239606341352
C         9.99692294514714    4.52262559612073    7.44946170237655
H         9.90181608357172    3.98981484596888    8.39254828306484
C        11.14932523117298    4.06933770775003    6.69591540834432
C        11.75813199338150    2.89558756148700    7.16904429470618
H        11.36115721683582    2.42094556244002    8.05498490184667
C        12.83555399220823    2.32742590433982    6.52372925701615
H        13.27320193389825    1.41752790987429    6.90603060413924
C        13.35793820724903    2.92970258788617    5.39046154991357
H        14.20415435473892    2.49672295840197    4.87954628850812
C        12.79061558592280    4.10145056748196    4.91927085790161
H        13.20366935537296    4.58701981581859    4.04860722391938
C        11.69443915562019    4.65857623390803    5.54912056317489
C        12.77944989438043   11.00515215805974    1.15070821991138
H        13.40100274630034   11.45537360814217    1.91982605625734
H        12.33432614954096   11.80299413527626    0.55644036078679
H        13.41046840497199   10.41377488126839    0.48957317236898
C        11.70772952686227   10.15187698489632    1.75712373763970
C        11.47469673684639   10.15827397993354    3.12703629754780
H        12.07670971105088   10.78242044311467    3.77042714430477
C        10.48407856475687    9.37012539722766    3.68686401285294
H        10.31314728937915    9.38258303192744    4.75269443099652
C         9.72045116872194    8.56600943805798    2.85999900952338
C         9.93324168105318    8.54562321343423    1.49162542363264
H         9.31877267436433    7.89984494444405    0.88256173238661
C        10.92121554684290    9.33972871143816    0.94499216223645
H        11.08781001010282    9.32833583306529   -0.12253539081283
C        12.95293451769519    6.36091522971711   -0.75907682410614
H        12.21637288411180    5.92609393005990   -1.42918166967400
H        13.88292666018923    5.80180555069302   -0.86262751303491
H        13.14780495522615    7.38671283405946   -1.06589556995838
C        12.47911060407412    6.31539461440530    0.66134100787392
C        13.13901831107544    7.05114126123489    1.64135337833130
H        13.99304684616185    7.65610078954724    1.37278687882283
C        12.70932644924599    7.01896385101008    2.95296537947548
H        13.19844373430733    7.59043368499143    3.72738452896258
C        11.61642670119342    6.23978640779461    3.29357296615180
C        10.94978761929857    5.49235207114523    2.33910907452727
H        10.09967978053491    4.88534765729117    2.61115234722367
C        11.38747411180026    5.53689719244316    1.02705943051890
H        10.86522762208609    4.96022255172356    0.27832615924797
O        11.92659856080059    7.22858754971961    5.68309080609107
O         7.95025721581790    6.71500328612264    2.39236477860399

