80
CSD_code = ALIQER | q = 0 | S = 0 | Stoichiometry = C36H35Cl2N2OOsPS2 | MND = 6
Os       18.22821211321318    4.23389346921228    5.46611142620168
P        18.67052044870530    3.97142375150287    3.12858824674165
S        18.74513653493952    6.42346515098006    5.27909054119897
S        17.53668223335696   -1.56399119424079    4.34763253220131
Cl       20.40773220821812    4.16797665652004    6.42751800554338
Cl       16.01419344030683    4.75427325737415    4.75439145348473
O        19.79408421429557    6.78023070274131    4.33995386116148
N        17.65241424887137    4.49406958065204    7.34820921224946
N        17.69782960402794    2.27927872167617    5.89027443489327
C        16.96139397729119    3.34408719857133    7.92074466122843
H        16.07571735895698    3.66061752201806    8.48192684627542
H        17.65404851011935    2.83885829803490    8.60703138859709
C        16.56896618944632    2.38066546723973    6.80384035833798
H        16.28428950441586    1.40669427480375    7.21598931046076
H        15.72499972571562    2.80457495155797    6.24460421266842
C        17.86848748823159    5.45187001767906    8.19267001203353
H        17.47149080025810    5.32314646527504    9.20238162706171
C        18.04678600263807    1.08419083976601    5.56008903191952
H        17.45527898842202    0.25855542958879    5.96514239425452
C        17.38827292196182    7.61885057252997    4.99090499300228
H        17.81024667311282    8.61707716817397    5.01565596488495
H        16.64352505378676    7.48231479153418    5.76681311311688
H        16.95793010202113    7.40943299743384    4.01676174769402
C        17.76649593889174   -3.05950467795985    3.34549861827624
H        16.86170120749047   -3.64159456436636    3.49167616027853
H        18.62595984793336   -3.62271355198719    3.69687616156446
H        17.86660913844599   -2.78924230137170    2.29859657852929
C        19.21605833009835    7.12385949958980    6.86227256555950
C        18.67626952458464    6.63445790205180    8.05624418268132
C        19.00516412475255    7.32820630441030    9.23418259935351
H        18.59451729569797    6.98599242348753   10.17339715197994
C        19.85773073217781    8.41078864126192    9.21630451798017
H        20.09990942755057    8.91543875422374   10.13972930669214
C        20.41732189881235    8.84455775933964    8.02180571331160
H        21.10151307411580    9.67882620714686    8.00896882306647
C        20.08225951090149    8.19749193072245    6.84564888333266
H        20.49470590982782    8.49962531624971    5.89442133319165
C        19.10777605651159    0.64693557510183    4.68583785039081
C        20.26424236538316    1.39914876027075    4.47550656841604
H        20.38091100910702    2.32369966386493    5.01716376512174
C        21.27592375105276    0.93815922472222    3.65777163249905
H        22.16281447427396    1.53497932071446    3.51360049274118
C        21.14894177752304   -0.29163268268465    3.03449295541415
H        21.93297903702650   -0.66418208027026    2.39191026158916
C        20.01992818022312   -1.06525219261954    3.24039496544513
H        19.95320676771766   -2.02385012190764    2.75247953988297
C        19.00083013160631   -0.61606782599468    4.06471135402632
C        18.09962811177122    2.38968475505069    2.39818897447926
C        16.84552378590417    1.92334629217813    2.79136921534003
H        16.28329412520746    2.47300669986842    3.53366195951475
C        16.31840232033193    0.77064539873021    2.24064313193863
H        15.34274292362361    0.42459770730297    2.54845541514334
C        17.04277265245894    0.05875026098168    1.29872516425689
H        16.62660179860544   -0.83674799894093    0.85937202915064
C        18.30398814109306    0.49400644122082    0.93256234857562
H        18.88365902726685   -0.06699953122052    0.21311999131932
C        18.83249300927171    1.65162751479796    1.47797386834495
H        19.82323605741182    1.96807208891745    1.18957955744053
C        17.71684759026402    5.14728542735753    2.07814047098718
C        18.27321332929762    6.39590788493676    1.80334043511545
H        19.24960790380171    6.64417338027172    2.19205868185535
C        17.57646452579925    7.32495977064226    1.05203360015058
H        18.02079337606588    8.28925706009982    0.85076850186129
C        16.31609289205218    7.02415326999256    0.56297661546593
H        15.77068945641465    7.75180490832118   -0.02035957634597
C        15.76022729018392    5.78463703112832    0.82770179040163
H        14.77761021909806    5.54018701461348    0.45131958995661
C        16.45290277050796    4.85131764783023    1.57871227792242
H        15.99910140599057    3.89333894399660    1.77641915621345
C        20.30939810930253    4.21455990859881    2.36137123611290
C        21.45094915987813    4.34150359539000    3.14094014976495
H        21.37692491269157    4.30374793489711    4.21629222790288
C        22.68290514850538    4.54544337142509    2.54132270177956
H        23.56433878822280    4.65006225794069    3.15688150918127
C        22.78578804621391    4.62245026082871    1.16380207891955
H        23.74736887274612    4.78189507931359    0.69728531459893
C        21.64740033118852    4.50787993630775    0.38062529764562
H        21.72029805835770    4.57923351628488   -0.69541299290631
C        20.41526977903360    4.31138982753369    0.97351901204210
H        19.52695822744550    4.24333896878317    0.35919290935630

