57
CSD_code = ALIQIV | q = 0 | S = 0 | Stoichiometry = C22H26Cl2N2O2RuS2 | MND = 6
Ru        2.09321593741892    2.68216482571367    8.22961295099078
N         3.35454397113619    3.75374370677318    9.30596523445884
N         3.68382354050417    1.60807918091895    7.76323439080000
O        -0.74967465812859    3.21072509778113    9.65663483833448
O        -0.57045318068303    1.50506123388974    6.79794139072426
S         0.26787960753456    3.84869929951181    8.85492729995184
S         0.87348615144845    1.40580255723402    6.85839250100943
Cl        1.74186519733549    1.17529512133839    9.97077646350804
Cl        2.46084313140870    4.22252020413990    6.47752517674125
C         4.65472294122648    3.09050148777912    9.36469379324224
H         4.53686810236775    2.28942067580647   10.11412304883068
C         4.87464182148601    2.40504208360157    7.99056048266291
H         4.86604664530757    3.19537529086351    7.22161315286334
C         7.35709255921731    2.61905825806749    8.26060580477808
H         8.30532340163523    2.08275195192676    8.20344526949237
H         7.38035377756055    3.42633261849802    7.52656867811151
C         7.16160803659367    3.19484766217919    9.65497642613757
H         7.98809467428647    3.86047003094585    9.90795670558143
H         7.14678317569673    2.38463066776028   10.38648293930819
C         5.85192625675833    3.97431743162935    9.72723500181045
H         5.73586152770083    4.35657897498117   10.74289295797458
H         5.89966114273965    4.81433859931371    9.03003771406753
C        -0.59366213411019    4.61186183242732    7.44555968238059
H        -1.41613565347622    5.21284097968532    7.81370116975843
H        -0.97027634667180    3.78608186863350    6.84754577593781
H         0.12065754221483    5.20619083759889    6.88644573002000
C         0.69772431574526    5.37229525419531    9.72011186500767
C        -0.35732642446198    6.15970951698168   10.14552803849151
H        -1.36187983088784    5.79785591729929    9.98774503387551
C        -0.13366696129069    7.36754716834164   10.77922117075898
H        -0.96433430097125    7.97686793679262   11.10018237766517
C         1.17245432104014    7.78590879941834   10.99199833530949
H         1.36643016184962    8.73519880085100   11.46816360682230
C         2.22403091289492    6.97632459262923   10.62287981672245
H         3.23482531925344    7.29716271607063   10.83077591910634
C         2.02128409285089    5.73248161628033    9.99560710012498
C         3.21273653943048    4.93362409965609    9.79640936979882
H         4.09062787685947    5.43623789013090   10.19472864345959
C         1.45003456800924    1.42281321631006    5.12289824818601
H         0.87973714672970    0.68512335586435    4.56990313224026
H         2.51169402728534    1.20033028796698    5.11424548613279
H         1.27608146892597    2.42022001855618    4.73136395726452
C         1.32276519123099   -0.29462875157880    7.16997091591751
C         0.34029337752226   -1.26036854105413    7.13254833663032
H        -0.67487572652035   -0.94252410236041    6.94737322215142
C         0.66455040612253   -2.58951101270867    7.34801537951371
H        -0.10474161008008   -3.34589333618033    7.33215238022172
C         1.98641603959636   -2.93508880000522    7.58461580200567
H         2.25232955469508   -3.96868822172049    7.74808344206790
C         2.96778526717299   -1.96415851608138    7.62217515259739
H         3.99072016740198   -2.24808357638386    7.82285696335560
C         2.65955888374423   -0.60885585834790    7.43932708220737
C         3.74898797404026    0.33971984034316    7.56601945990027
H         4.72344009485829   -0.14243867966617    7.53927279807561
C         6.21144150884654    1.66455086725755    7.94548332869255
H         6.35706849922786    1.23202526602746    6.95359420278225
H         6.21330997037029    0.86450975611490    8.68929485343642

