49
CSD_code = ALIQAN | q = 1 | S = 0 | Stoichiometry = C18H22ClN2O3RuS2(1+) | MND = 6
Ru        8.34132820188202    1.18403315575815    2.78006622036166
Cl        7.82917252791650    3.32971320133870    3.47339325710169
S         6.51026018289171    0.37954419710097    3.76402266343329
S         7.37111900261327    1.66462710794144    0.80199237127830
N        10.05046729301925    1.86209123331109    1.99549057763766
N         9.43807175941878    0.81727318169343    4.41333147103142
C        11.13348146412899    1.32374233231880    2.78394219465868
H        12.08305145367478    1.83627614433255    2.59491115820863
H        11.23571924589230    0.25685658649045    2.54577350304724
C        10.71696862066071    1.47481678630163    4.25215267119701
H        11.48160839583777    1.06403056416449    4.91969236539049
H        10.57303887470833    2.54228286111424    4.47230523049272
C         5.58032667520626    1.81138827912869    0.59624229882863
H         5.33638670821401    1.76985666235489   -0.45914297904459
H         5.24884731171583    2.73061431856668    1.06576910151902
H         5.15821974892653    0.94516707046386    1.10140035672873
C         8.00395591645777    3.20185725831354    0.09762626308030
C         7.21789550269874    4.01071528734281   -0.69980195233469
H         6.18205716012177    3.77078127270103   -0.87018986603444
C         7.74752977990663    5.14445076948133   -1.29886017233741
H         7.11676250880159    5.76870062800378   -1.91196256600404
C         9.08248797747096    5.46109621410143   -1.11410798790098
H         9.50407132340514    6.33609354380635   -1.58305099545575
C         9.87682268268032    4.64675719391922   -0.33223479886455
H        10.91826510281009    4.89552202110706   -0.19392620589011
C         9.35886782495719    3.50829594709756    0.30189966470604
C        10.29272220198167    2.76524428382635    1.12570740141221
H        11.33195376323555    3.07241583355151    0.98430039907852
C         5.31741632510164    1.47715819406790    4.57110610383373
H         4.49879658212359    0.88725411291878    4.96724995711380
H         4.95862076959396    2.18658702416186    3.83276097618309
H         5.84911339466891    2.00339300408210    5.35640655641143
C         6.85287570093475   -0.68791518061010    5.16958252359907
C         5.84455825038816   -1.55211327157381    5.55338130281618
H         4.93765694870111   -1.58039191345826    4.96825652775715
C         6.01008378869017   -2.38080369488611    6.65018921880253
H         5.22184626018286   -3.05635764869921    6.94201346051890
C         7.19493344675689   -2.32699716287485    7.37003881942882
H         7.33017204959551   -2.95748870115478    8.23470520255136
C         8.20900530356129   -1.47716439176044    6.97629770292114
H         9.13284764001232   -1.45827691029899    7.53455185964466
C         8.07468616466838   -0.64581935403298    5.85221365176525
C         9.23337288710819    0.13980835124014    5.48133197001914
H        10.04194179651051    0.08480989050891    6.21350247976421
O         8.66539232714056   -0.89725970903019    1.93182229393515
H         8.57375019930918   -0.67677751213497    0.97788377506411
H         7.89200360194457   -1.44376789618213    2.13338515695021
O         5.79472443757870   -0.44568876374910    2.79322417942635
O         7.81824291420210    0.60926759783744   -0.11424536383143

