45
CSD_code = ALIROE | q = 0 | S = 0 | Stoichiometry = C17H21BrCuN5 | MND = 4
Cu        4.18411856230318    3.67022357256323    0.28142876172257
Br        2.38982664134870    5.06345777819263    0.17599899487424
N         5.77811962231137    3.86442674405947   -1.00854776500949
N         6.61724419071099    3.89663904780694    1.93470891122621
N         5.31853845160891    3.58269732399057    1.96503511078788
N         3.48463594766559    2.11903360944811   -2.08604727642456
N         3.58467549624936    1.93053318039901   -0.76646679034652
C         5.58650253668609    3.23824338358381   -2.17603930598841
C         6.60344726861115    2.56373394851193   -2.82794587080531
H         6.41407879786207    2.07619197306438   -3.77188717062838
C         7.87068689287108    2.53975051794018   -2.25944602670242
H         8.68542295738737    2.02900776575390   -2.74843719105202
C         8.06809649266955    3.19937343521535   -1.05310452493740
H         9.04175914475206    3.21554577455418   -0.58749697244775
C         7.00377310157802    3.86353736705632   -0.47077231738637
C         7.14661045899941    4.63762166250797    0.81509000194459
H         8.19218070619664    4.87358136135502    1.01211353797167
H         6.56728216345530    5.56467755568002    0.72078841492723
C         7.22686916442402    3.54791673742669    3.08923581671688
C         6.25381635259272    2.98454623377215    3.88914036689815
H         6.37758866242553    2.59726524337992    4.87949139053007
C         5.06639319487743    3.03399383129604    3.14380741139939
C         3.69837133394858    2.62526155907971    3.54739387623243
H         2.99905999242070    2.86304609724561    2.74956827751904
H         3.40252737847596    3.16437897170142    4.44627602583125
H         3.65531057930372    1.55878536255682    3.76385165892289
C         8.67019064926209    3.77554702933441    3.35528410311496
H         9.28903617382723    3.28175288621832    2.60609834813062
H         8.92291896895872    3.37254970673302    4.33183363128424
H         8.90513916674007    4.84017118632364    3.35125156512901
C         4.17094624359042    3.23680884314275   -2.68999946731458
H         3.67300247414490    4.16640237309172   -2.38671813071295
H         4.13756774683321    3.13347064874729   -3.77429209245464
C         2.72951425133707    1.16473885191242   -2.66479583292733
C         2.32520730395582    0.32209116974503   -1.64785186005708
H         1.70702019834660   -0.54743595219077   -1.73721830547889
C         2.88182541746252    0.84500420393211   -0.47374099362776
C         2.75704446480989    0.32978615586668    0.91306753011822
H         3.65897592376622    0.55981710705327    1.47456631660602
H         2.59464892209397   -0.74533919754565    0.90231690537447
H         1.91036727611937    0.80206820979306    1.41135013355127
C         2.43512960788676    1.12697312279363   -4.11944177929233
H         1.92588606376421    2.03816757169310   -4.43204117441396
H         1.79110879509975    0.27919017680251   -4.33468215694979
H         3.34973426026525    1.02366586840817   -4.70442408585818

