175
CSD_code = ALITEU | q = 0 | S = 0 | Stoichiometry = C86H79F3N5PRu | MND = 6
Ru       -3.17647166383301    5.96133272377062   11.36977963510749
P        -1.26288016691510    5.76506996296747   12.44387490474786
C        -4.38374210481471    3.70146490070066   13.65456134012165
C        -2.82363036246682    3.04980960699204   10.53863363404722
C        -2.14207672025946    3.38432759582802    9.36997327363428
C        -4.31927586637358   11.29169272386176   15.95647288827965
C        -3.89061865686432   10.24069854788494   15.14314259431487
C        -3.41958030449061   10.21257004247385   11.68157272890002
H        -3.77225382927958   11.09394884435555   12.18200330774307
C        -4.86783004064610    2.72535024550288   14.65399591831023
C        -3.12959129332102   11.68902633552387   16.78599216804659
H        -3.34514535623854   12.27211788946765   17.67889851866331
C        -4.72127059030408    9.65274583668617   14.20164870617484
C        -1.70194548150395    2.27081745393928    8.49935408129620
C        -1.66636057462178    6.86099609727462    8.87546163778202
C        -5.04943128267753    6.92063594820751   15.08760907209948
H        -5.36967381058249    7.64417000518950   15.81254396134132
C        -6.43456377919152   11.21722790924225   14.94042152994468
C        -6.00342109337193   10.17269299190311   14.12062061193011
C        -5.07760364541735    5.56983938579119   15.17784008133350
H        -5.43054452775878    4.96523716538099   15.99052439067355
C        -6.21750766399961    2.54651115628727   14.92266656336009
C        -1.80924251075689    8.21544010445202    9.17660443231362
C        -4.47015557165300    7.24138150896918   13.81252370110994
C        -2.57324028339904    1.62780368376513    7.63378035954213
C        -0.39547289919780    1.80743483666814    8.49308779345673
C        -5.80146966524717    0.82308224555297   16.58323748374673
H        -6.15336912271311    0.10533503611341   17.30987736479478
C        -8.17443381617732    1.65483912467642   15.79527183302264
H        -8.69832803992913    1.23415443185050   16.65082314344000
C        -3.82106725747796    3.19201518786308   12.48384824320136
C         0.01336999375706    0.75362557469917    7.67304907117628
C        -1.82558873901344    4.67893667787102    8.96064563777481
C        -2.49720187823069    1.87937529367336   15.42567635625451
H        -1.98192270344922    2.29005044744712   14.56130377564233
C        -3.99883940472111    1.92330840317078   15.38060596777816
C        -2.45782981868768   10.32315776345367   16.97968375504033
H        -3.06456527987140    9.63202016157785   17.56367857269327
H        -1.46080225826226   10.39129085517095   17.41237152253175
C        -6.67219144116951    1.61318324660106   15.85594011697847
C        -1.14244580789422    9.18846602444118    8.28544623375420
C        -2.71513520900176   10.12388473233797   10.52852529173386
H        -2.36929946729982   10.91938688595383    9.89715877977445
C        -4.26474836689353    8.53656792885372   13.34070257053190
C        -3.10643916249579    1.70644394954450   10.96176584788052
H        -2.85722882772652    0.82453855512164   10.40378106279184
C        -3.72429122453614    1.79428370509966   12.16370509494862
H        -4.08691042406739    0.99769196459040   12.78383586721360
C        -8.40115053953340    3.14070900951866   15.48956105576844
H        -8.08035272592590    3.79426109488688   16.29978798045245
H        -9.43051613386915    3.37274243478189   15.21891629899454
C        -7.88138043159242   11.44590192889714   14.59851857183230
H        -8.29867032226710   12.40220198469918   14.90652661288075
C        -1.06070081486015    4.99612489245500    7.78627344135864
H        -0.65856964812972    4.27207828518279    7.10436451379621
C        -5.60176332669510   11.80235313369757   15.87614230998907
H        -5.93423288583633   12.61244702477944   16.50880446193803
C        -2.50770789339580    8.72456210710950   10.27234863504538
C        -0.95106552732512    6.34483737096994    7.74059833657673
H        -0.43797748925113    6.94521684227293    7.01488762643952
C        -7.43977379156141    3.15751550635618   14.29495840897694
H        -7.28756723797056    4.10702829133576   13.78648838425391
C        -3.63763792591247    8.86865067352812   12.14125105021271
C        -4.52183391084049    5.05707420270869   13.95528254439793
C        -8.16587585067876    9.07068174830952   14.22583235866333
H        -7.68042965001522    8.26499562200943   14.77481289050498
H        -8.99836306465148    8.64587089239782   13.66392692613003
C        -1.56119116417480    9.43674623450338    6.98654730964825
C        -2.44836890435967    9.98908540574114   15.48234907186517
H        -2.05392491111688    9.02021917247725   15.18360719147543
C        -3.22761118923072    0.39810195392679   16.95028947366017
H        -3.37471365423332   -0.54393464198129   17.47453129804377
C        -4.45482895645874    1.00311547518081   16.32688793920143
C        -2.27485771303523    0.39647654818118   15.74806313840624
H        -2.60328262182751   -0.26555175200995   14.94739746428883
H        -1.24523681249097    0.16341991228424   16.01517206828607
C        -0.85785074329685    0.12223073911778    6.80448334935295
H        -0.53897311804113   -0.68757372273611    6.16451222293076
C        -0.91229702820026   10.35732851767084    6.16123334323094
C        -2.60829811243685    1.51897916119511   17.81412229134723
H        -3.34512221215616    1.94937568863460   18.49163600385325
H        -1.78504112779785    1.12523945553178   18.41042138495198
C        -2.16011012630215    0.58706116981321    6.80041904457499
C        -1.66868267085994   11.19636603373548   14.91975710879747
H        -0.59624858934680   11.03239814770400   15.02355854803168
H        -1.88659708216737   11.35293823359406   13.86432322848340
C        -0.03335620903589    9.90829089412420    8.70815984040623
C        -2.10802284815947    2.53493776358439   16.76765857510676
H        -1.02773520159773    2.66480854597481   16.82398443069216
H        -2.57408656997878    3.51328353626073   16.87711768067084
C        -8.55127606324912    1.01543986685902   14.44064041831962
H        -9.63120055954018    0.88293265681891   14.37149900058241
H        -8.07897888499157    0.04149814351898   14.31745654084922
C        -7.17817605226287    9.77441600629192   13.27171180629706
H        -6.93770215779346    9.21001173197622   12.37280344155393
C        -4.01822913002931    1.89136568025201    7.31482552197849
H        -4.57666143114844    2.43665522951832    8.07309314873989
C        -7.86301030177739   11.13585350774891   13.09598208567013
H        -7.26033584278858   11.84193002666728   12.52587703631270
H        -8.85844502748684   11.06633564995058   12.65866943882198
C         1.92603309233228    1.92610523403503    8.32271468538025
H         1.89321603521958    2.58357125247564    7.45451471989611
H         2.91684794445636    1.96423788046984    8.77280724702792
C         0.74826300188694    9.85342635362936    9.99094131786338
H         0.22368750830138    9.44941930142207   10.85362774343905
C         1.45685310984563    0.49940228645248    8.00923319432607
H         2.02545186234584   -0.06451805263243    7.27269944969726
C        -3.73894316306436   10.09791886176132    6.14890676179261
H        -3.93973563737302   10.49731618524321    7.14251269722717
H        -4.68427836079327    9.77262102879915    5.71367494781044
C         0.19862675239918   11.06336647887103    6.58393957254370
H         0.70501249593341   11.76842658283725    5.94095153024853
C        -8.04608977560580    2.04649368946942   13.41118617134686
H        -7.29976016512543    1.62945660092848   12.73559532906156
H        -8.86741299535566    2.44166157707228   12.81244231879195
C         0.62549402316461   10.81457024982172    7.87536944714046
C         2.78997825636601   10.11842892703504    8.72313625941786
H         2.98636707737818    9.70816347479093    7.73307606027666
H         3.73926404305306   10.43270390770897    9.15712182838275
C         1.23943610197209   11.30376358693709   10.07563308862138
H         1.99457336106258   11.45848576701230   10.84475601868022
H         0.42793384442626   12.01796707305139   10.21097305729537
C        -1.70092014671941   10.40356826811803    4.88141375994109
H        -1.18538728025210   10.81935680919697    4.01841519143440
C        -2.74179719731268    8.92127175427097    6.21119436978092
H        -3.16878969716966    7.98546401808389    6.56488049982796
C         2.05851689076343    9.11685298386574    9.63946494486024
H         1.85615394835225    8.16812750639846    9.14350780554062
H         2.63177102935922    8.91323663531518   10.54352684696491
C        -8.63909300698610   10.21521994211942   15.14461436805388
H        -8.39546856237377   10.03368885963170   16.19082130116256
H        -9.71582540369717   10.36711674148506   15.06639120588101
C         1.44970713785157   -0.12407986719723    9.42274954069297
H         2.44978548561825   -0.46609419963469    9.68951637034830
H         0.77218527854677   -0.97576231325230    9.47644094410760
C        -3.02466281491159   11.11564473619216    5.23676776148220
H        -2.84088100105996   12.06465883915540    5.73915816573694
H        -3.60309235415308   11.31314356635865    4.33404971974277
C         0.79462612125575    2.20079208030079    9.32139519535287
H         0.75141218571136    3.18705027864280    9.77660700568724
C         0.99757677754238    1.04382252441539   10.32255169253076
H         1.76551409534927    1.30507867528930   11.05013971692726
H         0.07750905301120    0.82388137104084   10.86290546935277
C        -2.14557196419709   12.36518111226520   15.80541732445764
H        -2.63766579985222   13.14830188535194   15.22920090375480
H        -1.31556470000641   12.81395164193987   16.35122084999248
C         1.81242060915418   11.31256348587929    8.65269994298029
H         2.25985996712158   12.23874100257203    8.29820217004264
C        -4.48733862642931    0.47260396994798    6.96991895660765
H        -4.45313514994954   -0.20296108230806    7.82379183435372
H        -5.47853153196216    0.44258336488429    6.51873671014106
C        -2.16940334787395    8.94590797186800    4.78860145880656
H        -1.34759948206026    8.24429978487191    4.65032892867376
H        -2.92159036397943    8.78343365285699    4.01761589037153
C        -4.01677277765845    2.55043993421869    5.91920662311523
H        -3.34396208906320    3.40694998478338    5.88860236546101
H        -5.01867831354341    2.89294424851341    5.65797190452716
C        -3.35612028560496    0.22185607504937    5.96444164020118
H        -3.32239391006854   -0.75284629820954    5.48257999223437
C        -3.55903451764788    1.40568420681784    4.99266069980484
H        -4.32406657282597    1.16341334696230    4.25468282984850
H        -2.63759247624338    1.64526573548944    4.46325288705622
N        -3.27872673185088    3.92099972504070   11.47520378765095
N        -2.17812691872208    5.82735370871701    9.59167133055785
N        -4.15920881594453    6.09357373358300   13.15771427835478
N        -3.09257104034177    7.99569004116789   11.25612585549740
F        -0.30708903420803    6.93164607516503   12.97873094430381
F        -1.19011534056103    4.95804653771722   13.81593911596132
F        -0.05356298400545    4.94970200280680   11.79938097006007
C        -5.81647229879157    5.95412155793700    9.88572563088791
C        -7.06579870424725    5.91150894466666    9.17840361745969
H        -6.88105673114928    5.79284949826887    8.11048743329376
H        -7.61784058320034    6.83675117015826    9.34482496396451
H        -7.66137196028486    5.07033875281955    9.53404925550168
N        -4.81338628682070    5.98916105450019   10.45408930081149

