45
CSD_code = ALIYIF | q = 0 | S = 0 | Stoichiometry = C15H25OPPdS2 | MND = 4
C         0.93261386277625    5.55519628473032    3.22499582033795
C        -0.67145363093047    6.55638354711484    4.64414220725941
H        -0.62605592966408    5.71652807069747    5.34959465920552
H        -1.49610319659935    6.36795899456540    3.94504327190156
C        -0.85683666933292    7.87511009399002    5.37036062109354
H        -0.02827030325282    8.04494710149608    6.05264600360526
H        -1.78538695355719    7.85263266662430    5.93307858788646
H        -0.89076455714091    8.69232686741354    4.65504868606331
C         1.55148977103216    1.41404459979723    2.83252865740523
C         1.06659798300239    0.48048448160488    1.92965736888726
H         0.99214589318499    0.72423732523447    0.87379765039868
C         0.66267724684381   -0.76979793317317    2.37612942305290
H         0.28105455836880   -1.49464875079907    1.67036603787549
C         0.74434452149155   -1.09050765959950    3.71988085132331
H         0.43071772668666   -2.06597258666736    4.06293360823587
C         1.21857423121075   -0.15725741845065    4.62694964131531
H         1.27164921990781   -0.40293304006987    5.67855015800699
C         1.61929135698036    1.09323473973145    4.18439944466833
H         1.97975101717494    1.83562974171284    4.90357518650303
C         4.82449683165965    1.05847493708772    1.95382893676391
H         4.08210237815434    0.26566564812780    1.82730135370784
H         5.66741215561883    0.85776990030933    1.28862447562519
C         5.25672313462921    1.13406992080410    3.41344698508551
H         6.08475774803920    1.82794467773152    3.54189677984271
H         5.56492814120460    0.15747621416555    3.77974464642674
H         4.41746234584839    1.48303895261845    4.01831498643985
C         5.32291591049835    3.90831173887090    1.48219733036009
H         4.89031496659896    4.77984089328766    0.97940812721993
H         5.47936875363274    4.19548538997257    2.52692017775271
C         6.64288116134681    3.51109657382231    0.83462793873753
H         7.14211726070770    2.73047919691148    1.40311731937384
H         7.30476080445842    4.37399116065956    0.79579523401458
H         6.49478712854974    3.15525285760473   -0.18243537662858
C         3.57256865171287    2.40422205157283   -0.30302092855917
H         4.44993400493820    2.55354220945212   -0.93697318567547
H         3.22107258187523    1.37714847731553   -0.43381101897171
C         2.46341371014571    3.39459457406885   -0.66289411570014
H         1.59200074076315    3.24248098115360    0.00608894798672
H         2.13713776710538    3.26007139156868   -1.69270672567410
H         2.81493251131057    4.42121134452350   -0.54125017536956
P         3.99464139982562    2.62824322812928    1.48048062937679
S         2.35942986349997    5.71908626312828    2.35390974802800
S         0.00725488629905    4.14009597855498    3.16422008694733
O         0.54793836356827    6.61918946733810    3.91658249106077
Pd        2.06971064984211    3.29191884521705    2.40900744687980

