83
CSD_code = ALIZUQ | q = 1 | S = 0 | Stoichiometry = C36H39CuN7(1+) | MND = 4
Cu        8.56758878067056   -1.37594701692853    6.35897364961564
C         9.93843919045315   -1.74017932697001    5.00079404442359
N         8.18864933918999    0.95088284061471    8.26731087162696
N         9.63622501137084   -2.09567890724859    3.73389864855723
C         7.28618492751698   -2.81580706925054    6.72704963788818
N         7.49821242467115   -4.08661026490939    7.12553718433004
N         7.95076592186031    1.47940375261227    6.20303575708254
N        11.27056292633663   -1.55251558426744    5.00759029936263
C        12.05423325872249   -1.14364750991691    6.15019406702536
H        12.90406107222302   -1.82287546119105    6.26064337855666
H        11.40970123163459   -1.22257011331618    7.02903628173703
N         6.78810957734288   -0.68876175600822    4.16473530571410
C         8.28157904798813    0.45333332615566    7.01911877575407
N         5.97370116440700   -2.75589488247990    6.41590114514893
C         7.79375621069574    2.26102322609612    8.23854936633733
H         7.65809102473929    2.84021251897760    9.12764220473700
C         6.34041567073028   -4.81337960272290    7.05832072453158
H         6.28913096952987   -5.84493927938440    7.33953258658772
C         8.42341594701247    0.20998915309530    9.48580412721919
H         9.07672403175686    0.79585841126513   10.13844764831303
H         8.92596647265253   -0.72008351120267    9.20922029446892
C         7.11342194407992   -0.08587739798570   10.17517635641275
C         9.67175491949959   -4.84045612524499    6.28812194188618
C         7.93597157904524    1.42324113706200    4.76549319182627
H         8.80988923177966    0.85646243909724    4.43446861163638
H         8.00746813900368    2.44474072328681    4.38605947444737
C        10.76600839048070   -2.11802348347502    2.96010695865382
H        10.74858332326411   -2.37690658187609    1.92189164546828
C         5.37773284284675   -3.97448750960887    6.60918120834175
H         4.33709664594302   -4.14349233042620    6.42494438051627
C         8.31822383292258   -2.41328341401570    3.25334742375792
H         7.81761023362448   -3.02295716582480    4.00879808895368
H         8.42553703759215   -2.99639211400511    2.33648694759553
C        13.84480373326937    0.55916856137665    5.62371166306527
H        14.55645578915694   -0.24515407638463    5.50294962868758
C        12.53372506343310    0.27719211044536    5.97784586782458
C         7.64232086913730    2.59471241417351    6.93623420260229
H         7.35496143812543    3.52098634002817    6.48357830434963
C         5.29520639344646   -1.58776202533946    5.92292669587287
H         5.66323415487477   -0.71734523115325    6.47172229429189
H         4.22648095243389   -1.70711874326084    6.11290691206369
C         8.78604029513160   -4.61779552600051    7.49321356810395
H         8.62997749378813   -5.56686373282211    8.01649047873698
H         9.27401591594291   -3.91997814180959    8.17908999531665
C         7.47340252019684   -1.15717766402916    2.97194262766289
H         8.13803160622649   -0.36962660104251    2.61084976789399
H         6.75956262758212   -1.38168555867302    2.16452391586405
C         9.14604411888223   -5.33366315047776    5.10163700971580
H         8.09177991186908   -5.56315610615194    5.03085498354909
C        11.79775347890852   -1.77680508611972    3.76518892518004
H        12.84239250056990   -1.67702234024315    3.55755207650253
C         6.66083390245877    0.75754517593401    4.22024952102669
H         5.83055697179700    1.01477697508004    4.88150913164114
H         6.43581006146798    1.17682905602131    3.22744292179245
C         5.53445036643798   -1.37886791293899    4.41674545349536
H         5.56112151602968   -2.35807392798433    3.93355492106533
H         4.68166588915882   -0.82619947733771    3.99483799990714
C         6.29171448364280   -1.08549695477189    9.67080892042746
H         6.63012391508219   -1.65745069463432    8.81854291569343
C        14.24952272448323    1.87028212157601    5.43658757248944
H        15.27255663539481    2.08256566523363    5.16605066185174
C        11.31991353649651   -5.27635163911151    4.08936079740234
H        11.95995818024031   -5.44753709815155    3.23744047949911
C         5.06570503636261   -1.34467759558933   10.25473619522927
H         4.43428431052273   -2.12659759752977    9.85880471380260
C         6.69307883521533    0.65236639754476   11.27164526383661
H         7.32779674383007    1.42785195096161   11.67614165759532
C         9.96490612003706   -5.54467863881326    4.00621241890492
H         9.54489371437111   -5.93076998386812    3.08935370096880
C        13.34517012110977    2.90603504239759    5.59471021698119
H        13.66205904172114    3.92706876688955    5.44742641283810
C        12.03371679168649    2.62972593547178    5.94575094013027
H        11.32668261928119    3.43599782627446    6.07579623461530
C        11.63149923686225    1.32108573617629    6.13696389993467
H        10.61409254781941    1.09084110739686    6.41861631512916
C         5.46686760386662    0.39021783910537   11.85929821932888
H         5.14884271940646    0.96475858211872   12.71571290972774
C        11.03143223559069   -4.57343555310773    6.36483293731739
H        11.44908831540180   -4.19871405989602    7.28790853280954
C        11.85195145749503   -4.79553015243052    5.27342096762366
H        12.91081273771258   -4.59703285929563    5.34689053694322
C         4.65104830551947   -0.60555059712066   11.35065569028882
H         3.69554213891783   -0.80796999812864   11.80955979388035

