80
CSD_code = ALOBEI | q = 1 | S = 0 | Stoichiometry = C27H45CuN7(1+) | MND = 4
Cu        7.17246886640421    8.34943147061996    3.33593749807423
N         5.97394754877059    8.75357244263649    6.10786223644055
N         6.62093437248719   11.11125668193471    4.07296361248916
N         8.50105489456541   11.16809969858652    3.03070274360507
C         5.59975650872072   10.15299871324664    6.10746924029712
H         6.39413547790140   10.73926154913766    6.57522292767278
H         4.67979102335186   10.32296830933092    6.68483935759799
C         5.38910220181559   10.67621732939923    4.67361452495974
H         4.96696775688690    9.87715742710733    4.06076640152958
H         4.70118505901653   11.52464163417566    4.68874575446053
C         7.49438721652054   10.33718646115148    3.39284357607441
C         8.25586379056044   12.43448766236442    3.49058908623985
H         8.90749647209257   13.26423438835375    3.32753083821584
C         7.07598118851726   12.39882454694370    4.14990990614862
H         6.53426346820943   13.17587116186234    4.64780539609221
C         9.67249903485905   10.76748856944278    2.24326344420592
C        10.55157149012896   11.97523150026731    1.92068687885051
H        10.00238437253256   12.72576800556387    1.35705774862628
H        11.38658275588691   11.64446583538383    1.30919879867786
H        10.95901261521657   12.42512112216096    2.82298675515580
C         9.18141043729069   10.14545265095042    0.93449302091538
H         8.53317354072753    9.30044299405488    1.13938894721837
H        10.02596483904910    9.80454284109820    0.34365343910590
H         8.62463018106581   10.87733051156598    0.35411212391626
C        10.48475231881969    9.75671765502832    3.05710998760719
H        10.83093484687828   10.20840214435205    3.98447534227404
H        11.35083235304790    9.43451054395464    2.48700346561387
H         9.87569026871932    8.88815574577320    3.29379525963871
N         8.80167852054959    7.40429108641695    5.55663588864960
N         9.02022234498891    5.91593187525354    4.01997660661584
C         7.06727093011311    8.41483915616928    6.99571870042660
H         6.96638663070174    7.37399257862086    7.31191507971942
H         7.05699768116661    9.03791771310427    7.90140888353609
C         8.42954112459709    8.58054205482211    6.29514395308211
H         8.37427029522708    9.42274001389102    5.60237153493391
H         9.20538005568740    8.77281468528031    7.03971313523206
C         8.46147159726969    7.12218065613859    4.28014586948792
C         9.68659106026983    5.45663475899274    5.12468969205440
H        10.20925710607828    4.52649270775051    5.16127738468433
C         9.54601260605220    6.38982241221949    6.09290927011052
H         9.91862233446145    6.41240039927238    7.09580686854471
C         8.93563529309822    5.21621258186334    2.73313910212062
C         9.47373595050195    6.14648347744253    1.64411512681442
H         8.91002878540441    7.07294849098954    1.62827316512704
H         9.39180199442974    5.66939921294896    0.67240382428775
H        10.51963523066279    6.37959020368399    1.82929748561985
C         7.47107751274365    4.85671657673342    2.46913184822583
H         7.09691748393051    4.19648510000287    3.24895477193905
H         7.38241045399514    4.34679950123821    1.51466143428551
H         6.86127607583920    5.75625613858631    2.44603078405312
C         9.77179717122591    3.93721567694958    2.75231363457448
H        10.81830886211270    4.15105468012561    2.95652308103378
H         9.71251601791724    3.46808721786279    1.77409014288463
H         9.39718407452115    3.22582623922920    3.48453828766098
N         4.61800424839842    7.03357403376033    3.80077851299164
N         4.50187476582018    7.80000439501417    1.79498958682779
C         4.86250573734030    7.82474004982274    6.12715383439253
H         3.94468840198622    8.35444406507660    5.86148793818224
H         4.71714213415754    7.39297167612266    7.12766778026750
C         5.07240501658298    6.67932766344550    5.11809931856201
H         6.13658767430877    6.44040725361613    5.06595994228108
H         4.51707218661564    5.79631876180481    5.44241262030909
C         5.34005052193224    7.66665729927861    2.85077756874300
C         3.27714053834298    7.26551453851374    2.09458295796830
H         2.45179210259295    7.25086806869941    1.41762896353813
C         3.34781691433161    6.78724908568513    3.35723913361215
H         2.61092135809539    6.29353488513718    3.95589045070843
C         4.86436639599795    8.41403248056686    0.51264243555490
C         5.17746766082786    9.89343037171759    0.75185881232340
H         4.30295586328171   10.40621905013922    1.14701978547886
H         5.46047969793394   10.36683908886514   -0.18340702489569
H         5.99580105678270    9.99498471569234    1.45995444038435
C         3.71714496522065    8.29904701901302   -0.49044285956187
H         3.45195341311789    7.26012628181827   -0.67182999763691
H         4.03613431528497    8.73107703365808   -1.43497545299975
H         2.83802703277224    8.84493308077029   -0.15616759344745
C         6.08687374188244    7.68057742627239   -0.04271669422847
H         6.90601402562922    7.72366545451782    0.66684137338680
H         6.40507544213184    8.13859262998062   -0.97413410525592
H         5.84710269502539    6.63714879899187   -0.23312559488544

