39
CSD_code = ALOBIO | q = 0 | S = 0 | Stoichiometry = C17H14BrN2O4Re | MND = 6
Re        7.73095861474330    5.49704844072745    8.62419940782605
Br        5.41655724787880    5.01311841818339    9.64115050338105
O         9.56007405950412    8.99397124731381    8.78821257554178
O        10.45153335612198    6.22475159532905    7.36183518316786
O         8.95165151579356    4.21193492011898   11.16234661942797
O         7.53630316030549    2.73959228134542    7.23199606096879
N         6.59867711699894    6.53854586777487    7.11107857548360
N         7.44350293486017    7.43678140015740    9.44359056079635
C         6.15513475163807    6.05664732763258    5.95404755062759
H         6.50128375605148    5.06884493232038    5.67785842339628
C         5.29146725506008    6.75397008377142    5.12940225584655
H         4.95882872664443    6.31048880397171    4.20506553688218
C         4.86063656682584    8.01795315568604    5.51499443811096
H         4.18115650533271    8.58264619094464    4.89563640153877
C         5.31728397644831    8.53096106118865    6.71180318384357
H         5.00858211710341    9.50346300566249    7.06250214779597
C         6.18545659093722    7.76568151737280    7.49086823594595
C         6.69213402753358    8.21820699607029    8.76372834503511
H         6.41411143636787    9.20853628372445    9.11785542420094
C         7.94639635907705    7.88814589118754   10.71433618499176
H         7.49873395998465    7.26203969452914   11.49538109464089
H         7.65845001299747    8.93464119667100   10.89241153664506
C         9.44890865068005    7.74901253253200   10.77905542388363
C        10.06138783057717    7.07075649974075   11.81802884996342
H         9.45272227482056    6.63107216366672   12.59394483334870
C        11.43948351363125    6.95051989973483   11.87256233512052
H        11.90260876349114    6.41599056143657   12.68664699060192
C        12.21112615976970    7.51193026594470   10.87396714444864
H        13.28615454427697    7.41810310247791   10.90010759524157
C        11.61899415520496    8.20114626990907    9.82919270834007
H        12.24244717359941    8.62976522092208    9.06139676797385
C        10.23779372836399    8.32806134526187    9.77306778380909
C        10.29807540289080    9.56355569929121    7.73364415227953
H        10.98107624133270   10.33866887336936    8.09487232629900
H         9.56159917412738   10.01559633627186    7.06987109138296
H        10.86117867786838    8.80350696720001    7.18445401122734
C         9.44271757067728    5.94704970361505    7.83393314889456
C         8.55442558934514    4.69134423161119   10.20260648771831
C         7.66988650178085    3.75185001600653    7.74974810356397

