45
CSD_code = ALOBUY | q = 0 | S = 0 | Stoichiometry = C16H18BCl2N7Os | MND = 6
Os        7.36794036593609    2.00366576583497    2.58793439057409
Cl        8.33258594736362    2.07612134843086    4.66650082630275
Cl        6.82089284817954   -0.23158723073849    2.74610303299875
N         9.18948102802990    1.44928998138725    1.74259125833330
N         9.62376541225951    2.07699105962423    0.64033722765729
N         8.01121512938087    3.93701132473962    2.27249672630112
N         8.57613482554728    4.26133334124248    1.10549070264655
N         6.68390521091509    2.00328333974232    0.64413233567884
N         7.40751263791236    2.59838182885206   -0.30825305608335
N         5.65857090151388    2.41356187007999    3.33518593315262
H         5.44384464632869    1.82774860696024    4.14942731598551
C        10.08844628764643    0.53090951582619    2.07268134912556
H         9.94411572320949   -0.09732070489501    2.93045097899207
C        11.13918535987461    0.56171931063711    1.16045110939068
H        12.01471366540716   -0.05317248136758    1.15397006396312
C        10.80048664371852    1.55998691135463    0.26805598588215
H        11.31927491521557    1.92590992570433   -0.59483078631729
C         7.99189658544663    5.02057238933051    3.03858821458119
H         7.58294193202241    4.98673542647568    4.03015123781009
C         8.56168718850518    6.08544700901116    2.34494297906629
H         8.69424967023612    7.09010333233941    2.68795065047066
C         8.92098627584911    5.55567975532137    1.12204896988352
H         9.39472351203813    6.01409626700959    0.27809320745798
C         5.57610368953184    1.53096581952221    0.08748877300079
H         4.84651518663516    1.00240621512378    0.67034336675809
C         5.57907833198111    1.83118397424118   -1.27257159088742
H         4.82931414263597    1.58609905748223   -1.99524750629990
C         6.76351299751913    2.50792377497306   -1.47967713137509
H         7.18079300196818    2.92111877887524   -2.37521876958616
C         4.58524487530206    3.15282373696556    2.97886476687382
C         4.67545933719664    4.11249069473262    1.94883922950691
H         5.62720611579038    4.27151467082688    1.46827792029921
C         3.58084272906229    4.85130316367514    1.56438678325652
H         3.67573641836252    5.57981136057314    0.77312439715543
C         2.35833238320324    4.66302039868469    2.19401377111635
H         1.49647285482434    5.23893990155169    1.89404129478874
C         2.24956866099632    3.73179597804593    3.21560225657414
H         1.29560163507430    3.59118104231730    3.70338897327433
C         3.33014303868162    2.97423789762219    3.62682436424802
C         3.17685538020483    1.96762785448102    4.72554298991753
H         2.14989096398480    1.95206768079176    5.08108770562787
H         3.82458808060038    2.20868112198640    5.56937427204630
H         3.43264978835528    0.96686941673600    4.37606751599755
B         8.78551549399125    3.20050362495970    0.01179551290366
H         9.29981818156106    3.65566594292924   -0.94724954904919

