35
CSD_code = ALOBOU | q = 0 | S = 0 | Stoichiometry = C13H14BrN2O3ReS | MND = 6
Re       -1.61273726115867    6.10934863023269    6.08492143898692
Br       -1.20291021367129    3.57377958733288    5.90209208993851
S         3.26307183858222    8.49656935805883    7.27204812947554
O        -1.97388995036799    9.17383569154867    6.18434662839915
O        -2.40425198756350    5.65850849217725    9.04324151985350
O        -4.47607169111157    5.49968875138660    5.07847340886360
N        -0.72618657621770    6.16284989668478    4.11536848500251
N         0.48126063132377    6.19533295481800    6.46321070020299
C        -1.35197006809087    6.11209169468610    2.94398126145808
H        -2.43265869996441    6.16950498724268    2.97053063031494
C        -0.68424151520681    5.98648127281866    1.73915336383663
H        -1.24440870159711    5.94298373268642    0.81935019792599
C         0.70352943949247    5.91262560823336    1.73886611316367
H         1.25081695238855    5.80964946482219    0.81486315675332
C         1.36536107836526    5.96812812026073    2.94874424572438
H         2.44082485044567    5.91015661922135    3.00814423791238
C         0.62129214378376    6.09015445554446    4.12211530029829
C         1.23382863437914    6.11948372862948    5.42889758080161
H         2.31673613748915    6.05836767378505    5.50384503017588
C         1.10182173112644    6.21371800552438    7.76136753896301
H         2.17772956773807    6.01653479347452    7.67532036947038
H         0.64306720880243    5.42840798358333    8.37151822976017
C         0.88909972036888    7.56698723504596    8.45043150723583
H        -0.18205931702577    7.75503148214990    8.56850441002546
H         1.33777752994217    7.51789777681296    9.44365519074292
C         1.49134463384597    8.71626213234845    7.65265357783188
H         1.38404372054088    9.65991053963582    8.18677519061157
H         1.00331684799822    8.80924112838621    6.68205223456602
C         3.98924108183945    8.87509495573240    8.88913744844272
H         3.67181266747604    9.86608037997939    9.20123165656339
H         5.06597086562110    8.85327296740475    8.75828245131109
H         3.69093348543703    8.12614380230822    9.61683878932776
C        -1.85330074595307    8.03252215728714    6.14652730834033
C        -2.14886976833614    5.86828642465309    7.94697242345575
C        -3.44502427074391    5.78256751550405    5.48333815424920

