34
CSD_code = ALOBUA | q = 0 | S = 0 | Stoichiometry = C12H14BrN2O4Re | MND = 6
Re        2.43047315082399    8.73311802058967    6.08318340416790
Br        1.40378975318933    6.52121257560339    6.79025677453970
O         6.34745623080549    6.01069552240335    4.24683755836740
O         1.10819987624892   10.26586301719883    8.41870916933994
O         4.83117681669328    8.19413690005959    7.96022788390626
O         3.70529120064276   11.23242913612902    4.79974956499787
N         0.68609489808760    8.84736341335320    4.74941638047451
N         2.99557624973536    7.50395539811964    4.14037057353243
C        -0.53754069863095    9.14414710363926    5.18414594534217
H        -0.61998151611842    9.46280812353966    6.21507583799517
C        -1.66269855300624    9.04818184862983    4.38746766438970
H        -2.62986817059744    9.29594836088173    4.79279796461647
C        -1.51801495227505    8.62267277462347    3.07660344440478
H        -2.37245762241840    8.52879706977139    2.42472283696179
C        -0.24853978534503    8.30798007641992    2.62376576674821
H        -0.08782252530636    7.96395787658008    1.61381610688297
C         0.83021425800363    8.43183003651343    3.48690555547723
C         2.23047295678603    8.10211328288689    3.04030022399650
H         2.73438381978966    9.03113189336366    2.73861453013208
H         2.19829094600867    7.43747498611975    2.16503467073438
C         4.36501534629496    7.19923702580846    3.72338142772210
H         4.91832755303257    8.13224049673943    3.58485252220699
H         4.37090873458084    6.65245627693516    2.76997150581616
C         5.08222444304577    6.34113276425937    4.76181531625981
H         5.18372108803979    6.89916387133816    5.70504872928473
H         4.50246222999357    5.42536368592186    4.96844604369209
C         7.13952334896912    5.29619734691588    5.16384189954929
H         7.31793019677868    5.88257612081893    6.07268394816212
H         8.08524057196794    5.09732719612855    4.66497757929369
H         6.66453226458355    4.34823134611312    5.44362912838539
C         1.63281580552573    9.72375489292532    7.55530921284458
C         3.97027697358592    8.41220493162441    7.23557322619733
C         3.22561262720304   10.31081311643830    5.28741461419830
H         2.54981248327833    6.60388351158805    4.36605298939609

