54
CSD_code = ALODEK | q = 0 | S = 0 | Stoichiometry = C25H23MoN3O2 | MND = 8
Mo        8.88670309754437    2.23988001468146   12.35216000080607
N         9.52735532233445    0.68490528591814   11.09799120364527
N         7.17850387397441    1.83876599659141   11.20670516500530
N         8.16965078995966    0.65813074231013   13.41736749664341
H         7.76182846260058   -0.12205874205366   12.89128751255170
C         8.07097181867872    3.51205507450125   13.57568181791771
O         7.58077365544087    4.29704146581115   14.25961139305492
C        10.47847664767419    2.32913054030790   13.46548870356246
O        11.44864822314724    2.39530203165080   14.08029984740190
C         8.56969157378708    4.39137263394830   11.39766819913181
H         7.63068590927771    4.66134945746587   10.92060963972205
H         8.97514732847717    5.18346280830005   12.02068617910693
C         9.48318928240161    3.62475536525103   10.64585690520914
C        10.70257677136768    3.33920206176486   11.29273567755458
H        11.13329924346345    4.11840336358902   11.91514391489537
H        11.44781663532336    2.77956156781144   10.73259846486759
C         9.22240289499963    3.23723967912251    9.21494005891835
H         8.15840226822261    3.10999208661308    9.01130046552830
H         9.75095867701543    2.32532811023466    8.93404465983474
H         9.58669034474258    4.04018500892124    8.56873822233098
C        10.70026633085450    0.06440830834783   11.10698232011824
H        11.43981149070314    0.45216561999279   11.79503677067038
C        10.99926564537803   -1.02586908655080   10.29881706998499
H        11.97701127721361   -1.47745704545209   10.35807689022946
C        10.04680826872419   -1.51705130666405    9.42525593144720
H        10.25630037940425   -2.35445751948672    8.77715222055224
C         8.78604527048248   -0.91108134400605    9.40688313303228
C         7.70965678896625   -1.34526846454582    8.57967769279174
H         7.88706528359545   -2.17671403181094    7.91335919271626
C         6.49517537612371   -0.74716353413455    8.63426877454740
H         5.68146594748838   -1.09041725365284    8.01231871595103
C         6.24458545443004    0.33997504818497    9.52138243021716
C         5.00096933790235    0.96742975808038    9.65082304339704
H         4.16492917397852    0.64583658670925    9.04855539733069
C         4.87417529487256    1.98985580799878   10.57309643497496
H         3.92777518035293    2.48696451990246   10.71697914602142
C         5.97543153386503    2.38815996467904   11.32082249762393
H         5.88180496617175    3.18488241853475   12.04684106273313
C         7.30392041422578    0.81091342167283   10.33247753003835
C         8.57396013479092    0.18641499886048   10.27439626287524
C         8.13844513402338    0.34087580988711   14.74303969159516
C         8.60345792177448    1.21688072391107   15.73412461953377
H         8.99207151403106    2.18099582263159   15.44261757974671
C         8.56858034520002    0.86183944840631   17.06537741487843
H         8.93675595706377    1.55912183744566   17.80519078939772
C         8.07398302245652   -0.37000736494995   17.48135050255600
C         7.60504284175307   -1.24175666302719   16.50731372298095
H         7.21239209485968   -2.20689395741821   16.79873895108499
C         7.63421732226280   -0.89871260482510   15.17238256529548
H         7.26468660056345   -1.59922221277456   14.43124606628417
C         8.02503846406273   -0.73382443791329   18.93586227839255
H         8.82796994668916   -0.24485592554172   19.48322156140227
H         8.11265445736938   -1.81016501065934   19.06978318048294
H         7.07740800793422   -0.41630688457957   19.37423303143106

