70
CSD_code = ALOFIR | q = 0 | S = 0 | Stoichiometry = C32H34CoN3 | MND = 4
Co        4.95505164848629    8.49330058360844   11.39626233909082
N         4.25361579235838    9.42326922582106   10.06154513686955
N         3.90730369244677    7.11546315721224   10.67895073831834
N         5.83301355572198   10.10387734143713   11.75847187007637
C         6.21174211363163    7.34111261765599   12.25897241700665
C         6.14253354686164    7.24493118746156   13.65135425566225
H         5.45997209062609    7.87241648714659   14.21488096112737
C         7.14435197015908    6.52074166802315   11.62783717670236
H         7.26113303104501    6.56099069194273   10.55076442189912
C         6.93751042723109    6.36434720286499   14.36141147643912
H         6.85044414234624    6.31617224946968   15.43954399466292
C         7.85058718214614    5.54359689194430   13.71392879232712
C         7.94661751268266    5.64047908529246   12.33561603186203
H         8.65696556878500    5.01963580120198   11.80364597669511
C         8.70832247664247    4.59286376938702   14.49743247977740
H         9.32919214171489    3.99338757560327   13.83540968995493
H         8.08870014273648    3.92327715542569   15.09354966456068
H         9.35878353957510    5.14042359735432   15.17994883242254
C         3.54539544202897    8.75077028790633    9.11485407682726
C         3.23009640384634    9.35830040758212    7.90408407101410
H         2.65035010417296    8.83046887962638    7.16321908858409
C         3.69215698139023   10.64563758284877    7.65808248592328
H         3.45046330697511   11.13499190075208    6.72679710220690
C         4.50094395601293   11.28733748705221    8.58803100590998
H         4.91121997881792   12.26309133116508    8.38035620709161
C         4.78878514917632   10.64315580066711    9.78676900903712
C         5.63971943528344   11.04856185252623   10.86824887066919
C         3.26813231857897    7.41933406016210    9.57414742470616
C         2.30977967786831    6.51549524622856    8.86644180063468
H         2.08095111936658    5.64532950918257    9.47718071862412
H         2.73328613005839    6.17788484275877    7.92041595913838
H         1.38774487487020    7.05223669217044    8.64689610492894
C         6.21664134869167   12.42622768079476   10.95329686229725
H         5.42047383266091   13.16863247182816   10.90378070396590
H         6.88930686881673   12.60486271711491   10.11427142961522
H         6.76854254692117   12.55755642253379   11.88103302630486
C         6.58864643646460   10.35426962048097   12.92089459772727
C         7.97798294788600   10.18952697508862   12.90857298671181
C         8.68128522960706   10.37513283938393   14.08809881672404
H         9.75338586267209   10.24198799542582   14.08818473486696
C         8.03026823571010   10.72224148715154   15.25798874321576
H         8.59258672397051   10.86058749471474   16.16942998664707
C         6.65757309585681   10.88809035762525   15.25953989312834
H         6.14671927477847   11.15797805993564   16.17283987070953
C         5.92201385994974   10.70872893814823   14.09859116033124
C         4.43398938250741   10.89213252477930   14.08486200548369
H         4.17243893020591   11.86270427330981   13.66085266289489
H         4.02732869957908   10.83616382062714   15.09162829802599
H         3.96530135773572   10.12450411058308   13.46366948714777
C         3.76866384992308    5.86336710514278   11.30025207781984
C         4.32822575142952    4.70586034416872   10.74953713050613
C         4.22596420115509    3.51548397062544   11.45595668021925
H         4.66368207184760    2.62087718714473   11.03681824416691
C         3.58563262944234    3.46082477713359   12.67854981961697
H         3.51876705726223    2.52553824725137   13.21392244122954
C         3.04082438802257    4.61177237960865   13.22030508969695
H         2.54738464006584    4.57588827966006   14.18082962520817
C         3.12615798580008    5.81641248323143   12.54558282323188
C         2.54983117576942    7.07531690070769   13.11499634184856
H         3.26694413650061    7.89735438123559   12.97205355042294
H         2.33896772232995    6.96283911263805   14.17525827035283
H         1.62718995742816    7.34728192943546   12.60031705402850
C         5.05025358728610    4.72555668930205    9.43482246240846
H         5.94563971578637    4.11084668293575    9.49644649440274
H         5.33912992897982    5.73682550416777    9.16100531799947
H         4.41836121181740    4.31813435200005    8.64433152297325
C         8.67448968442442    9.81113834195465   11.63916844459179
H         8.16366043809190    8.96555267974121   11.17977591425326
H         9.70771406646320    9.53819897862999   11.83593150420107
H         8.66266571265896   10.63811971447642   10.92875374425948

