54
CSD_code = ALOGUF | q = 1 | S = 0 | Stoichiometry = C17H30AuCl2N2O2(1+) | MND = 4
Au        4.98542926677395    1.63689565457035    1.80682327893688
C        -0.06779555556822    5.53604532290970   -0.31003902630012
H         0.06984225875427    5.69245893508113   -1.37702046346651
H         0.01341416027717    6.49705513889934    0.18944925345222
H        -1.07052469178540    5.14839849388459   -0.14640707711891
C         0.97741868322144    4.56757390233719    0.23017870971845
H         1.97446957695020    4.97971645886095    0.06635646197418
H         0.83652583582337    4.45932065881701    1.30709815865994
C         0.87357414019318    3.20679953774953   -0.45678162654539
H         0.92548485482380    3.35927814198800   -1.53605899439053
H        -0.09818936787552    2.76038681349565   -0.23592018260635
C         1.99523049233818    2.24116597894085   -0.06843935986006
H         2.95625363070466    2.74223837782589   -0.20226508835835
H         1.97516031796990    1.36404185435448   -0.72099660329438
C         1.89647823445220    1.77962475201485    1.38588360676207
H         1.86834812934038    2.65287166718031    2.04106456931896
C         0.74499016845081    0.78925814603028    1.65300023774856
H         0.09077280263940    1.08733790619819    2.47467764641434
H         0.14368672043762    0.58731098882301    0.76367506402053
C         2.68777313577979   -0.21666055030790    2.06041500715692
C         3.58588681359206   -1.34131189443183    2.49699187904691
C         2.87959116525399   -2.68833447551787    2.31008901880180
H         1.95666239791652   -2.70445288979539    2.88196456378469
H         3.52131887866179   -3.49358245923557    2.65486672144599
H         2.64060388564072   -2.86070096751978    1.26396658648085
C         3.91517914032999   -1.11896644793812    3.99102411736416
H         4.41756439159554   -0.16537878843548    4.14458011112235
H         4.55920073035245   -1.91980619103006    4.34567539689174
H         2.99692381376566   -1.13343503391696    4.57276790468989
C         4.88717878079557   -1.32432043662986    1.74277021672386
C         6.69157778745807   -2.20900499503132    0.78680988579465
H         7.48279505330514   -2.66401227587298    1.38542883232037
H         6.66217085704430   -2.68215712891282   -0.19739876196643
C         6.77774851604830   -0.67073481781775    0.70868655936893
H         7.62752548949074   -0.26613547434986    1.26557313969167
C         6.80869591205999   -0.11884247885023   -0.71529419290301
H         6.60772275573438    0.95362691809405   -0.67285361516973
H         6.02000392544451   -0.58783004011669   -1.30941551687339
C         8.17010338087208   -0.34215829975623   -1.37330235418576
H         8.93906984918655    0.14702323932549   -0.77332958136129
H         8.39958506369527   -1.40932628277234   -1.40448694073708
C         8.20677352473873    0.22348092595019   -2.79233095466190
H         7.97968202369982    1.29059582386201   -2.75924942272317
H         7.43894945078842   -0.26269962493931   -3.39811892201901
C         9.57006075122746    0.01592607631953   -3.43910700642741
H        10.34607798359413    0.51049496209351   -2.86053713812489
H         9.57793968154171    0.42744289944230   -4.44435131441289
H         9.80936393241420   -1.04298852662705   -3.50049883580755
Cl        4.34686151229753    3.71172075269596    2.29324576208051
Cl        7.09652776964131    2.32999476762140    1.91773311615624
N         3.06558745405045    0.97508429956475    1.75260929720540
N         5.55004745497314   -0.27339140778941    1.40554923855447
O         1.40375821840316   -0.43314746379024    2.02887323592339
O         5.43521886068492   -2.46589044354506    1.43847540170258

