45
CSD_code = ALOGAK | q = 0 | S = 0 | Stoichiometry = C18H19BrFeN2O4 | MND = 6
Br        8.90843785539582    5.45574702855886    3.91893152397932
C         7.14822740953136    3.16794599386101    4.59930867405645
C         7.96045319468522    2.03788667379784    4.67746437530925
C         8.00178735763062    1.27574928455652    5.84101676658502
H         8.63632284374938    0.40438015337906    5.90386275696468
C         7.22023184988467    1.66436831338125    6.92118160197390
H         7.24819302589203    1.07752691298610    7.82714970860737
C         6.41734367432575    2.79653338169324    6.87496456540869
H         5.83310491564897    3.09442858014530    7.73274211109886
C         6.38823732242327    3.54807825118113    5.70416449350425
C         8.67518657673234    1.90567160146206    3.43378636341807
C         9.25946890431936    2.47602077492336    1.34349411320606
C        10.03803951164310    1.22183113614650    1.82526724191026
H         9.86291657419221    0.34709967146853    1.19435794479392
H        11.11336719613579    1.40557572103842    1.90066778065245
C        10.19058013354275    3.63596085458699    0.99919599327405
H         9.60571957803826    4.50877836477950    0.72109383389090
H        10.83480913319548    3.36314853616244    0.16728403037345
H        10.80225127419840    3.90329492585675    1.85783228794512
C         8.33023023811086    2.15429518364417    0.17192032449553
H         7.66225893552169    1.33423630229419    0.42892625019768
H         8.91308881677952    1.87900614371840   -0.70312950584077
H         7.72540739122129    3.02532591986877   -0.06667817470743
C         5.69697858803508    4.76989235017208    5.38104615281692
C         5.09854354675032    6.49388336722787    4.07490364866214
C         4.05223578625078    6.30742376570949    2.97513576992592
H         4.54720813828350    6.13351172354917    2.02327616671168
H         3.43327614401746    7.19703220743924    2.89335806174819
H         3.41841387291746    5.44976867496574    3.19275487118406
C         6.00495260026767    7.68411669092749    3.76968284117389
H         6.78516810257204    7.77351653536827    4.52213601685189
H         5.42138387055470    8.60078023645885    3.74339545833728
H         6.48598807711680    7.54399478710705    2.80516551786746
C         4.44781712326875    6.59814439376242    5.48102581752248
H         4.79360808007970    7.47593192117701    6.03378032687228
H         3.35575429159303    6.60108917972362    5.44206394509303
C         5.85300587487960    3.20657256967121    2.56411127648445
C         7.07758904877789    5.17113056224946    1.54430729002213
Fe        7.15457507106927    4.23043539262825    3.04606278636338
N         8.45807995892016    2.79784382633373    2.52100202624633
N         5.88945123586683    5.27312341464303    4.20377519970778
O         9.53933218186555    0.94075969344714    3.13236910153284
O         4.86953626411480    5.43100111734101    6.18535925195803
O         4.99293757211722    2.50152201348070    2.28853816702233
O         6.92810085788365    5.69983586712736    0.53784524479809

