143
CSD_code = ALOJOC | q = 0 | S = 0 | Stoichiometry = C72H66N4Zn | MND = 4
Zn        4.39811710864072    5.05660815401247   13.32628820173689
N         3.10339352877570    3.60121358991189   13.40493698471534
N         3.66795006944134    6.83379967935070   13.59794589799681
N         5.57658070777551    4.25201903408193   14.63888830765781
N         5.24586954010336    5.50861449604334   11.62848115854529
C         2.73915128623692    8.86616084837528   13.13568248514117
C         1.86404238580971    3.57451847919125   12.89305269149360
C         3.37915677896399    2.35331582472234   13.91794857259588
C         6.10955633360372    4.77086807396986   10.91526690206251
C         4.91112307066302    6.61417993078802   10.87780513614407
C         4.11238914617197    7.66811008037298   11.34085056202944
C         6.32915927056435    5.37294940195380    9.65393461670018
C         3.27126018283426    4.97278783129149   18.46899238446197
C         1.31155098916320    2.28047908099497   13.03912855857071
C         7.94801641842019    6.91106475744052   15.48577536510927
C         5.58783071526319    2.91441937474670   14.95721691689624
C         6.67785875997567    4.81809170631681   15.15590014997956
C         2.40546349072685    6.05029525820955   18.25650700056727
C         2.43794971408402    8.52749220960033   14.43291578937299
C         8.39484106062390    1.75385706434491   11.35070151313032
C         2.39736372957997    6.82266122809521   17.03247215946499
C         1.52299666206102    6.39751269476398   19.28477334731001
C         3.91102975230705    8.80875856825646   10.41486707625753
C         5.62453453666212   -0.01622008338585   12.89209014244056
C         8.69422505091285    1.67865588003816   12.71491941219698
C         5.57388016251625    7.44109989320704    8.43364367820203
C         2.85776641176364    8.79275232810605    9.50166517496840
C        -0.00886473966388    4.80281719198268   11.87440176419202
C         2.24253551584684    1.50004578114728   13.67470920150545
C         8.13026924705611    8.34214219964474   15.35688760687496
C         4.25475948028183    0.33161221315356   16.41093485211785
C         5.19797767279968   -0.35262883938796   14.28800686764722
C        -0.69355052404434    6.01663145222909   11.47509701585065
C        -1.71127551747423    5.95726717322916   10.51934964600754
C         7.09173338124202    9.20592982007308   14.99412090301377
C         3.02044823875013    6.48723527303667   15.88863106702466
C         5.93017876497889    9.89090098924615   11.43598479370031
C         3.24364362729697    4.27042702769741   19.65683729877769
C         3.53051665324469    7.78307057558957   12.61252702283550
C         6.76010005560827    3.62137148662380   11.46061347013105
C         7.63326351586166    2.85047067236202   10.78740949813513
C         2.68270165041354    9.87865496910481    8.65526852892017
C         6.89636206929938    6.22116436310517   15.01053284087669
C        -2.37542881414298    7.09937306782320   10.11795191086079
C         1.23131269454836    4.75353608788178   12.39245550872690
C         5.58912851659336    6.52564880821614    9.60822437218263
C         4.78883305412690    9.89417524675210   10.46368281885802
C        -0.38786333294897    7.25904363541309   12.03993943298816
C         2.01446319803617    0.06993139866039   14.02172196539641
C         5.32119031465397   -1.64239466418022   14.77945168260169
C         4.54852204604268    2.03313996575320   14.62146505337206
C         4.92162963984061   -1.96814915021937   16.06892181331337
C         2.28036284518298   10.12237847269419   12.48126565750064
C         4.58888075661931   10.95972327286244    9.60075971139927
C         9.88694538716085   -0.37747172141104   12.37277468174637
C         7.29886401556488    1.35168310577956   16.25186879105235
C         6.78849338382165    2.63829061265434   15.70266749174904
C         4.67219746370567    0.64064732181047   15.11620537633591
C         7.30981606984242   10.56457437874513   14.88613717736812
C         3.53711022689228   10.96937180203390    8.69350181830983
C         9.60643647540033   -0.31158413936443   11.01734422773456
C         3.02400710550282    7.26710909012728   14.69294240237187
C        -2.05334826950854    8.32528873223703   10.67810810889345
C         9.43533454575411    0.62569112155168   13.21529362159625
C         2.35413755701192    4.62036980580381   20.66059646908078
C         7.45020080908347    3.83727615979830   15.82012229002496
C         8.87846359242185    0.74661948226664   10.51096518777691
C         8.56510053152557   11.09704037554656   15.13493811313717
C         1.93394653214596    7.61472714837747    9.44470139792289
C         3.67508123492816    1.40073178881541   17.28799063394981
C         9.38618044552526    8.89806067388738   15.61982042750058
C         1.49363859711578    5.68911914869919   20.46915442716114
C         4.38474259925808   -0.97174928455019   16.86927877409991
C        -1.06470872036752    8.39722430869055   11.64627791055266
C         3.34583203923680   12.13970784610098    7.77677216421040
C         9.60266242752833   10.25671455529807   15.50450482612684
C         5.06224291802705   -3.37447146009696   16.56789703631648
H         6.97089957158220    5.00060927974820    8.87896893571650
H         3.98111193357506    4.69676406578340   17.70423041645839
H         0.33472146568675    1.97129668344085   12.72079025477215
H         8.74458811040884    6.38302986996153   15.99416817356551
H         1.86077637872373    9.11062807094754   15.12456730363692
H         1.81873611368754    7.73694286676551   17.06762360820118
H         0.84972278334445    7.23131301443433   19.14172650866143
H         4.81970843742613    0.47885007572907   12.35014312695725
H         5.91826200015403   -0.91111943649652   12.34839733038837
H         6.47308195113564    0.66631393305137   12.90834041699665
H         8.36520057632711    2.46438566380996   13.37885395083722
H         4.56971547817934    7.56543923415884    8.03390514389389
H         6.20774565671740    7.02349581135925    7.65321457098926
H         5.94996096278257    8.42929012161258    8.69149000784312
H        -0.55909617848321    3.88413903486518   11.71896881500672
H        -1.96776565586633    5.00278591402329   10.08145568415478
H         6.10237191059027    8.81144495596360   14.81763630143470
H         3.57413249113735    5.55973488651795   15.81837186553188
H         6.52869364496526   10.79344681061199   11.33793488457122
H         6.57261762774962    9.02622090726142   11.27134760541710
H         5.56190941469764    9.82646873569821   12.45859243312424
H         3.92417466361447    3.44488164530404   19.80798379358389
H         6.53371145468683    3.40699234248563   12.49526149950759
H         7.79460342790254    3.03052980298202    9.73270571695175
H         1.86264865931585    9.86856465588432    7.95069831470249
H         6.11680858064346    6.73448991405872   14.46270438578803
H        -3.15244621024289    7.03521658523779    9.36983832516937
H         1.81351414169739    5.65988216664474   12.47931403724847
H         0.36556681555716    7.32545481611687   12.81080568683647
H         2.74570148489797   -0.58010972285660   13.54546560750208
H         1.02110943737148   -0.22108300666742   13.68450523254826
H         2.07715416742800   -0.09564245363703   15.09553689655470
H         5.73492725242549   -2.41271306130976   14.14348328746122
H         1.62991765702743   10.66285503306145   13.16719227824146
H         1.73092083070906    9.91591013342235   11.56498688961192
H         3.11846225875384   10.76736079120869   12.22287902221754
H         5.26603959228256   11.80218906749859    9.63324290323523
H        10.46348278668493   -1.20045874992905   12.76865961528696
H         7.33243718708304    0.57824789075837   15.48737531685946
H         6.67018891853350    0.98508124137191   17.06172556308183
H         8.30346823556717    1.50593459524017   16.64259582436365
H         6.49405802291207   11.21860012456190   14.61252994002183
H         9.96334999976898   -1.08601214910694   10.35362443086693
H        -2.57734026934447    9.21787171631338   10.36965310885311
H         9.66768419330529    0.58785841186312   14.26949221294734
H         2.33606011236311    4.06736782330967   21.58815141141252
H         8.38479477964995    4.00236054162019   16.32112600618861
H         8.66420838420714    0.79562059116871    9.45252030620202
H         8.73132218897573   12.16072316515911   15.04872178305731
H         1.38568838178162    7.51457441623118   10.38041540986072
H         2.49343291567691    6.69173660765823    9.29691593479875
H         1.21311416787073    7.72280669609060    8.63764262953002
H         2.85154691497458    1.90815583320536   16.78681040492218
H         4.42878177586085    2.15391952954665   17.51493623582020
H         3.31024352379052    0.98135373139481   18.22263131725856
H        10.19998886284679    8.24779426304265   15.90929880144140
H         0.80051040702435    5.97122183510311   21.24865042258308
H         4.06026314589204   -1.21215147690383   17.87239884956907
H        -0.82206405073982    9.34727253068464   12.09942950820346
H         3.19157019912802   13.05167618979386    8.35249017776755
H         2.48707273185485   11.98997518565834    7.12743953321239
H         4.22972694067486   12.28448884668846    7.15658262675826
H        10.58253909564260   10.66499555945422   15.70646794752192
H         4.42725831680768   -4.04554639132736   15.98997702807162
H         4.77868721071677   -3.44748957756634   17.61475969757668
H         6.09075219066145   -3.71589291820393   16.45968089572641

