45
CSD_code = ALOJAM | q = 0 | S = 0 | Stoichiometry = C15H24NO4V | MND = 5
V         4.24709575029243   10.94094446379648    6.68443316012140
N         2.72826135868618   13.01478961762496    6.44483516001205
O         2.87481180602592   10.28223148448583    6.77284570136738
C         3.56769226270228   13.96899827903675    7.14521758753137
H         2.99343693698238   14.80552399303135    7.56085013584700
H         4.29639555893334   14.37338668861862    6.43655615868786
O         4.65587311591899   11.98740070377125    7.89121821645495
O         5.33397101591460    9.69378365545399    6.84675634693416
C         1.34257924328645   12.89072004260633    6.94185500842910
H         0.91742986370211   12.05923465571063    6.36750933266347
C         4.37115595433255   13.26590271745443    8.28634612339043
H         3.76581486031050   13.23732862813283    9.20932578458408
C         4.11333650804928   12.61356184928524    4.41614087493081
H         4.84946031474096   13.44334378462523    4.38292734799702
C         1.28562832508031   12.45887949795601    8.40371403080976
H         0.25839355508418   12.20063240304767    8.65215056254763
H         1.61326741090765   13.23717176924912    9.08646890576901
H         1.91365589732595   11.57476065620076    8.52301321941777
C         0.52525200096206   14.13841966936694    6.65590282741271
O         4.61144163994740   11.63566532754944    5.23270003285003
C        -0.21213980313339   14.21056050835283    5.47678793962157
H        -0.23250602750116   13.35955693235593    4.81126517573981
C         5.66270978925667   14.04272654636382    8.57785076956948
H         6.18961150840519   13.58391164835528    9.41187717770119
H         5.43554101015804   15.07616450231826    8.82769339098524
H         6.30925088100043   14.01716310246895    7.70137206343566
C        -0.22452141035827   16.37401174396657    7.18267661268498
H        -0.23205685018525   17.21435822051462    7.86177835341594
C         3.89713701936957   12.09282597178861    2.98995944165595
H         4.85134029096149   11.82097693799393    2.54359785050188
H         3.41922724286417   12.85119481864235    2.37497860865020
H         3.26805856570323   11.20452319137159    3.03533750201596
C         0.49408881812911   15.23604580155784    7.51004898827012
H         1.01368031710041   15.21083859795825    8.45616789821661
C        -0.93568870102416   16.43598178845501    5.99816197081576
H        -1.49649553316359   17.32334699774502    5.74490398447688
C         2.76866442565324   13.12948091041996    4.99768031006134
H         2.59208729538689   14.16072381989347    4.64908224472750
H         1.98465616451076   12.47970949603470    4.60285375316760
C        -0.93419857443611   15.34328434829169    5.14833225719483
H        -1.50029822523451   15.37163033879754    4.22878012015335
C         6.69929512196310    9.80576196341373    6.83399222743605
H         7.16742257084203    8.81931223674452    6.97315945830030
H         7.03421634423838   10.47525078252270    7.64490242856003
H         7.03926438030865   10.22677890667017    5.87269295488404

