84
CSD_code = ALUBAL | q = 1 | S = 0 | Stoichiometry = C42H36Cl2NNiP2(1+) | MND = 4
C         1.16618976533113    3.75630936573609   15.68730693067666
C         0.43165481235300    3.16529717802851   16.73505643468271
H        -0.60646403633546    2.89799471348669   16.59561683033592
C         1.00511586286579    2.88513095455477   17.95116850718845
C         3.02169770140604    3.79728057854880   17.25211136678959
H         4.04442886604321    4.03442685214044   17.50532347036145
C         2.50350057067040    4.08643966610273   16.02359700706497
H         3.14545621105456    4.56600608943975   15.29654092157348
C         2.89340656864129    2.84409410313868   19.48152563742356
H         3.93050893924990    3.16915617762734   19.49982131359044
H         2.85344042505683    1.76455677823711   19.63263737828122
H         2.35212975226574    3.32661151922061   20.29626895753130
C        -0.75526958589549    6.46957136300165   15.98221484196973
C        -2.01782304663292    6.72653619045687   16.50117901669162
H        -2.89714425743351    6.57791588357514   15.89188163372948
C        -2.15205905665548    7.19377483711921   17.79819815686036
H        -3.13613121668573    7.39797725480329   18.19229061666342
C        -1.03343359342346    7.40500184039892   18.58530895965049
H        -1.14335274682831    7.77021930551499   19.59488068835564
C         0.22997160415765    7.15742153514412   18.06978946024757
H         1.10658023955630    7.33742718616139   18.67485334719617
C         0.36731670410028    6.69118576846566   16.77771631289373
H         1.35129648719090    6.51135525751040   16.36347634240099
C        -2.04876796780268    6.03725961176863   13.45371864957732
C        -3.08295202308828    5.18025338514469   13.82638081713162
H        -2.91445963992842    4.45281594762235   14.61190489159966
C        -4.30778666190314    5.25400268060633   13.19254757122928
H        -5.10876737576035    4.59104055112434   13.48422520431285
C        -4.50348406003674    6.17597001537785   12.17598335232723
H        -5.45886838001456    6.23209702463352   11.67722297929636
C        -3.47051796102782    7.01342007657298   11.78986611009892
H        -3.61937779813886    7.71931535830177   10.98694505792929
C        -2.23981464596656    6.94421190368645   12.41971702375945
H        -1.42916753094506    7.58191130439131   12.09933736495524
C         0.68303868147226    7.08758831869497   13.66172711789514
C         1.88869230390614    6.66691169054977   13.11185121054381
H         2.09496826759220    5.59563252698515   13.04837857767293
C         2.79919605262939    7.59535879895618   12.64252926865999
H         3.73261820504941    7.26986618183138   12.20807135337333
C         2.50676730550904    8.94715860907351   12.72876502880738
H         3.21226955198870    9.67475278417667   12.35768994340901
C         1.31311683823295    9.37061712775193   13.29402399131743
H         1.09470586314310   10.42535407600936   13.36544941581816
C         0.40056405669924    8.44620356141685   13.76791335802238
H        -0.52684607858855    8.76969829532125   14.22074733623523
C         1.78239262619934    0.90796078121068   14.83632804593671
C         0.91316550949674    0.12095467297480   15.58334295138583
H        -0.11332772641878    0.00443800405469   15.26552122089178
C         1.36372261243798   -0.52674724992087   16.72050688623499
H         0.68676490115688   -1.14827046565828   17.28729090200323
C         2.67950787747100   -0.38404934349825   17.12832800598112
H         3.02985772371181   -0.89557093846282   18.01242410819200
C         3.55069741787231    0.40292681386279   16.39023837491300
H         4.58087687695045    0.50536290818751   16.69860401993425
C         3.10377340300132    1.04999673524312   15.25418026884709
H         3.78067512572523    1.66020791055498   14.67053880777667
C        -0.32356303588967    1.07247972286141   12.92397546288334
C        -0.35364198632232   -0.00816835967073   12.05385698304561
H         0.56020218785700   -0.38111096885160   11.61522435981736
C        -1.56885636645097   -0.59153436905919   11.73598879721769
H        -1.59683657203383   -1.42801308896529   11.05430254796600
C        -2.74538322304469   -0.10246245080414   12.27895336242544
H        -3.68821061480755   -0.55939444583760   12.02002026242572
C        -2.71783270402257    0.98239432557146   13.14260507606879
H        -3.63726630325701    1.37191738743451   13.55363404666610
C        -1.50939431406786    1.56774365920195   13.46178670320530
H        -1.46410105641767    2.44107998808457   14.11687632046917
C         2.44085635744834    1.58323963772748   12.15980550252356
C         3.02329936910931    0.31887059457683   12.08140128853279
H         2.75776826207276   -0.44607475017924   12.79871308638116
C         3.94816788217136    0.04979014331212   11.09021622773906
H         4.39388697184115   -0.93155989445808   11.02652134642704
C         4.30334160578740    1.03489039054028   10.18122561033750
H         5.02602794507019    0.81836187670724    9.40943091764557
C         3.73397673386459    2.29439543754290   10.26514338830073
H         4.01169061769032    3.06245446151280    9.55941180037672
C         2.80473268618683    2.57143773157356   11.25229255695523
H         2.34753386530768    3.54886927516368   11.31360563737351
N         2.29615959056368    3.18623170047516   18.21170622596290
P        -0.45670295968331    5.83088927941825   14.29547018273296
P         1.19862511842301    1.92325519613404   13.43485061192036
Cl       -0.11989242741382    4.15021439727495   11.98678213929093
Cl        0.10718340461376    2.11269705608204   19.19429372039308
Ni        0.52657864560256    3.92916600878521   13.96684248662099

