45
CSD_code = ALUNUR | q = 0 | S = 0 | Stoichiometry = C22H12AgN5O5 | MND = 5
Ag        5.30718383617283    6.71123041459895    9.05226161289238
N         6.54033971761054    6.37977190408312   11.02707519147300
N         3.80860355413273    7.64568734441519   10.68021451616144
N         6.35505856636145    4.97884340046785    7.69440120713724
N         5.08346599836654    7.61276503176181    6.91115624968766
N         3.37232188732396    4.56581215315368    8.96101127231721
O         3.75064963105554    4.97179674566895   14.62103952794182
O         3.77984835451081    4.30065824806289    3.74664906174875
O         3.19249601371156    5.62428876873929    8.33121389242786
O         4.31571118396323    4.52250847315421    9.76969434646829
O         2.65844181273677    3.60836473965143    8.78334973784335
C         7.62317572904503    5.66988451027085   11.34869888743212
H         8.46987762204206    5.78666932548005   10.68593630686219
C         7.69893312896801    4.83177295664199   12.45195730296540
H         8.60786634568022    4.28268430940281   12.64302905282847
C         6.60161869530033    4.69126180315879   13.29797315506396
H         6.62028404070551    4.03553346229629   14.15523412086329
C         5.47565805614842    5.42442825373787   12.97602389073159
C         5.50429007823343    6.24398929316998   11.83691224588767
C         4.18374887896662    6.84808281675737   11.66535782854254
C         3.34412888820194    6.38675084636554   12.69204407988246
C         2.01485218157930    6.76448143387154   12.68380983509194
H         1.32642012364186    6.41767738908073   13.43955119556864
C         1.60944525927625    7.59629254532177   11.64269228247053
H         0.58206122125915    7.91651450101044   11.56945541899719
C         2.52448568473534    8.00566254350098   10.68263208498469
H         2.21887259907384    8.64823751917198    9.86869208108627
C         4.12254047548581    5.49659224312112   13.60233925661329
C         6.70765449079813    3.71026127423724    7.90584461258321
H         7.32896485922073    3.53925387402560    8.77388278801148
C         6.31020505141634    2.65303191834828    7.09948723458823
H         6.61488452674723    1.64913888395158    7.34919799067002
C         5.50692300856352    2.88796255162410    5.98602685379829
H         5.16938665171419    2.08753130393155    5.34552570645071
C         5.14213172269174    4.20013746613378    5.75236793195269
C         5.58174751912529    5.19155437632879    6.64435602091552
C         4.97943562149680    6.46725638619780    6.25806400955368
C         4.19427020346918    6.26151870377593    5.11373872359574
C         3.47142564180666    7.32085561683134    4.60167437612608
H         2.84278418203864    7.20559206856416    3.73184584487300
C         3.58383275992265    8.53464405153290    5.27641932693826
H         3.04077858735798    9.40123562831677    4.93287254150593
C         4.38039301794493    8.62990667495894    6.40733580313881
H         4.46855773639383    9.56662387572250    6.94078291057069
C         4.27914485497709    4.82565236940535    4.70807168276296

