63
CSD_code = ALUVOT | q = 0 | S = 0 | Stoichiometry = C32H27ClNiP2 | MND = 4
Ni        9.82346757808889    4.70384040507337    0.40087013010563
Cl       10.73846275323533    3.35360364204940    1.73492126624283
P        10.62448815928125    3.82213390358340   -1.35585389198497
P         8.83588210134335    5.86529585909111    1.88222878975031
C         8.99031950366056    5.93972185879139   -0.84118455971148
C         8.42767612488283    7.14579722569841   -0.39655089736531
C         7.83198222529181    8.02524145292167   -1.28972781457227
H         7.40112716726176    8.94651655925404   -0.92174061704988
C         7.79206644442380    7.73377885562317   -2.64021754059663
H         7.33190236082282    8.42401616864161   -3.33195982377496
C         8.34451274990029    6.55295516895015   -3.09968008264503
H         8.31724447759123    6.31688944892340   -4.15480785322853
C         8.93231324427311    5.65977591768854   -2.21520460441165
C         9.50099423022767    4.35666920759468   -2.71289433020779
H        10.01743891433120    4.45920773487822   -3.67158996737493
H         8.69521899868084    3.62158701940728   -2.82076541496514
C        12.14247362406418    4.75898139471847   -1.70867461707926
C        12.92283372709906    4.51070851166454   -2.83176890374967
H        12.64461830040041    3.72134151228963   -3.51724721610498
C        14.05553959157699    5.26988884803247   -3.05945802634957
H        14.66449238175142    5.08037317749508   -3.93160854641204
C        14.41402831435762    6.27115257256495   -2.16981094837342
H        15.30135750430985    6.85931496203587   -2.35292905948568
C        13.64347817008060    6.51439925240524   -1.04457024007642
H        13.93005965049080    7.28918279619871   -0.34866204701905
C        12.51016897677003    5.75701706602540   -0.81401289198718
H        11.89550004010175    5.92183305580212    0.07523628515424
C        11.15870800266512    2.12945043640725   -1.72507414539081
C        10.64351090343639    1.37103053626324   -2.76974164659155
H         9.87739168042150    1.77530072498314   -3.41552894667003
C        11.11678110210737    0.08905952460833   -2.98939987206402
H        10.71826960460310   -0.49634643672903   -3.80578168112271
C        12.09469188572641   -0.44434107155123   -2.16682307099198
H        12.45771808489767   -1.44650975960191   -2.34196984040338
C        12.60196596342981    0.30496719878212   -1.11676494583687
H        13.35838821560512   -0.11317634027032   -0.46938058895708
C        12.13732746457327    1.58665491413984   -0.89458950959830
H        12.51185411284832    2.17424356240690   -0.06800570160253
C         8.49945666324509    7.48298643173713    1.06975934420177
H         7.58414898019817    7.95600648003176    1.43712536812636
H         9.34514237054797    8.15598743017397    1.25275819163700
C         9.21653765458174    6.20669765685741    3.62243878108299
C         9.28057725753979    7.48826512236005    4.15708909649274
H         9.11608844580546    8.35319433500315    3.53084117258541
C         9.55354548359545    7.66067558298290    5.50294434876427
H         9.59788211445466    8.65801165625050    5.91685572330924
C         9.77087726327238    6.56196986401009    6.31731466875872
H         9.98564653594902    6.70367881157130    7.36642975731722
C         9.71870544197843    5.28329741747136    5.78491695821735
H         9.89653809791695    4.42614813638534    6.41723708765380
C         9.44280181428316    5.10367268827319    4.44320573244698
H         9.41844034719409    4.11254034422979    4.01206879053082
C         7.17413999686926    5.13872976998163    2.02009746966967
C         6.19618524283917    5.67274416570271    2.85087651359285
H         6.42087542447168    6.53713459126178    3.46131233592909
C         4.94415546048505    5.08832212333930    2.89767202094996
H         4.18104897098893    5.50093495146838    3.54173894496107
C         4.66643883478987    3.97216157809995    2.12341432807497
H         3.68660399782903    3.51948424132740    2.16632263120846
C         5.64230383542356    3.43168052330928    1.30201826747508
H         5.42590408700249    2.55670687328704    0.70677058512732
C         6.89519718185391    4.01381759890012    1.25287521468681
H         7.68490416228761    3.59509475908611    0.62274003972739

