61
CSD_code = ALUXEM | q = 0 | S = 0 | Stoichiometry = C23H30N2O5Zn | MND = 5
C        -0.60597042050680    2.92916037846684    2.36183965196697
H        -1.03351522959854    2.35241278467704    1.54641632769051
H         0.40985771816414    3.21552910194471    2.10355850999088
H        -1.19304742229971    3.83130018037960    2.50966666607193
C        -0.60382624617059    2.10295598564051    3.63921313382647
H        -1.62946118892228    1.80237166962011    3.89732661309803
H         0.00134396437587    1.19449189681028    3.50228550949306
C        -0.03597207715496    2.40928949822964    5.93766380105693
C        -0.40819590821578    1.14294445419493    6.30987734033646
H        -0.76275091549935    0.43169139898635    5.57970471403101
C        -0.33228454131162    0.74565390876061    7.65305197918307
H        -0.63065106177918   -0.25623812691495    7.92126701852823
C         0.11355784256188    1.61818126126563    8.60163873323670
H         0.17357737904518    1.31459571639071    9.63737337608153
C         0.50554276416359    2.93212673437946    8.26092536690157
C         0.43396846022169    3.35979786400761    6.91002823339143
C         0.95937386047026    3.79047726109169    9.29792766396002
H         0.96777934730448    3.34939289656405   10.30370352887621
C         1.81414197699323    5.73275458304317   10.30886702250107
H         1.58342195201886    5.18783776895930   11.23574086885935
H         1.28815299221883    6.69132848658660   10.32873809668417
C         3.33642672358576    6.00892526262486   10.27434495848727
C         3.63458243664476    7.09826371062342   11.30732513796571
H         3.17212095296998    8.03819200591183   11.01317224141750
H         4.70760678025057    7.25136622394418   11.40051477537464
H         3.24435093725361    6.81652645957721   12.28295606590314
C         4.09599923158709    4.72970739332613   10.62979832481135
H         3.88601035411725    4.43375153791708   11.65555527976166
H         5.16821660262966    4.88443824441161   10.53154669921614
H         3.80218386814573    3.91821478364014    9.96719513584532
C         3.80024625103269    6.48570043844483    8.87203624379030
H         4.69656058679851    7.11028878624038    8.98958060460544
H         4.05734180842441    5.61208435526781    8.26952792357734
C         2.77446861837457    8.47453682883214    8.12749930200573
H         3.64331059041160    9.00919666993233    8.53286112034813
C         1.74703783566708    9.29219180153697    7.58384673124723
C         1.96981775031817   10.68767345724836    7.54620283052913
H         2.90638324536434   11.06813726661726    7.92906431532273
C         1.03744847533345   11.54243521772848    7.03798180501156
H         1.21624704648679   12.60645640509745    7.01557208921189
C        -0.16871155584980   11.04125620758417    6.52747735268404
H        -0.88543380224810   11.73678890605857    6.11875133253063
C        -0.42721431302639    9.69417280339642    6.54693354427726
C         0.52009182807357    8.75865705363793    7.10041120539390
C        -2.55660571028560    9.90850477131457    5.48951796666739
H        -2.15156789282733   10.48137926983033    4.64163653938936
H        -2.94083464259718   10.61904248334188    6.23621164483535
C        -3.67249935247162    8.98972958864028    5.01573668064724
H        -4.47527780435174    9.57446495167607    4.57498660860672
H        -4.06004828804824    8.41998810250094    5.85533860865386
H        -3.28764318361804    8.29248799692351    4.27688784634891
N         1.34870515882028    5.00688325442426    9.15696839061452
N         2.75960514529958    7.19248974536420    8.17980017766115
O        -0.05922384482969    2.90260733092458    4.66461434233199
O         0.76805490510301    4.52882548329785    6.49506939758135
O         0.19308756648371    7.51574668432526    7.12137029434761
O        -1.55140461388065    9.10021483836999    6.05655907927310
O         2.10565636172307    6.41707087666698    5.27409661392421
Zn        1.31666640794029    6.06835625522343    7.42947235031468
H         1.75484049474107    5.55628795426270    5.00561069619249
H         1.42965379436026    7.05020289022368    5.01135358750880

