57
CSD_code = ALUYIR | q = 0 | S = 0 | Stoichiometry = C16H18F20P2Pt | MND = 2
Pt        6.65394831520721    7.00696227302476    7.47051902894397
P         5.84232819000854    5.35924114711828    8.70413337220933
C         6.41297287374472    5.52147095458198   10.51752359064010
F         5.54504529610817    6.31784423048283   11.18963501031383
F         6.45775436639459    4.36516075088046   11.20968237708998
C         7.78063055875324    6.23936267230350   10.54513604981766
F         7.59368262829486    7.54056126711883   10.31574795226879
F         8.58366073110913    5.79817690884760    9.56953611423411
F         8.42640081937407    6.10939207701632   11.69432618113403
C         6.66600420348170    3.65167626900224    8.38319811741095
F         5.82556618143610    2.60106569186050    8.53114793073527
F         7.70352355897718    3.41407079967450    9.21664898942888
C         7.20839863280842    3.64925232415860    6.93899729530654
F         6.24034769872904    3.99995178023323    6.08941997366293
F         8.19245039462506    4.53874457364075    6.81020612508221
F         7.67338562875996    2.46585957040664    6.55883151302501
C         4.00476476513106    5.04986088397761    8.83443957427470
C         3.56388546598622    4.45303671709845    7.49483750446037
H         3.96169996880310    5.03831760129825    6.66542884352204
H         3.88437632376333    3.42060103131491    7.38102897340110
H         2.47803586523783    4.47531549710761    7.43365905271917
C         3.57720125672134    4.17009334424956   10.00604345373175
H         4.05720035522112    3.19503811447443    9.98199816357734
H         3.79032963733351    4.64277698713339   10.96153230508171
H         2.50161561244632    4.01390766500284    9.94758317232644
C         3.41649618400495    6.46200841121393    8.95203067351566
H         3.77217919787192    7.09170340817220    8.13373012662771
H         2.33165204677051    6.41022549693139    8.89637114655621
H         3.68314334846425    6.93805730004672    9.89225609147910
P         7.46595986686400    8.65328529788976    6.23556037220391
C         6.89526050220368    8.49117427520036    4.42218779509253
F         7.76318264914403    7.69478350632248    3.75010072740308
F         6.85048341435277    9.64748873200898    3.73003110538770
C         5.52760786753849    7.77326522092933    4.39460258368096
F         5.71455229923732    6.47206120070421    4.62400717359345
F         4.72457844734738    8.21445225638222    5.37020039141187
F         4.88183316132009    7.90321684461999    3.24541606437478
C         6.64222162900983   10.36078626906563    6.55660462259755
F         7.48268621353120   11.41137441912572    6.40868852246459
F         5.60472476359253   10.59845872279838    5.72315193286207
C         6.09982962029917   10.36318208642064    8.00079729600235
F         7.06788348077519   10.01238996484872    8.85032399589077
F         5.11574132916174    9.47374255684922    8.12954950564012
F         5.63490769880826   11.54659352885522    8.38100583941994
C         9.30351047509885    8.96273808732563    6.10535878636134
C         9.74437912012229    9.55956570873972    7.44496586082906
H         9.34655499842467    8.97428787170983    8.27437259113000
H         9.42387255481901   10.59199721983340    7.55876820887539
H        10.83022879909119    9.53729652079715    7.50615069665382
C         9.73105104807628    9.84250256824433    4.93375117534903
H         9.25103210480365   10.81754860123005    4.95779079141916
H         9.51792116898104    9.36980558477964    3.97826874460083
H        10.80663428775502    9.99869496062155    4.99221795954303
C         9.89176032888434    7.55058551774527    5.98776068496092
H         9.53611118721589    6.92088196793286    6.80607284310254
H        10.97659745879288    7.60236708690818    6.04343347461346
H         9.62511341918498    7.07453767373428    5.04753155196017

