89
CSD_code = AMADAT | q = 0 | S = 0 | Stoichiometry = C29H55IrN2P2 | MND = 6
Ir        2.34309470330538    5.80676344167411    2.61485628253771
H         1.44150218852503    5.58507080670219    1.40128851105120
P         4.11053703939918    5.96250274086933    1.10391422654152
P         0.52619366043255    4.89506802428773    3.76822113792091
N         1.54009147475839    7.83467437782464    2.75207784458085
H         2.15889782470040    8.47434092135201    3.25195615972620
H         1.42085286385598    8.26733587816924    1.83670355446134
N         4.29359606173474    6.17299275774642    5.00279524873200
C         3.73994473968954    5.44427092831414   -0.69538035716759
C         2.66563819919737    6.36621573630207   -1.27558444404500
H         2.26336127867055    5.93330176856886   -2.19076073496985
H         3.05440981339125    7.35065255712332   -1.51590126642686
H         1.85101636034465    6.47829485061808   -0.56376405512600
C         3.16823143087752    4.02456576704710   -0.65178161287004
H         2.82498568711641    3.74099812459318   -1.64657048084345
H         2.32295103062398    3.97152315342164    0.02816102677474
H         3.91203512050202    3.29896234429604   -0.33283978747944
C         4.95655395318652    5.42497671193767   -1.62048555414219
H         4.66916631704423    4.96217286900119   -2.56488625673821
H         5.77055972399579    4.83669094141312   -1.20225075607463
H         5.31469389104951    6.42530198700306   -1.84699638327545
C         5.33715320343090    7.42921850684000    1.05390506895690
C         4.76363532979856    8.54051213269279    0.17563517617659
H         5.28475704030254    9.47776239982887    0.37289445956334
H         3.70812781801663    8.68318944644584    0.40354467982712
H         4.87307815979995    8.32035576579489   -0.88250288515763
C         6.76388070687785    7.08147912694834    0.62848727779552
H         7.38235399261808    7.97599940880066    0.71254017585550
H         6.82322351665601    6.73679490414922   -0.39703909576164
H         7.19436886768293    6.32015076436029    1.27497117956457
C         5.39760117442893    7.96630151040675    2.48438624282342
H         6.02425970600976    8.85798652307799    2.52520817001031
H         5.81790213018529    7.22399562267244    3.15738872466548
H         4.40129195255584    8.22872854340299    2.83505233391890
C         5.16275269858992    4.56858251218575    1.71903550776625
H         5.86868738069928    4.20904509295830    0.96531765831417
H         5.74007861807593    4.95618536239237    2.56661028903674
C         4.24223532333115    3.47183083769318    2.19343249911778
C         4.67398767227458    2.15407689611474    2.25163470627932
H         5.69197054543915    1.90384544055937    1.97829696444979
C         3.80361123319489    1.15621961343313    2.65374000962681
H         4.14140810348882    0.13082688931725    2.70491043800115
C         2.49357875106185    1.47261165531443    2.96963171190744
H         1.80557352278403    0.68625565904594    3.25420779289709
C         2.05952651263565    2.78957113328058    2.91741543060813
C         2.93774485422279    3.81503400591330    2.55467955064067
C         0.61798146050950    3.14140715034675    3.18489289433872
H         0.13790420051331    2.44019379616155    3.87233054588211
H         0.07639342333047    3.10858007919622    2.23257530699905
C        -1.23754751313804    5.43902532646054    3.32228595431428
C        -1.26328865116812    5.71541362820800    1.81842837049020
H        -2.26685114072755    6.01622271055625    1.51868508514540
H        -0.98549926453133    4.83743123075171    1.23883202748392
H        -0.57464612572402    6.52116930993422    1.58685424650535
C        -1.49433183498047    6.77013685364676    4.02653214900019
H        -2.36279375976607    7.26200129210004    3.58975973983641
H        -0.62128370021495    7.40954073587113    3.88237842201222
H        -1.68796669778834    6.63887830493589    5.08808441390791
C        -2.32873041900079    4.41076073391380    3.62668007968334
H        -3.26873663635424    4.76301048724729    3.20145700789995
H        -2.48783337223337    4.26707021361312    4.68869507503441
H        -2.10192781277717    3.44823317730870    3.17352613299992
C         0.65692480613209    4.69326124309526    5.65941669430942
C         0.94584581373435    6.06598908385076    6.26789122560533
H         1.29760525799827    5.95620388981923    7.29436090708940
H         0.05717709666215    6.68895744230817    6.28562727517542
H         1.70255190100178    6.58475910999523    5.68458223749330
C         1.85573693520150    3.77146276114516    5.90326274294151
H         2.12749174839473    3.78999361437713    6.95877963914181
H         2.71556313001157    4.08620770089921    5.31817608776723
H         1.62610803739973    2.74234378952639    5.63834884775468
C        -0.55137033636790    4.07231059235411    6.35711879671955
H        -0.27995842442988    3.83694390788153    7.38710248572754
H        -0.86016605012088    3.14642327248581    5.87725403286042
H        -1.39323663196886    4.75785840114161    6.39184686104309
C         3.52092754126913    6.07182817021445    4.12722790963271
C         5.21364317905433    6.33845636246549    6.05785518561090
C         4.68411528431317    5.60647624381779    7.29515136681894
H         4.59457633971143    4.54114139179536    7.09546282023143
H         3.70724339647237    5.99401255394828    7.57259831318163
H         5.36806355252757    5.75056914350313    8.12796844832566
C         6.55914206036035    5.73575595362467    5.63517780284252
H         6.98739700490660    6.28684204779736    4.80011837674069
H         6.42962603512087    4.69630845530450    5.33825902300337
H         7.25837258854487    5.77697367485804    6.46649940760421
C         5.35202829072159    7.83759952817597    6.34621990156744
H         5.70761697873994    8.36602242987464    5.46457601088272
H         6.05715568882534    7.99534487574574    7.15845106607317
H         4.38837444327325    8.25474288783044    6.63081271230085

