56
CSD_code = AMAFAX | q = 0 | S = 0 | Stoichiometry = C23H28N2O2Pd | MND = 4
Pd        3.17921766772854   12.55312106065717    5.73087573112281
O         4.09665756227691   12.07685017052302    7.49585224620818
O         2.01945853754274   13.14293997150737    4.16020259075776
N         3.99642274846436   14.39171977825156    5.86525294753663
N         2.33929256203407   10.73550670869725    5.64425231860642
C         4.23246591889615   14.34924072440555    8.27995153237379
C         4.35574045635397   15.18051557990891    9.40534516388030
C         4.38151535268834   14.67451650050501   10.67917728989325
C         4.31519214796611   13.29134279184790   10.86256764375723
C         4.21670477066812   12.44849484914951    9.78860648613800
C         4.15251690865341   12.93191338116126    8.45659771596496
C         4.29849018857608   14.94648755583311    6.98220688957674
C         0.33486177868281   11.44422294838899    4.46683874189055
C        -0.98275681093014   11.05652958994242    4.16211446951311
C        -1.80803304251375   11.83261530032290    3.39264416424236
C        -1.32145465899563   13.03686978761471    2.87542800560765
C        -0.04337051281590   13.44405263907870    3.14165290399227
C         0.83517163135753   12.68732091246647    3.96229448817928
C         1.15024109245794   10.52939901492796    5.19710607231091
C         4.31271864249373   15.06244040216221    4.62575692367344
C         5.04802555838859   14.09225176691941    3.68981812294098
C         3.08815524170990    9.60291956980483    6.15084129676522
C         3.67847149715329    8.76262933347450    5.00072380240745
C         4.30168622328534    9.58612179701702    3.87060655511994
C         5.42245218042185   10.52319320775168    4.32294607023803
C         6.04351283262873   11.24230449040309    3.12389055340763
C         6.96477866836770   12.40717529134462    3.49876254886785
C         6.30720656997635   13.50878682335944    4.33581692609578
H         4.41890349266529   16.24902757031917    9.24772793115223
H         4.46076767269708   15.33248600786261   11.53080977671592
H         4.34393826367959   12.88314785390960   11.86297296591265
H         4.17219748701476   11.37767952680693    9.92407112603772
H         4.69136069235891   15.96965093702445    6.96535858447449
H        -1.34208105960995   10.11531235917365    4.55666460305599
H        -2.81804053987734   11.51852083857594    3.17900238526976
H        -1.96264111951226   13.65121456545019    2.25923898005209
H         0.33840671311882   14.37306806900934    2.74390599830603
H         0.71407510403795    9.53366802237860    5.33538388187745
H         4.92521352544461   15.95538255175202    4.81683245929785
H         3.37668300430953   15.36617730912652    4.14309087276434
H         5.30605506316739   14.61546032367915    2.76702750584587
H         4.34630854101910   13.28546710619743    3.45170221083482
H         2.43768512297876    8.95493168773993    6.75508814203306
H         3.88957849513018    9.98264100521452    6.78881266079831
H         4.42686255684678    8.09044177280061    5.42465808651874
H         2.88453454157533    8.14801556625271    4.56801841401962
H         3.51919263100199   10.18734308249548    3.39566648616622
H         4.68807045563694    8.89230421408069    3.11882183142806
H         6.19140586926477    9.95813856473658    4.85433482720387
H         4.99013983315658   11.26743717203898    5.01571649456528
H         6.62321767888441   10.52497256526805    2.53658629034547
H         5.24307191577615   11.60935527069243    2.47920786460559
H         7.81963064667015   12.01924009031842    4.05755531058777
H         7.34866116558141   12.84582323886476    2.57417170436256
H         7.03867856768419   14.30711000799003    4.48964650930151
H         6.04978196578433   13.10760077281461    5.32289589539809

