65
CSD_code = AMAFOL | q = 0 | S = 0 | Stoichiometry = C26H34N2O2Pd | MND = 4
Pd        1.51827888481400    2.79354561056486   14.76869931468737
O         0.68430666354606    1.07881514410514   15.43190754797025
O         2.38565054581185    4.51216622758440   14.16083482025601
N         0.05524766337193    3.87522853453536   15.73597429296228
N         3.13047271079443    1.72997834574745   14.05075612996912
C        -1.15986623541694    1.96864127633610   16.68433018428132
C        -0.36215454134052    0.91236968567388   16.15156123739829
C        -0.76171102619267   -0.41742724400864   16.45638511562941
C        -1.85563937546458   -0.68332693322386   17.23122546364583
C        -2.62732998251417    0.35882141140467   17.75674539973728
C        -2.27570440691657    1.65288598946626   17.48371441318767
C        -0.87200510564681    3.34335789768464   16.45844771550841
C         4.40770199563622    3.64333943074533   13.20293547142531
C         3.49664468228559    4.68598797392899   13.54733658041383
C         3.86422359736178    6.01146019246108   13.18870614631073
C         5.03890255774287    6.28644772742625   12.54653716995754
C         5.92941921613646    5.25846051524700   12.21795891872318
C         5.61081005349537    3.96885010982332   12.54707062104092
C         4.16631235915801    2.27479849814864   13.50771151267168
C         0.07480569040188    5.32402108819967   15.66979106409375
C        -0.30381474797455    5.81577980545065   14.26785063761645
C        -1.69640790287773    5.36937315653142   13.82453794636436
C        -1.84022147514664    5.32907277260125   12.30083465538162
C        -0.82992093320113    4.42332593954505   11.59036322808744
C        -0.84930982408229    2.97197540098951   12.06605822325104
C         0.29344756287837    2.16273697201991   11.43960982535041
C        -0.04006599747100    0.67268095053918   11.39678291443884
C         1.12110170182967   -0.21815709980468   10.94514861322425
C         2.39101466578659   -0.08337278266860   11.78952695504306
C         2.14472743933981   -0.38234330466570   13.26784484407803
C         3.16056917714792    0.28762021786962   14.20064692325548
H        -0.15829870945757   -1.21632014959474   16.05054198231135
H        -2.12736402821686   -1.70762067125041   17.44337620179061
H        -3.48759101002418    0.14003673519434   18.37032936129632
H        -2.86530241133859    2.46696920439421   17.88394842529754
H        -1.55282742848467    4.02392213544907   16.98308436849418
H         3.17305138058352    6.79989500017645   13.44902234530233
H         5.28477278816254    7.30724425313800   12.29058338620401
H         6.85572966511179    5.48466024020251   11.71282851188484
H         6.29183420150729    3.16570872237765   12.29854920285827
H         4.99426290994456    1.61265023108762   13.22831751004925
H         1.09082041960084    5.66717918106423   15.88936721996822
H        -0.61481786000499    5.74573146418725   16.41525236658575
H         0.44521098033551    5.41358023400838   13.58838088416768
H        -0.23245624638228    6.90449574821932   14.24919528756822
H        -2.45193365968923    6.04715942811130   14.23069462884589
H        -1.90808165525600    4.37551243181657   14.22288004325380
H        -2.85052925784323    4.98887153034161   12.06014096539909
H        -1.73071640083547    6.34186656301459   11.90531429439794
H        -1.05237014504633    4.44420101045788   10.51987446802062
H         0.17955093215433    4.81953575807401   11.71323528539302
H        -1.81292539662613    2.52431535463478   11.80911042869321
H        -0.72320262367542    2.92340956250724   13.15903567744424
H         1.19198784728082    2.33873739914410   12.05100187425039
H         0.49233659945080    2.51460776841270   10.42392842120001
H        -0.38726793067066    0.36268810248576   12.38393414724430
H        -0.87200767040335    0.51978097114330   10.70375090842837
H         1.37037528923660    0.02390045395773    9.90898057855488
H         0.78520551590781   -1.25778622876427   10.96898680536782
H         3.14982075450844   -0.76342395460915   11.39335078132226
H         2.77878714077944    0.93087300914335   11.67908944356533
H         2.16663478745983   -1.45896601749282   13.44438423408745
H         1.16537172933809   -0.00892787016751   13.56108331185132
H         2.89226008665899    0.04037216948699   15.23265947608925
H         4.17079379263158   -0.09317328060969   13.99175328685132

