62
CSD_code = AMAFIF | q = 0 | S = 0 | Stoichiometry = C25H32N2O2Pd | MND = 4
Pd        6.31314686846314    3.33869102591493    7.62489355393697
O         4.42666109554909    3.46784500893898    8.35594390588026
O         8.14563562815619    3.06154666672599    6.78387827822803
N         6.79281089118876    2.00635685326812    9.09240497499444
N         5.76855584055022    4.46806609985482    6.01967581074458
C         4.50291636140446    1.56338068211577    9.82448736629078
C         3.84697128001819    2.62528047088806    9.12907520880230
C         2.44626065343929    2.75899961315729    9.33064028934260
C         1.74267415595888    1.89772595430739   10.12510411885678
C         2.38980762912003    0.84726225814791   10.78449372261594
C         8.80352818700466    4.09984762932514    9.85918164946370
C         3.74184961195414    0.69746623009895   10.63322443654154
C         5.91156061872521    1.36180686169081    9.77760743990421
C         7.58573098219425    3.74509085359990    4.55119656665079
C         8.41143640531695    3.11302657198804    5.52982678172730
C         9.62660668985660    2.53710317457221    5.07310330963298
C         9.98545429404234    2.55629478031414    3.75354009582875
C         9.16361115716275    3.16501803325972    2.80025588974638
C         7.99464798914971    3.75263808428648    3.20498126302854
C         6.38055406520273    4.42702386176302    4.88803666128634
C         8.18667613038864    1.69961206927892    9.35611320108743
C         8.74547075951199    2.67288990824401   10.40517163336766
C         8.76783742948970    5.17363120004319   10.94854175700829
C         8.11248016280615    6.46193715285214   10.44692234610785
C         6.59548641961257    6.31386806590148   10.33263014092846
C         5.89774285325565    7.57848367977831    9.83295898545832
C         6.29082256746904    8.01979437241615    8.42061527307798
C         6.16206066704603    6.93477231915213    7.35158432345509
C         4.76371919591385    6.31932617415730    7.29569841675879
C         4.61566495849378    5.33655551478735    6.12561513766599
H         1.95275443915812    3.57083016877975    8.81619521724098
H         0.67634742329019    2.02701094903845   10.24483608263879
H         1.82717746023555    0.16883783976273   11.40693509743612
H         9.69660489078804    4.22005381158620    9.24436924903704
H         7.93367265389071    4.23854839758071    9.19272361355267
H         4.25424898343458   -0.10658426722687   11.14485597704371
H         6.27058867368084    0.56721274178974   10.44236866243974
H        10.25964101198432    2.06989903757161    5.81357472881329
H        10.91325919713183    2.09662814337543    3.44356768042427
H         9.45298720333075    3.17398622801509    1.76072649267100
H         7.35432102007298    4.23399936831072    2.47768939346791
H         5.95348046000073    5.00455539787692    4.05951391737999
H         8.75106853665971    1.80668619081752    8.42672005352594
H         8.28447538117740    0.67013263241174    9.72705664388363
H         8.09265388720406    2.64150534553849   11.28239163302765
H         9.73732229952507    2.33625452316284   10.71247269232535
H         9.78176352530302    5.38491417087598   11.29472439237975
H         8.19966306510358    4.80911321727262   11.80775499984474
H         8.54063275285482    6.72145758962824    9.47803542028947
H         8.33484962373788    7.27680311882227   11.14024628390780
H         6.34405030841265    5.47117739081020    9.67340928766829
H         6.19634615526965    6.07627317158984   11.32214974392088
H         4.81916888479179    7.41478444357926    9.86788051307795
H         6.12231730568192    8.40027852200967   10.51828347009033
H         7.32129327964733    8.38063475721194    8.42688591110786
H         5.65536941156072    8.86570160899448    8.14464758341933
H         6.40285884550278    7.37810359803891    6.38095746673999
H         6.89357161227290    6.13473182417879    7.54101801939543
H         4.56557708593255    5.77686676753062    8.22002796626756
H         4.01196351797651    7.10377939366094    7.18438684169185
H         3.72719457052020    4.71945085534012    6.29840002922691
H         4.48259498542796    5.89343189123119    5.18639239764489

