79
CSD_code = AMAGUR | q = 1 | S = 0 | Stoichiometry = C36H36Cl2FeN3O(1+) | MND = 4
Fe        2.22621742539618    8.47262273384628    3.69611372940590
Cl        1.24141324607779    7.82529000412558    0.39394197446863
Cl        5.32492401206812   10.98099283128664    1.73439514390475
N         2.05182619147183    6.58774481328051    3.20179267491518
N         1.82693487097464    8.02320043420303    5.51835286514394
N         0.34989783169240    8.87806768755872    3.31292975211152
C         0.86665531632153    5.87345515314786    3.61927406183559
H         0.89054113281770    4.84917792516759    3.21810975285278
C         0.86376954157007    5.79667290903094    5.14930994172492
H         0.04751130864243    5.14917146700782    5.47038900598806
H         1.80361910308485    5.36050668255668    5.49343561486226
C         0.67761312548742    7.17659489004478    5.78842852503440
H         0.57151543397470    7.03200738564116    6.87377300629594
C        -0.60969368354837    7.82837364637568    5.27659278914269
H        -0.70643133021078    8.82824052438039    5.70389369545081
H        -1.45806695163009    7.23105970014726    5.61168912026038
C        -0.64402345538932    7.92098367562333    3.74894817724992
H        -1.64413654742524    8.26530476984432    3.44603796000481
C        -0.41395597029341    6.54489308646994    3.12054357070951
H        -1.25874822698966    5.90435359184960    3.37676867990948
H        -0.37576471464065    6.64222337441995    2.03635264053437
C         2.89625992399118    5.98332174115325    2.45432742603585
H         2.65925111130878    4.99525242785392    2.05496310069833
C         4.19877849052198    6.52807498570313    2.12286473276263
C         4.89388166423179    7.24504163605122    3.10315564735465
H         4.46060566475330    7.32111729389960    4.09759714031639
C         6.13246213677856    7.78808609378592    2.83684293842996
H         6.66209840650804    8.33279204236523    3.60316452900744
C         6.68866638267292    7.62970982144445    1.57580410292535
H         7.64949340744278    8.06600528473983    1.35102576909742
C         6.01781789573012    6.90413473882532    0.60754478162249
H         6.46436888758217    6.77835228488642   -0.36746365779303
C         4.77837669841641    6.33066877406376    0.85995449387623
C         4.08238059139585    5.53818201509717   -0.20189872887062
H         4.60552932560107    5.63169541280901   -1.14941358674478
H         3.05587756318999    5.86964110949580   -0.33893983008761
H         4.06220023984406    4.48236932608195    0.07028371962060
C         2.52409576209619    8.37925384377877    6.54852818814751
H         2.19021104972023    8.01941674327403    7.51951363529700
C         3.70948973100491    9.19691963794147    6.59616312744725
C         4.25585245693301    9.80275362050388    5.45470796593235
H         3.77577052503201    9.68044067589777    4.48887301847065
C         5.39514400715105   10.57588977824545    5.52166622428840
H         5.78738310161881   11.02810341517099    4.62382474610824
C         6.02454859160576   10.76775534686228    6.74189133884920
H         6.91710610256901   11.37015369981405    6.80661578797259
C         5.49771705631234   10.18440522737606    7.88127684010118
H         5.99017358041762   10.34158205964341    8.82926728033270
C         4.35229920035103    9.40294181453095    7.84060905171476
C         3.84484052560194    8.80729140984515    9.11925007339270
H         4.49234799442608    9.09115066016261    9.94435647562100
H         3.82554146785316    7.71923293277282    9.06872346276733
H         2.84000862369225    9.16177378217399    9.34704644337378
C        -0.03852734333023    9.85657697139465    2.58956215341395
H        -1.07713698261807    9.88477973946501    2.24638001602131
C         0.78797152886394   10.95397143720259    2.09783331034708
C         0.71677095549394   11.23156603386336    0.73020413687629
H         0.05993756233927   10.64294796633025    0.10655033067639
C         1.49950849917166   12.21842387198346    0.16496547927859
H         1.45140503576745   12.40207540057884   -0.89684904212084
C         2.33980368185252   12.96844927254421    0.97026270534730
H         2.95885061891233   13.73983818171721    0.53938414951161
C         2.36949382910672   12.74121229642675    2.33495732766563
H         3.00150583172307   13.35231515886942    2.96222086189848
C         1.60293249844875   11.74377594471376    2.92175243637594
C         1.57664639054908   11.61116062585788    4.41518638723297
H         0.71177444030387   12.14828960229504    4.80838628423204
H         2.47000923509763   12.04842031574030    4.85395098258936
H         1.49788359174161   10.56816904568439    4.73122914661934
O         3.08076686865948    9.25403375548580    2.20525638700752
C         3.31477275915105    9.40794438910229    0.94176866572371
C         2.56642065389989    8.80925338168904   -0.08591741304311
C         2.85674667692817    8.98046090282629   -1.42405875377446
H         2.24900223071664    8.49333818810168   -2.17031022064396
C         3.92453813570425    9.78044058715643   -1.79061523837020
H         4.15814583565122    9.92186355091982   -2.83286454237887
C         4.69251154355541   10.40252488745999   -0.81802002415510
H         5.52503158246204   11.03054138901118   -1.09321297052792
C         4.39083851402091   10.21698018130168    0.51269852432907

