44
CSD_code = AMAKEE | q = 0 | S = 0 | Stoichiometry = C23H17O3Re | MND = 8
Re       -3.28939417226886   -9.02937085394643   -1.79191440216290
C        -2.61878933884852  -10.50051599187278   -2.86763316033680
O        -2.31287496655178  -11.39969138503604   -3.51184758780393
C        -2.65876654670230   -7.60117584624587   -2.97049230532962
O        -2.33970783402280   -6.74121350085704   -3.65209374647621
C        -1.72762911932262   -9.04021923517177   -0.63842965150048
O        -0.86402536048307   -9.02781059850836    0.11745973208925
C        -5.56998577948486   -9.81104147976180   -1.80665679861450
C        -5.68632169936190   -8.42232236486427   -2.11179165217097
C        -5.20296139451415   -7.69538594628637   -0.96711270787395
C        -4.84713027973385   -8.64507316177433    0.02693771219873
C        -4.88556423797122   -9.97774502623529   -0.53826122702581
C        -6.36328489992456  -11.95891731713053   -0.28459424231032
H        -7.30078534023619  -11.44721412887337   -0.04488044060278
H        -6.40272153948469  -12.95045763791872    0.16994382567635
C        -6.30255981574591  -12.11445777345409   -1.82329055159050
H        -5.36406440012002  -12.60430602110071   -2.10190092691973
H        -7.12922251895423  -12.74513347147929   -2.15463095194756
C        -6.37202433450189  -10.75447932446695   -2.45945609204640
C        -7.23906318259698  -10.26229238068313   -3.41316996608018
H        -7.90826244774754  -10.94180658956513   -3.92216316048466
C        -7.39014925565692   -8.87952051346216   -3.66264132694848
H        -8.17749817621062   -8.57012648304210   -4.33549613954478
C        -6.65917430159580   -7.92454968643037   -2.97892341251645
C        -6.98077805760549   -6.45053701019833   -2.84633460801768
H        -8.01504588670298   -6.38796467568193   -2.48866116220859
H        -6.95612818384188   -5.96692498237891   -3.82649524929987
C        -6.07021442687939   -5.62708114188378   -1.88273958954843
H        -5.18086796512486   -5.31156864898729   -2.44141709554434
H        -6.60703215889815   -4.72390580873006   -1.58666130009889
C        -5.58865359507254   -6.38649731338636   -0.67028531434331
C        -5.53446346540883   -6.03855952122366    0.66239173097868
H        -5.83921331447233   -5.05078461769112    0.97782475756900
C        -5.18354881288132   -6.97860868418087    1.66399638779873
H        -5.24952809127524   -6.66053680165308    2.69521687166835
C        -4.85216484712525   -8.28662250825454    1.38115142335043
C        -4.70040566852342   -9.47562481471415    2.28820359945643
H        -5.00724449816941   -9.23477672188553    3.30744697660614
H        -3.65141655583041   -9.78787991448535    2.31070908330519
C        -5.57118930822908  -10.63920604153750    1.75415377396419
H        -6.60654323754685  -10.28488551970308    1.72543090801707
H        -5.52555564620469  -11.46806258664411    2.46288728306404
C        -5.19361968722794  -11.16089121332339    0.34420787400184
H        -4.32132565093820  -11.81995475529004    0.43211282960370

