85
CSD_code = AMAMEG | q = 0 | S = 0 | Stoichiometry = C36H40BClN6Ni | MND = 4
Ni       -4.31218683749674   -2.84961953493331    5.85407334668598
Cl       -5.00753608301574   -0.93276978948391    5.84548912120697
B        -1.74000006502738   -4.06945435383140    4.74045247533666
H        -0.81100380905794   -4.60959343763695    4.24973281944132
N        -2.23552983817870   -2.49102976250144    6.61042122864481
N        -1.32189843243435   -3.04434393073500    5.79585288506025
C        -0.09872807211306   -2.59901555633510    6.11849898253672
H         0.76928544766330   -2.92595920781325    5.58201147143666
C        -0.21976864963455   -1.72829741368360    7.17815391211989
H         0.55787673493866   -1.19708691092862    7.68785858654821
C        -1.59353263515501   -1.69277020764982    7.45658602138639
C        -2.29803969134812   -0.97005722256361    8.52755826404586
C        -2.68311055413724    0.35943719048643    8.34164480197863
C        -3.37076611144031    1.00508463199978    9.35587349276553
H        -3.67840448689026    2.03169799579282    9.21445272402887
C        -3.67967400105471    0.36305226853512   10.54745759129217
C        -3.26797913930126   -0.94856424109450   10.72158268390899
H        -3.48763714858318   -1.45827121464757   11.65018685628900
C        -2.57589682046933   -1.62470328784368    9.72699171008651
C        -2.37085247756565    1.06384883563646    7.05863480779088
H        -3.00930911030294    0.67038750127004    6.26840230879663
H        -1.33453003203246    0.90091058168568    6.76752672257747
H        -2.55227326480315    2.13186419873214    7.14919153965207
C        -4.44636376032841    1.08381102034028   11.61587013387613
H        -3.99073428407147    2.04917367429374   11.82914626072920
H        -4.47885439725683    0.50215628409187   12.53386769879968
H        -5.46907960989032    1.26519871076867   11.28572581414884
C        -2.08947116525237   -3.02468945747401    9.96966994458416
H        -2.09083101634220   -3.60905343062085    9.05248823759107
H        -2.70338477131163   -3.52492816542927   10.71582111058988
H        -1.06369807945629   -2.99689191196593   10.34061412862132
N        -3.87612401797646   -4.66765572302144    5.86726871304051
N        -2.68183416705011   -5.06931023880890    5.44124841365747
C        -2.53333852793699   -6.37317065722552    5.69748151067985
H        -1.63380591051019   -6.89358003907352    5.43805229778198
C        -3.68777633600440   -6.83280294088816    6.29618635710563
H        -3.89258180857505   -7.82428362697064    6.64255480373237
C        -4.52766071167657   -5.71318830345703    6.38281348082507
C        -5.91037021793809   -5.62262981136537    6.86714643811090
C        -6.27803569842338   -4.61302798013994    7.77024783799736
C        -7.59307822382535   -4.52552874885356    8.19604354874087
H        -7.87088599233793   -3.74699777686814    8.89221951294742
C        -8.56237264574923   -5.41072725107712    7.74498522251500
C        -8.18711565471765   -6.39274829862823    6.84293467277928
H        -8.93173756853203   -7.08262852939022    6.47089800942957
C        -6.87953192731690   -6.51286958634868    6.39295306522792
C        -5.26881126946857   -3.63560663540695    8.28571632135426
H        -5.67906460688477   -3.03271226339696    9.09256324407461
H        -4.96131267607650   -2.90757406659171    7.48835058269654
H        -4.37412297555792   -4.14354694940951    8.64213996501175
C        -9.97919428228739   -5.28273877928636    8.21351064158824
H       -10.01827450767223   -5.22201987486295    9.29974399916744
H       -10.57681531450622   -6.13021158893196    7.88758783327948
H       -10.42446034899461   -4.37164526093713    7.81414761050279
C        -6.55584401475827   -7.58255671151016    5.39227337523025
H        -5.77901632196527   -7.26003303407478    4.70327581435372
H        -7.44450812260710   -7.84415617661357    4.82230670686428
H        -6.20771626965649   -8.48320618563989    5.89776692258641
N        -3.80521995774590   -2.83663578645249    3.96979239162174
N        -2.61175459396405   -3.36843057985998    3.67754325795888
C        -2.37542758923053   -3.22311241460050    2.36861102677799
H        -1.47024567782131   -3.58619535996669    1.92537450276803
C        -3.44637369726838   -2.57162986199990    1.79891692805338
H        -3.58283456069034   -2.31521653374688    0.76914466253589
C        -4.34047651472070   -2.33990286553660    2.85412143786445
C        -5.65464515493521   -1.68822255195706    2.79018861901277
C        -5.76323425850680   -0.40923517613362    2.23580869288218
C        -7.01349863806787    0.18269974469231    2.13702533272293
H        -7.09162945030375    1.17400305173362    1.71267282028367
C        -8.15912220808191   -0.45909341306172    2.57783661875822
C        -8.03122914178913   -1.71820441107670    3.14628759277280
H        -8.91316972522207   -2.22416742572357    3.51411366586568
C        -6.79979521985956   -2.33963738161998    3.26474245958040
C        -4.55587196365996    0.35221027485208    1.77448340007743
H        -4.75436042037322    1.42097008664883    1.80333161448304
H        -4.30013007747721    0.08571197888614    0.74898728153832
H        -3.69749060513880    0.13923462754254    2.40665958982218
C        -9.50047364880026    0.20218486760700    2.48219117661191
H        -9.50623518733835    0.96062297277740    1.70308577549620
H        -9.74185112162705    0.68631982657097    3.42878070122701
H       -10.27873107430830   -0.52827572229990    2.27124557749871
C        -6.71458324180355   -3.68330357188086    3.92606250638255
H        -7.70048691057768   -4.13004691890044    4.03143717688747
H        -6.29738787298539   -3.56142993304328    4.94115135808311
H        -6.07343920730485   -4.36438434114019    3.36764924860154

