61
CSD_code = AMAQEL | q = 0 | S = 0 | Stoichiometry = C28H20Cl4N6NiS2 | MND = 4
C         7.30897661010217    4.82558775067803    5.91919010008412
C         9.64503823383770    6.86170142647387    7.28402402138459
H         9.75506407609706    7.75496508601121    7.88413925895062
C         8.11806409344628    2.72358640413710    4.88059020638975
C         9.41556021109205    2.73004954070224    5.38461830325772
H         9.70561526571569    3.49044893382876    6.08906799082809
C        10.31689224053081    1.76528832011531    4.97512432811918
H        11.32296334878612    1.78572611694290    5.36778441556743
C         9.94109250989332    0.78103661561521    4.07659239885841
H        10.65034375019239    0.03078166976367    3.76165761786396
C         8.64517443691567    0.76319150235947    3.58655421867141
H         8.33926755085844   -0.00300508081593    2.88977382841751
C         7.73808011520807    1.72602626531725    3.98259262348887
H         6.72885681617674    1.71278442616868    3.59474468223209
C        10.87535556068570    6.20916191380889    6.83118672144934
C        11.89564087581936    5.95411154131856    7.75489216420618
C        13.06985594038115    5.32187093053391    7.38690192219794
H        13.82825108829764    5.13015412017367    8.12884363582756
C        13.25093895889953    4.93821113900178    6.06896978142422
H        14.16070049345442    4.43776633170005    5.77666895305846
C        12.27735761972173    5.20424448571704    5.12337176408911
H        12.41830045443697    4.92539455280807    4.09151600751624
C        11.10607851040451    5.84107668507548    5.50105134866109
Cl       11.65904720960774    6.40132432311291    9.40478000782964
Cl        9.95511133249439    6.23436385835296    4.28218020316681
N         7.16413697732142    3.67360215385726    5.23232891704228
H         6.24369581630259    3.54215845347023    4.83163401615493
N         8.43440011718994    5.18545811567972    6.46099253369999
N         8.46021830197794    6.38300775357802    7.06914052773419
Ni        6.82395463301181    7.28989080071227    7.42818789044657
S         5.90575710938286    5.83469186450870    5.99109107562720
C         6.33891274970475    9.75252926825219    8.94055546973165
C         4.00275884426063    7.71608647144099    7.57677749700325
H         3.89271736918564    6.82315378654853    6.97619948669749
C         5.52997495685770   11.85419554510685    9.97999177512050
C         4.23264094605252   11.84826304629608    9.47543243196888
H         3.94246960363971   11.08785103582771    8.77105577804139
C         3.33158725397769   12.81341934452453    9.88453316401070
H         2.32563589571110   12.79334570383833    9.49145401050950
C         3.70746723396190   13.79742132027536   10.78340563014904
H         2.99848335849477   14.54827379958676   11.09764863510360
C         5.00317658597939   13.81454297680624   11.27421835789741
H         5.30930998853584   14.58092601660517   11.97055479641476
C         5.91001259384680   12.85138607059977   10.87845185931649
H         6.91903586056367   12.86445098151404   11.26640011070720
C         2.77240037870573    8.36850337663054    8.03005811394248
C         1.75165116984266    8.62336202883967    7.10674554230199
C         0.57734494643618    9.25516335658548    7.47531362164491
H        -0.18135209033621    9.44691832052905    6.73369735430088
C         0.39661709847460    9.63851694653754    8.79338398568632
H        -0.51320198420413   10.13863542770226    9.08613099684881
C         1.37071499264989    9.37281448100125    9.73854585912165
H         1.23001544439714    9.65143143266177   10.77048609906787
C         2.54211855779707    8.73658307748183    9.36028848087871
Cl        1.98787020539308    8.17690472700139    5.45663803486192
Cl        3.69345849503560    8.34309253837545   10.57874968249805
N         6.48373705359947   10.90406536307362    9.62828843781212
H         7.40378172904487   11.03452921093709   10.03040110588521
N         5.21330840397172    9.39293809549012    8.39878221930474
N         5.18755237004154    8.19507675615797    7.79121107235029
S         7.74140973013147    8.74226149306433    8.87020892657595

