72
CSD_code = AMASEN | q = 0 | S = 0 | Stoichiometry = C38H27IrN4O2 | MND = 6
C         5.29730910992811    1.90682669806443    0.26323787987346
H         4.24930135257716    2.13847100854157    0.13262333599564
C         5.98427868227020    1.20806490624925   -0.70917145193846
H         5.47696076952229    0.88562202495606   -1.60419389314404
C         7.33106603376932    0.93564832988209   -0.50637669955707
H         7.90187069749269    0.39255107817731   -1.24430268246147
C         7.92478675186965    1.37493554046456    0.65918991817093
H         8.96803451185737    1.17649716264702    0.84330884391094
C         7.17657110238759    2.07697498914986    1.60493737349543
C         7.68983125889273    2.58509432156818    2.86702278734751
C         9.01056880548288    2.43405157729281    3.29088453503741
H         9.73274398067799    1.92128730837464    2.67236094901514
C         9.40444900349504    2.93988870677686    4.51197227263133
H        10.42597840131046    2.82274644025618    4.84326044006920
C         8.48323657724514    3.59976003135488    5.31218979340073
H         8.79239287370151    3.99654718601990    6.26924443576759
C         7.17279651257389    3.75234155849298    4.89263447887095
H         6.47902194103571    4.27226296251689    5.54019334486572
C         6.73636890233792    3.25123255721226    3.66942079446009
C         3.31003337268905    3.78752177143915    5.33943376680877
H         3.32760171243924    2.70860828414449    5.40522217623246
C         2.61841282936206    4.53023253552609    6.27523567464324
H         2.08782139791842    4.03665197808320    7.07356401163135
C         2.62361695135884    5.91439047398030    6.16126292967932
H         2.09171405470585    6.52928591944136    6.87145092446960
C         3.32476661809915    6.48743226936028    5.12038005986834
H         3.34585898599710    7.55904392004846    5.00750835725544
C         4.00549776872526    5.68201141565441    4.20623736861647
C         4.77375807257904    6.17293460397177    3.07353720137266
C         4.95816370588008    7.52555487622080    2.78425544101725
H         4.52454068826606    8.28834827152341    3.41447055490991
C         5.70135234377790    7.90041356375832    1.68480201435429
H         5.84567666256493    8.94688936684358    1.45875307893739
C         6.26434723765187    6.92744191219922    0.87187494307781
H         6.84916742117141    7.22098841356965    0.01113533502665
C         6.08312683933092    5.58512309936414    1.15761041698004
H         6.53784227360006    4.85188300022026    0.50419948049342
C         5.33611602384239    5.16736091857516    2.25601156878309
C         5.16238548288050    0.52803674703476    4.27797405708881
H         6.16775042806138    0.81179735631492    4.53313804221665
C         4.52052941931152   -0.68580178387302    4.58690606261205
H         4.95537351641189   -1.51266030059349    5.11477973995904
C         3.25111563674321   -0.58541170042252    4.07913980883810
H         2.47256106385226   -1.32325921081641    4.10787227684737
C         3.15699962995014    0.69855444556554    3.46685413640065
C         2.03328057917197    1.20113855906513    2.80839061662566
C         1.93203477885053    2.40282984360735    2.10652053672167
C         0.75747231611134    2.89346017824484    1.46432451270833
H        -0.20200076095439    2.41325339336412    1.46352444749884
C         1.10050688207977    4.08192785042867    0.87365702389646
H         0.47472262611171    4.73644678530910    0.29793673147754
C         2.46035618275708    4.28894612932346    1.17250070269229
H         3.07263757965300    5.11831412630124    0.86599340389841
C         0.82002229343668    0.35699715823253    2.85463973851125
C         0.31617865864757   -0.22624072692694    1.69433983480327
H         0.82154072968443   -0.05721777600475    0.75493432890058
C        -0.80986921278415   -1.02083136120521    1.74681771873364
H        -1.20921332031685   -1.48371010328553    0.85706719041597
C        -1.45713338170483   -1.24083192876780    2.96184482674386
C        -0.95944678617194   -0.65549774091883    4.12406342485731
H        -1.46182339533875   -0.82641183359638    5.06325100666038
C         0.17166786988882    0.13290369940108    4.06704072563463
H         0.56183707550085    0.58860376235195    4.96546299836138
C        -2.65995413090278   -2.09693601761905    2.97613776671578
N         5.86243914523519    2.33555994767056    1.39129493291763
N         3.98452479247344    4.33159228541834    4.32733916542857
N         4.36454485464365    1.34817007110925    3.61200475507057
N         2.95609860084828    3.30428546905469    1.90533786166564
O        -3.14014578916214   -2.62575130237513    2.00371818308469
O        -3.19594948455686   -2.24809610642852    4.19986600151442
H        -3.97741665729870   -2.81915242552896    4.14228368401591
Ir        4.88709054848803    3.29277152864256    2.85966199651110

