44
CSD_code = AMAVIU | q = 0 | S = 0 | Stoichiometry = C17H19CrO6P | MND = 6
C         3.18528917328765   15.95421403890879    2.16645751497330
H         3.87730257842428   16.75957367866783    2.39801624373601
C         2.88384545312782   15.77238417016141    0.70551824654387
H         3.80453135125312   15.58860324354105    0.15529057377421
H         2.41045475243061   16.66743371469771    0.30353838037599
H         2.20619998420661   14.93086792367170    0.56150341314451
C         3.98179781316150   15.04425650560451    4.85534041405238
C         3.13247443357487   14.46263271718027    5.95341476206547
C         3.68943690495396   13.30335200021694    6.36621222803092
C         4.93403283749769   13.07551005195929    5.63795691650275
C         5.12963709361820   14.08149913015443    4.75888729194235
C         4.33481520215127   16.51366301649753    5.01066386707018
H         4.72099440477747   16.67833316286823    6.01520142333527
H         3.45296394917868   17.13766601457815    4.87388394785067
H         5.10259291794131   16.81220429673976    4.30018933753904
C         1.90013851920254   15.15648177068623    6.41918719110064
H         1.33972550596492   15.53941691877613    5.56441151880374
H         2.15660626274742   16.00271733366288    7.05888498720011
H         1.25820691334733   14.48559592683064    6.98368347251513
C         3.19512234757111   12.35804605320511    7.40628806966539
H         3.07386282869725   11.36251535635302    6.97979825791845
H         2.23988642203766   12.68081147136441    7.80953050433240
H         3.91203678674561   12.28610391897694    8.22370905453851
C         5.83078769829986   11.92279059300999    5.92978844381156
H         5.28039804798219   10.98542151260772    5.88279055097068
H         6.24060396751424   12.01858788048572    6.93534842994488
H         6.65603215845269   11.87863861108880    5.22483818825836
C         6.24257002012534   14.29594812101558    3.79195775093153
H         6.75604030741523   13.36221472654139    3.57684875399947
H         6.97440733925346   15.00144825739575    4.18962966903686
H         5.85302431239611   14.69979302786852    2.85499168805890
C         1.03184951153494   10.95756228502898    2.47973579479739
C         2.73092667579738   12.34620851989263    1.20935424049807
C         0.43723283206488   13.40115714363007    2.09905316613699
C         1.01192817194983   12.51024374191354    4.51241928459953
C         3.24667614954337   11.43850869365182    3.55937666889352
Cr        1.90001735087337   12.53031623869309    2.86841717986296
O         0.49623961843467    9.96914857618201    2.22960651683648
O         2.04106079756904   15.94646555931920    3.05093684097739
O         3.18273504771191   12.07688675187217    0.18617622837166
O        -0.52205690578226   13.78249060000844    1.59761197860559
O         0.39529507036761   12.34266645738694    5.46562929258669
O         3.93170572274032   10.57272079860036    3.87916925736194
P         2.95277166985545   14.62149948850146    3.34195245844981

