44
CSD_code = AMAVOA | q = 0 | S = 0 | Stoichiometry = C17H19MoO6P | MND = 6
C         3.11408197116980   16.17708355580972    2.22661602895009
H         3.79415619959578   16.98901035022669    2.47024576722622
C         2.78862189674135   16.03751521223731    0.76655337326185
H         3.69486751228530   15.83782466897089    0.19755817415501
H         2.33756128060444   16.95613997548833    0.39277068510286
H         2.08025488405247   15.22248175719273    0.61358173957914
C         3.94555244820335   15.19694210377538    4.88126509705031
C         3.08765441985888   14.67000083359298    6.00314804653452
C         3.64917379035985   13.54304101115885    6.48948746581485
C         4.88588979522794   13.26265468977839    5.76307138723177
C         5.07721314630448   14.21018108141808    4.82174018637990
C         4.35048145297117   16.65567154037485    5.03167256645341
H         4.76053163132530   16.80581692805882    6.02913392781235
H         3.48619266253315   17.30748220864992    4.91236670492996
H         5.11396506214354   16.92882090189327    4.30614788959864
C         1.85421260496320   15.38682278547136    6.43085152921104
H         1.27862669506451   15.69915774984673    5.55700415046487
H         2.10937268751132   16.28141535423039    7.00158860953212
H         1.22617181255082   14.75367381675752    7.05224371346184
C         3.17492182777179   12.67847258427246    7.60695378732569
H         3.03928788910712   11.65374887459770    7.26154112900082
H         2.23172964049786   13.03619825407824    8.00910090658071
H         3.91250436536573   12.66524518492297    8.40897809512874
C         5.77453671429298   12.12046975521801    6.11753342964147
H         5.20727042818659   11.19300036245832    6.17062003327351
H         6.22339195516161   12.29283179608080    7.09609312869961
H         6.57232943174436   12.00127473646552    5.39008223711436
C         6.17283849476183   14.35545261399932    3.82261172026101
H         6.69095949545877   13.41157663476505    3.67219542836606
H         6.90501473369365   15.09599067799162    4.14932018839020
H         5.76212375407794   14.68189279420139    2.86330801629498
C         1.23179789281235   10.91174661016696    2.41340002039571
C         2.79849106818811   12.66791301164455    1.04025841420065
C         0.39416335962150   13.53949810373941    2.21023447133503
C         1.21563899287581   12.51392644818051    4.63857178887438
C         3.65282627717405   11.67677683929277    3.39498720142018
Mo        2.02492987487425   12.63875512069416    2.84592661481470
O         0.76351159366268    9.90551644448160    2.15214016641226
O         1.98208285069940   16.12107005448696    3.12820154868251
O         3.23920765851365   12.61091442185672   -0.01010971034074
O        -0.55457461803026   14.02800030515756    1.81559717131475
O         0.67950265170940   12.36991189768971    5.63159312214784
O         4.55514245954849   11.01042016928016    3.59200135632716
P         2.92548925476648   14.81705977934448    3.36941269158406

