51
CSD_code = AMAWER | q = 0 | S = 0 | Stoichiometry = C22H21CrO6P | MND = 6
C        -1.73558288817175    3.59684093455104    7.24399852756440
H        -2.18095197668542    2.62172706303195    7.42173756645214
C        -2.63608310264343    4.63272656718633    6.71163883349847
C        -3.95837783311550    4.68219309920543    7.14684686036621
H        -4.31794048561626    3.94099960891238    7.84695177674007
C        -4.80167972274720    5.67847917660472    6.69440583404728
H        -5.82283803714655    5.71585140905843    7.04311313130299
C        -4.33908668460910    6.63030923850788    5.79965283755439
H        -4.99931374850936    7.41039991252771    5.45243301912991
C        -3.03075468919574    6.57702493042360    5.35159650566375
H        -2.66692062941599    7.31208177211288    4.64959377150684
C        -2.17937454704523    5.58752090386810    5.80898336006737
H        -1.16337773411925    5.52960445215718    5.44787125180403
C         0.15789723211144    2.62433360074395    9.29596127837438
C        -0.27713160870906    3.03776925270061   10.67298639246049
C         0.81155794665581    3.37991949718249   11.39392084068867
C         2.00936589546420    3.20239479127354   10.57834568909871
C         1.65717800496535    2.75319425285601    9.35473971915851
C        -0.35016843307289    1.27977410973736    8.80095239967432
H        -1.41933681681923    1.17479948688595    8.97311979727809
H         0.15948365074615    0.48767194932079    9.34703917544870
H        -0.14032140435490    1.15596262088616    7.73947983572957
C        -1.71670047187792    3.05437203228265   11.05675487809149
H        -2.06342441641674    2.05278827648968   11.31740914149514
H        -2.32258711964789    3.42080022641036   10.22440754200548
H        -1.88331055997780    3.70299130823157   11.91278980793838
C         0.87727842468008    3.83458232389313   12.81054038537063
H         1.40764666069194    3.09851404606167   13.41445597453100
H        -0.11598039077603    3.97263973003760   13.22712025301432
H         1.41899212535605    4.77653130177766   12.88138140994618
C         3.37723652672838    3.45808107614417   11.10972013976508
H         3.59921153717832    2.76364259273500   11.91992449391387
H         3.44747424877980    4.46898275799976   11.50835181543128
H         4.12856830597619    3.33703796064597   10.33510785394698
C         2.50891034758706    2.40596440193761    8.18376626235745
H         2.02958713964287    2.73635244322570    7.26110234671036
H         2.65678234031847    1.32655474522640    8.11951795527710
H         3.48485058061801    2.87916444097522    8.25624333838064
C        -0.17547665709891    6.23051722174613   10.48371620344759
C         2.08637362059055    5.93446545142626    8.98319320808104
C         0.77292540305389    6.69908890140241    6.90968185537102
C        -1.44178908366792    7.00118016083728    8.41935257748283
C         0.74090461559873    8.09671696366854    9.03158031642903
Cr        0.28980717169824    6.35068996717872    8.67826029980986
O        -0.39803581698451    3.52763479011251    6.70905336348866
O        -0.47440474612875    6.38600183807881   11.58241469645267
O         3.22318879989425    5.88860135345348    9.13931995475849
O         1.13057652521152    7.07087684272862    5.88400114775086
O        -2.43659759444836    7.57513331774193    8.36938175829080
O         1.01407865049434    9.19295791402917    9.25658429683340
P        -0.31702855503723    4.09645698378125    8.23639832001835

