53
CSD_code = AMAWIV | q = 0 | S = 0 | Stoichiometry = C20H25CrO6P | MND = 6
C         7.83308943384051    9.72057588224419    2.85729559131426
C         9.23410721399865    9.17646987670050    2.82423190597357
C         9.62314398986475    8.87866313980044    4.08058467245521
C         8.54002592590990    9.19114443882457    5.01043020573736
C         7.48830982920371    9.68385431429350    4.32352293757677
C         7.67135791590512   11.10444392990002    2.24099926924413
H         8.14677980949209   11.16234155116029    1.26408944124896
H         8.15219624358024   11.83359368744998    2.89132352723543
H         6.61805771281822   11.36628822376779    2.15233603568976
C         9.98127036621075    9.03294139723504    1.54268684192657
H        10.52046541894970    9.95029977271519    1.29907596269081
H         9.28939267934254    8.81541453159189    0.72719881329287
H        10.70577390804118    8.22431408356236    1.60501000886020
C        10.94388214520256    8.36398098085377    4.53735689491111
H        11.57754122741336    8.10701448178724    3.69352014105842
H        10.81546828790855    7.48058866702488    5.16028396053621
H        11.45220727472340    9.12171519189785    5.13375312057028
C         8.67863722005241    8.99352750827369    6.48037367098602
H         9.48410029042955    9.61663626202567    6.86842329554181
H         8.92478350053729    7.95504764465137    6.69963156896794
H         7.76071745867464    9.24956983338188    7.00084957962415
C         6.17634768957370   10.18765459511840    4.81618166918023
H         5.37346688413037    9.85054535681645    4.15876200847422
H         6.16461680260913   11.27898795420080    4.82868934876529
H         5.97243372853177    9.83489045605501    5.82366820998413
C         6.24271515082931    9.00685852794321    0.51263892491366
H         6.64117303295476    9.97577385436958    0.21888366669202
C         5.80072025632418    8.16729933350625   -0.67601722301641
C         4.78436683242068    7.10726714911355   -0.26148091138842
H         3.92207620053686    7.57312892772396    0.20943023384685
H         5.22579762093829    6.40388393526688    0.44304834498572
H         4.44690715776236    6.55573085987499   -1.13571490142377
C         5.16110505178384    9.10409016211523   -1.70928778684621
H         5.87414950080906    9.85181853593624   -2.05070493100459
H         4.30417472614614    9.61369666490395   -1.27573910743256
H         4.82414913482293    8.53509680229766   -2.57194076230165
C         7.04480663206143    7.50499737044175   -1.27622336548943
H         6.77347604986819    6.91341001039897   -2.14660160376191
H         7.51530323972265    6.84980703388249   -0.54435241867813
H         7.76869447121412    8.25693884781370   -1.58533160401493
C         6.72815467019941    4.56658700210064    3.99062694037409
C         4.89055655333611    6.06750664533194    3.02582484319463
C         7.02922143278216    5.17877697438032    1.60200627403172
C         8.60885949063037    6.09734309692135    3.31395798886717
C         6.46773491648585    6.90568048565460    4.84733315464944
Cr        6.75071832568012    6.19257364714422    3.14113530235049
O         5.38473290997357    9.10368406616816    1.66619988604017
O         6.72587144616902    3.54446031006234    4.52294064602766
O         3.76227238779902    5.85944672890593    3.06034763321811
O         7.24691347146110    4.38126420440404    0.80000402075071
O         9.70608920546939    5.77509982186433    3.43186345634581
O         6.21824975849156    7.08923756373934    5.95298315837954
P         6.77903741633952    8.36363767647867    2.09489145882968

