110
CSD_code = AMAWIU | q = 0 | S = 0 | Stoichiometry = C43H62N3OSc | MND = 4
Sc       24.91504533540751   -2.33716748800388    2.91334431294255
H        25.19348128579742   -6.24260421640158    0.86267807863385
N        23.46668070656438   -3.71771796054168    2.15725505762460
H        19.47469057238035   -3.18670193256900    4.29630878657920
C        23.78246788192889   -4.82735994444471    1.51594025522106
H        18.41366752922868   -2.19504765467158    2.32036619694817
C        25.07236886065085   -5.37453838129512    1.49535577841469
H        19.72284889885605   -1.81675745014988    0.28333156289727
C        26.18682256997715   -5.02453491866531    2.25843691358647
H        23.29202405938776   -2.85966883784767   -0.12443983983868
N        26.20335476229750   -4.01051773959428    3.11020369698076
H        21.32376782935238   -3.96406584976436   -1.32836709701532
C        22.11898128632766   -3.27152740432162    2.17912929866461
H        22.26803639072974   -2.84189425698737   -2.31324220645722
C        21.38676907747876   -3.42770324444920    3.37064686618433
H        20.70623838400949   -2.35025332653136   -1.67009359093790
C        20.05480006714929   -3.04373028282477    3.39835193913488
H        23.11634782528495   -0.51803675902578    0.51999759385246
C        19.45365786180939   -2.48328813024904    2.28664907596024
H        23.09046143410250   -0.65304718631308   -1.23706285194129
C        20.19293023662349   -2.27879263283973    1.13808309097084
H        21.58744663472252   -0.34052277941737   -0.36017160037431
C        21.52284155503450   -2.66903786177130    1.05759873776299
H        23.13662474327780   -3.88725186784258    4.49291718247222
C        22.30806519234828   -2.38498882356133   -0.20352155403955
H        22.19648129500567   -6.02440192510034    3.70892322003116
C        21.60586567909525   -2.92115616042575   -1.45363071539554
H        22.23130313563183   -6.01259763866542    5.47376884600512
C        22.53489401096952   -0.87530257267755   -0.32850250320073
H        20.70834058565542   -5.74712203060451    4.61961195280669
C        22.04652536050094   -4.04624178427446    4.58374102858569
H        22.20932675757980   -3.77803096276407    6.71516807199524
C        21.77950202464839   -5.55494852803922    4.59693209919096
H        20.56043644033190   -3.64619979045557    6.12301244332761
C        21.59654467150787   -3.40642218896614    5.89711613162700
H        21.71177980539182   -2.32546987915268    5.85663150681326
C        22.73802605834136   -5.63130854460054    0.77309050100000
H        21.73101669660118   -5.32246060441693    1.04297682558663
C        27.39810993492301   -5.92046312411285    2.14382512252507
H        22.86845825107876   -5.49873356222776   -0.29991460028944
C        27.24897354541675   -3.92135033252701    4.06446818399975
H        22.85690797268864   -6.69046596006215    0.99313183885960
C        28.32879592353326   -3.04333194882759    3.86925837474830
H        28.31246198364894   -5.35037487958110    2.29492833421719
C        29.28456744901836   -2.91466307790826    4.86711847083256
H        27.35764939275143   -6.69463506225844    2.90925583577566
C        29.19692804491098   -3.64481187695540    6.03668712177975
H        27.43050604524037   -6.40360437930480    1.17116723024890
C        28.14064069336639   -4.51613961170553    6.22010215429313
H        30.11122036835973   -2.23469555836226    4.72794828530095
C        27.16180823616008   -4.67444682564834    5.24920748660890
H        29.94936002469585   -3.53499133289629    6.80345556276095
C        25.99939914967080   -5.60863666443413    5.50783438696584
H        28.07486791990554   -5.08110670820582    7.13765932642823
C        25.12897616421844   -5.06322309163864    6.64354311657800
H        25.38074737401361   -5.65952543363789    4.60526849646437
C        26.47770251007713   -7.02398234326318    5.84284548218454
H        24.73344847516797   -4.08382134284602    6.38137405186516
C        28.44514439040936   -2.22094458172680    2.60447970301823
H        24.29473861995278   -5.73600855264087    6.83141228553490
C        28.22937713500408   -0.73777191458578    2.92404792053604
H        25.70418577247206   -4.96950291311171    7.56185787335682
C        29.79447926749861   -2.43203580263966    1.91315990892978
H        27.17141402231012   -7.39038768095097    5.08905961589946
N        25.19385576099257   -1.53492186517165    4.75331084512839
H        25.62861232126187   -7.70283393102345    5.88755721657524
C        24.46261196156443   -0.86123192427632    5.69228081248442
H        26.98154664719722   -7.04858664173844    6.80580889394852
C        24.84412260310140   -0.83063150612316    7.06279741731338
H        27.65587987836763   -2.53381598388383    1.90520947591376
C        24.05941780122904   -0.14808955983479    7.97311232841330
H        27.22922632522858   -0.58967292426524    3.34619496357415
C        22.90192633153405    0.50425344183182    7.58929170908430
H        28.30705336437711   -0.14631994604552    2.01410232518757
C        22.53809544318221    0.50630845164492    6.25499029403651
H        28.97095121804966   -0.38383072994339    3.63788502655715
C        23.29247602716486   -0.15529002856275    5.30370034106491
H        29.80648909000647   -1.90662878893941    0.96089802353571
C        22.94227531398879   -0.05185490554346    3.83190172234107
H        30.61140940499642   -2.05182241494318    2.52151697864570
C        23.81537535335278    1.03995864290150    3.19574509487143
H        29.97234008443959   -3.48913508770592    1.72475476870773
C        21.46804659038298    0.24080006887684    3.55560456974149
H        26.03650838714221   -1.89250813348881    5.20657955854326
C        26.13989393537712   -1.48301095702821    7.51000317056887
H        24.35008519785161   -0.11384427599334    9.01151377591169
C        27.31253082481558   -0.53320047677028    7.23612879904375
H        22.30009291145362    1.02375080066774    8.31983561814827
C        26.14811533928125   -1.90821906368742    8.97844346387796
H        21.65173567990227    1.04607437403277    5.95982069578280
O        25.32460261623010   -1.46481775882835    1.35175554435069
H        23.18884877723307   -1.02849278178826    3.33704803816007
C        25.94488547828083   -1.02197608277140    0.27956210196596
H        23.64092101739854    1.98855048043550    3.70197002044988
C        26.29592068457596    0.24340199278819    0.04726404198730
H        24.87169622912617    0.78198256889799    3.29309860884407
H        23.57932742218790    1.16044028392939    2.13944035084711
H        21.25939341913575    0.11400154298244    2.49531570458507
H        20.82452995276219   -0.43825115818361    4.10980099781880
H        21.22036676523223    1.26453885669896    3.82726577184218
H        26.30263046769653   -2.39898336621878    6.92881928946751
H        27.20848941979335    0.36850161978788    7.83636636333754
H        28.25787546483102   -1.01305569484760    7.48406860704263
H        27.33719688125799   -0.24281266250652    6.18775288226708
H        27.02368940835260   -2.52640836708387    9.17072074912682
H        26.19759749655279   -1.04830262876455    9.64166035300682
H        25.25744179180682   -2.48546095762674    9.21688294330975
H        26.16210055508182   -1.78742076965827   -0.48029118414053
H        26.08984132603473    1.02047235762213    0.76403728750831
H        26.78633886179843    0.52506999253228   -0.86584302284058

