112
CSD_code = AMAWEQ | q = 0 | S = 0 | Stoichiometry = C43H64N3OSc | MND = 4
Sc       11.74350804584488    8.68840255297303   14.54510642001651
N        10.91536379185356   10.52015004221406   14.23266753027071
C        10.13951980520489   11.42083726631916   14.90574811065620
C        10.14252023593249   12.80722999149880   14.58342161729521
C         9.32558052927028   13.67339142712903   15.28524276670195
C         8.50985512491886   13.23191760642299   16.31095817123694
C         8.49468247748668   11.88596802860681   16.62951080657534
C         9.28773920409023   10.97749042097728   15.95334272419252
C        10.98911943275605   13.32474960075536   13.43478490903231
C        11.42048307710966   14.78338797323800   13.59061864560144
C        10.23104154573376   13.14318976481092   12.11438224006985
C         9.19708378500697    9.49571846411015   16.26107762024973
C         8.74190716302702    9.18535625808421   17.68685759356537
C         8.24671068823340    8.83185169573447   15.25377234239043
N        12.99918593034424    8.09475171856955   16.16987074041142
C        14.16915271214434    7.51303702675801   15.98343365100649
C        14.84076717938252    7.49468708777962   14.75395690777988
C        14.58433692520940    8.23225942123404   13.59556019908091
N        13.54609034904685    9.03880686201960   13.44839298023872
C        12.43052483821675    8.15302918181210   17.46962264594188
C        11.83164708411988    7.03005700174552   18.06607583614837
C        11.30290262211966    7.15135253413627   19.34381480638950
C        11.36883495057850    8.34427143603539   20.03608315499363
C        11.93431561398800    9.45348879873914   19.43542627687582
C        12.45515098100777    9.38319505383789   18.15242518608095
C        13.08853112789300   10.59495108984960   17.50576494994191
C        14.55764193174762   10.68456730385113   17.93230116512682
C        12.35228534956808   11.89475946077616   17.83011819806849
C        11.70026578427315    5.71665962284355   17.32881967297939
C        12.20561593336946    4.53409320655539   18.15919789809825
C        10.23697417194179    5.50502227839140   16.92983504561313
C        14.90441315264812    6.84178566982827   17.12370473772596
C        15.61715827864927    8.09680473578855   12.49684630873031
C        13.54395271626180   10.01139987928910   12.41795126525929
C        14.31228928057157   11.18100601068367   12.57051354861483
C        14.24418604850041   12.16455602025321   11.59387036281394
C        13.44536273654880   12.01455854798055   10.47723409695283
C        12.69325657646639   10.86533366170979   10.32925245350884
C        12.72933534510875    9.85766424892944   11.28207866537234
C        11.90067859305097    8.60885986652596   11.08081638161880
C        10.40753417651696    8.94679434171703   11.02754406934446
C        12.33886795799259    7.86173638941902    9.81796576351906
C        15.17994436962379   11.41199639596458   13.78832421481805
C        14.66055473673021   12.60843552470141   14.58973382114586
C        16.64216181732577   11.63417146560246   13.39179155209032
O        10.96613556678704    7.12367653400238   14.02309084496926
C        10.93534083866721    5.90170771402710   13.38831196554046
C        12.32477168470992    5.26670915736551   13.22960750742352
H        11.37578682448277   11.01252468014415   13.46512396891101
H         9.31414049240257   14.72229214298144   15.03203573858305
H         7.88215076659897   13.92733482726501   16.84796463078176
H         7.83993129520615   11.54759899904181   17.41758453136770
H        11.91580802085750   12.73975178839630   13.37824781700587
H        11.84902672726261   14.95478073446966   14.57566624009306
H        10.58429213374495   15.46337974743900   13.44887346948136
H        12.17234612426559   15.02059536260128   12.83947409068019
H         9.32479264240834   13.74560926230359   12.12087676873574
H        10.85051125801200   13.44877879052919   11.27285970646759
H         9.94659457805234   12.10254403169825   11.97366941342263
H        10.21421859348400    9.04342099645614   16.12559914639333
H         9.31643717774985    9.75800541786934   18.41104865139841
H         8.88647916252082    8.12853551394433   17.89963079628615
H         7.68553287054099    9.41192329672866   17.81326544584134
H         7.26889340937761    9.30928545238582   15.30147501030125
H         8.63999794780912    8.93540545460784   14.24095508038454
H         8.12844199915615    7.77182271499757   15.47289315000571
H        15.74185355639448    6.89703798457708   14.72896759177456
H        10.84026813681917    6.29508046865898   19.81063169482931
H        10.97135539535387    8.41305324540945   21.03768032935448
H        11.97228947908376   10.38478719052566   19.97792569019525
H        13.04997354428358   10.45362859187825   16.41156464959427
H        15.10678261423846    9.80709476118117   17.59864476092489
H        15.02403993289512   11.56786377811224   17.50351034971664
H        14.63075950951345   10.74688325015426   19.01663916770202
H        12.74258672072374   12.70169221625737   17.21409931694061
H        12.48519290725414   12.17939635533740   18.87109497154284
H        11.28962201408418   11.79583667007154   17.62021083460894
H        12.28627262251740    5.77115404487756   16.40593088333536
H        13.19639830605554    4.73366568160982   18.56129826741103
H        11.53701689171518    4.32742096512596   18.99116416176358
H        12.25654283705173    3.64012811400974   17.54071863136311
H         9.58636628505854    5.54429692815836   17.80161486637964
H        10.11547890906162    4.53408410122461   16.45331964407317
H         9.93649273887943    6.27905603674030   16.22398652521153
H        14.49414064641693    7.13542507339326   18.08697142599635
H        15.96075814845573    7.10106565011961   17.09215042371547
H        14.82540770749811    5.75975735720295   17.02688694181566
H        15.32145311451582    8.64922615849855   11.60788570798582
H        16.58151810289298    8.46963052800956   12.83740139820332
H        15.74020150100738    7.04593558830905   12.23948760887805
H        14.82758188768713   13.06579060764988   11.70748874106544
H        13.40983064232455   12.78928064752911    9.72578905537472
H        12.07171984667186   10.74885127934832    9.45423969652357
H        12.05734481882011    7.94733790136468   11.94487313549749
H        10.18853867888637    9.64406997134909   10.22146362187855
H         9.82580424561579    8.04144639176835   10.86532103865209
H        10.09549087343814    9.38910518177255   11.97699515076468
H        12.14853766177530    8.45719983014271    8.92789986051844
H        11.79179626320761    6.92573212034805    9.72692011365608
H        13.40280973268485    7.63552165134891    9.85601242983694
H        15.12878431052420   10.52860104155677   14.43294358211399
H        13.64536172159422   12.42150883992935   14.93224235094820
H        15.29465888050998   12.78074904737289   15.45697471885937
H        14.65934948884410   13.51256215713784   13.98554746845172
H        17.26856797282058   11.67007657304980   14.28071946377204
H        16.76147512576312   12.57186769005199   12.85468957133218
H        16.99599146980596   10.82966904573058   12.75157649078925
H        10.29799622010249    5.20175797231839   13.96080952171276
H        10.47905998818860    6.00331490106845   12.38352960635377
H        12.23905519732877    4.29074147466775   12.75652070270850
H        12.96581163858938    5.90152192749342   12.61863856638689
H        12.79189742148003    5.14787745213579   14.20604724134894

