51
CSD_code = AMAXOC | q = 0 | S = 0 | Stoichiometry = C22H21MoO6P | MND = 6
C        -3.59297689353838    5.88160739452347   10.34585352752167
H        -3.15151770480843    6.85956023539341   10.17376001518818
C        -2.68488270209502    4.84366118153671   10.86302423806330
C        -1.39009648403537    4.75264485564223   10.35693852868983
H        -1.05925239744320    5.45943658427313    9.60847256622007
C        -0.53959158340361    3.75869397502113   10.80055145534686
H         0.45942589710656    3.68820947971624   10.39702918714456
C        -0.96726337314322    2.85078673785113   11.75654040212409
H        -0.30181341058146    2.07189963009628   12.09669194537576
C        -2.24647707473696    2.94698359791190   12.27576220685559
H        -2.58141683580666    2.24802689136741   13.02757728514483
C        -3.10523467492005    3.93563664862728   11.82921604297555
H        -4.09524744587302    4.03259184498417   12.25051272556873
C        -5.51302358947102    6.85218559915907    8.32791198460562
C        -7.01451961193117    6.73451873149413    8.27696192660129
C        -7.38042867977630    6.34275005524051    7.03830545449332
C        -6.18892608089567    6.17946459769735    6.20811612406791
C        -5.09138225539141    6.47288909368032    6.93605598952845
C        -5.00769325383572    8.19653044836378    8.83033584878468
H        -5.21229154476739    8.31019843252994    9.89410487216913
H        -5.52353368535526    8.99057057360454    8.29281233148818
H        -3.93969861930270    8.30708362501174    8.65368622491770
C        -7.85114295616263    7.04504138356534    9.46930212328853
H        -7.94716010026332    8.12386733377785    9.60369840242199
H        -7.38754062962554    6.63362529139773   10.36865866761840
H        -8.84859057180258    6.62407534336565    9.36939883807266
C        -8.75507326403405    6.13476130358594    6.50211028391563
H        -9.50134219289071    6.22750087160466    7.28565407745135
H        -8.84369448771137    5.14758930284001    6.05060008422713
H        -8.96915046757962    6.87459530513551    5.73071618981339
C        -6.27166460052845    5.78777218939771    4.77310207014070
H        -6.79985837931661    6.55593918997172    4.20841863664431
H        -6.82414147258160    4.85548631240997    4.66395258555343
H        -5.28359784596986    5.65937548297936    4.34104431561580
C        -3.65303287782778    6.44821361775588    6.54732977302610
H        -3.05666788502215    6.00316066459375    7.34900614783716
H        -3.28026908428604    7.45768988986068    6.36439055943209
H        -3.50289622583897    5.86340020167655    5.64347587030282
C        -6.14148562493933    1.26066788348016    8.55690982223800
C        -7.52206919555197    3.61223259089144    8.61518194250311
C        -5.17760908640149    3.29405317325853    7.00780682576128
C        -3.80686186696758    2.45139497305698    9.19152171507996
C        -6.09581097575077    2.83225403491987   10.80576754533573
O        -4.92576270430302    5.94290852929304   10.89780351057306
O        -6.42866113597591    0.17571221643232    8.35371436708875
O        -8.64150507518781    3.76797540913034    8.47882620545921
O        -4.88183791000880    3.26366966076391    5.90813164570379
O        -2.78854834748671    1.94797379257780    9.28034838511033
O        -6.38706114553313    2.61221925002491   11.88372680880971
P        -5.01770222752745    5.39128473746967    9.37201344407495
Mo       -5.64151965891529    3.10932985106030    8.91226827403075

