54
CSD_code = AMAXES | q = 0 | S = 0 | Stoichiometry = C19H25MoO6PSi2 | MND = 6
C         9.28375404025583    5.56362825480880   12.00828709918957
H         9.64997238094864    4.55720210223279   12.19477855126846
C        10.18163042860090    6.67161830646769   12.36670316902451
C        11.55791272950196    6.51462513829307   12.21617916073270
H        11.95213658135274    5.56330859003546   11.88731214080233
C        12.40991609755413    7.57058618300551   12.47613746947135
H        13.47472819599286    7.44345903408046   12.34932401103868
C        11.90221695986210    8.79052103768273   12.89412134427171
H        12.57063616289286    9.61507048864207   13.09060028489133
C        10.53758099595009    8.94667565627359   13.06422105592236
H        10.13706822268522    9.89141082898947   13.40081909578130
C         9.67923389149213    7.89467392946619   12.79890210945844
H         8.61587795783979    8.00191045168448   12.95822558088708
C         7.77726780271422    4.10575757607162    9.99828342462196
H         7.19091880183092    4.33610159836175    9.09999942550360
C         5.06706936163806    4.31364632677492   11.36977401269988
H         4.49710234012596    4.41340131236956   10.44958163331389
H         5.40436792960258    5.30779366486866   11.65985624516204
H         4.38598789383525    3.96102915478617   12.13834285760877
C         6.03505401282251    1.57494267716005   10.21227068223968
H         6.85799958031575    0.87664230717925   10.10587573714503
H         5.66042742169290    1.79922847456644    9.21941758925281
H         5.24430334564046    1.06721392569729   10.75269369440773
C         7.28613474244518    2.64549505057253   12.83666557039688
H         7.47327413787982    3.51100027405767   13.46306243944882
H         8.21335359328910    2.08998157532954   12.74305114153176
H         6.57919469191142    2.00934280319622   13.36115289183730
C        10.68170379933807    4.65019570735613    8.89710607119555
H        10.61180100849282    5.51190278854244    9.55992091852497
H        10.54638557230755    5.00971279354604    7.88125384085043
H        11.69538189901974    4.26632283932375    8.96651553439395
C         8.92506395472805    2.36828180109688    7.73533513825157
H         8.51965608624522    3.03927212979483    6.98388894296205
H         8.18250188391951    1.60069962631993    7.92590140004262
H         9.79461961092421    1.88352074887052    7.30408343643911
C        10.16663969807973    2.07298915998129   10.56557871854348
H         9.46975065192219    1.28260927139879   10.82374743791661
H        10.49509588897131    2.54287374849701   11.48726514245408
H        11.03626232498287    1.60334297561497   10.11651453516654
C         9.42841251316768    8.45799676762086    9.69716324287754
C         6.90592081740408    8.65746357165047   11.00846099420910
C         5.81276709395103    7.03921000422656    9.06149668427473
C         8.21424397696148    6.81936817218079    7.78915699463436
C         7.18831128381678    9.32294487118795    8.34974158688808
Mo        7.61290516558842    7.74260726380642    9.41385113349691
O         7.87644210851847    5.70913222133831   12.28897641111687
O        10.47771287219814    8.89285401284705    9.78674376542582
O         6.43298624168162    9.20241250635631   11.88884952586081
O         4.77331310509837    6.64502174874114    8.80629908827518
O         8.49014267631934    6.28183436532223    6.82028061500576
O         6.93241740811337   10.24004219666243    7.72230476013705
P         8.10376355558399    5.75868674410396   10.67622528151615
Si        6.56043227648683    3.15027889188213   11.14709068721259
Si        9.39574622550314    3.30425634907711    9.32700969441808

