74
CSD_code = AMAXOB | q = 0 | S = 0 | Stoichiometry = C31H39N2PPd | MND = 4
C         3.50910378894914    3.91853710952789   -0.36116837760419
C         3.46808664742135    4.82069904296493   -2.41661183663487
H         3.07754048909779    5.02731581997672   -3.39239527118771
C         4.60799886814581    5.22927309647421   -1.81594628113979
H         5.39528147243619    5.86933961789717   -2.15903163199601
C         5.66289689460410    4.84844916565851    0.37758898165779
C         6.87449112092534    4.17623282838428    0.18069123844317
C         7.86205714992930    4.32222946989937    1.14416501092094
H         8.79747182561869    3.79677823035991    1.03704967789877
C         7.66076889243906    5.12620557316659    2.25079760963445
H         8.43799398966630    5.21785014379065    2.99517189844959
C         6.47584538714630    5.81703270768662    2.40307427351975
H         6.33907476979400    6.45374977658009    3.26325615986453
C         5.45554779521206    5.69599195621410    1.46756733271241
C         4.18220878509865    6.49368906400889    1.63081160592144
H         3.51085449653306    6.29163785121197    0.78652974874857
C         4.48785881830010    7.99392727478097    1.63486301221764
H         5.09682554554643    8.26597307383556    2.49311280955781
H         3.56019817212071    8.56073478384100    1.68126005672954
H         5.02292734070352    8.28072894938138    0.73104514162018
C         3.45016335089036    6.07182543481916    2.90620876573225
H         4.06486869523304    6.24194819334867    3.78698771769602
H         3.21191226761935    4.99216435248671    2.83975899701350
H         2.52784412912223    6.64163136529598    3.00990749959146
C         7.08878152644509    3.28077277746982   -1.01973848014390
H         6.41023476465355    3.59168301260262   -1.82089501123574
C         6.74333478276506    1.83579769524249   -0.65076509091343
H         7.36353398534479    1.49640078167596    0.17571591490777
H         6.90704392944762    1.17952141847811   -1.50316824459397
H         5.70154156291676    1.76362368236682   -0.34880293837372
C         8.51312378880583    3.37038254350352   -1.57036062938204
H         9.22442692500636    2.88284288193467   -0.90911634792532
H         8.81279402888860    4.40853166301765   -1.69970513142674
H         8.56380406540443    2.87369744575300   -2.53716221699164
C         1.50408131709677    3.46741147926305   -1.72824699692210
H         1.46238791941207    2.46803472760763   -1.27569039408333
H         1.33113249633992    3.37529845113810   -2.80552183611929
C         0.44933562722912    4.37116323487206   -1.08183958433906
H        -0.54643049859282    4.08642718670281   -1.43063200092505
H         0.64490227696119    5.41298044135726   -1.35324090966452
C        -0.54988241351600    2.72226502405526    0.88013663278008
C         0.04686237228014    1.46376069220157    0.84916672610478
H         1.14130058720479    1.39020647724916    0.85854469730799
C        -0.73537692020643    0.32354038805478    0.86147387287600
H        -0.26934707519932   -0.65098508220698    0.84036093459048
C        -2.11585507655567    0.43082792180630    0.91423044416732
H        -2.72790787837394   -0.45919915449261    0.93265605127058
C        -2.71173048442324    1.68033471523908    0.95643664593947
H        -3.78787358499065    1.76466131280028    1.00925420948848
C        -1.93429922183800    2.82503022413947    0.93454111679411
H        -2.40526402626640    3.79761100464690    0.97401292155138
C        -0.49863533605848    5.52422804312237    1.37251753823001
C        -1.40929833911397    6.23183426856005    0.59418505451516
H        -1.54300002876970    5.99250759864056   -0.45052491875469
C        -2.16009218806490    7.24899282420552    1.15734342748862
H        -2.86775888741819    7.79199299071167    0.54681734716789
C        -2.01152779312519    7.57166962146233    2.49595782670592
H        -2.60188709556713    8.36612440723674    2.92851224234754
C        -1.10214159938422    6.87591338536195    3.27591647721867
H        -0.97964221165652    7.12717768551754    4.31944694284037
C        -0.34755223121293    5.86284681274940    2.71512482688607
H         0.37339783753180    5.31873500373499    3.31139886789938
C         1.77741391922346    2.66788214168359    3.33015396869133
H         1.77499748322231    1.57700469029496    3.44339431239814
H         0.73047157537916    2.99406128468704    3.42475949367796
H         2.32921482921528    3.08158159925185    4.18512381986599
C         4.20517889651310    2.08395615360932    2.06306368792440
H         4.21995687427286    1.20796590885979    1.39606661720525
H         4.19181921208243    1.71186812762192    3.08905845028126
H         5.14170345000385    2.63661870408454    1.92913677844471
N         2.81705826638373    4.01588618037021   -1.51783982908350
N         4.61417132402925    4.66817452622796   -0.56311658816395
P         0.56828115310233    4.16928313019571    0.77290615298721
Pd        2.61379542070373    3.26452708376828    1.51295900923802

