53
CSD_code = AMAYAP | q = 0 | S = 0 | Stoichiometry = C22H22ClCrO6P | MND = 6
Cr        5.97837631569345   -6.31908505139514    2.15536132142638
Cl        2.75607105160770   -5.17400568299969    1.13460524572037
P         3.63163118553879   -6.54541946239682    2.23323387032185
O         1.30732961441047   -6.69814819577512    3.38866234784301
O         8.94365543652897   -5.89596291281451    2.09699527235644
O         5.85424464418200   -3.45413216152476    3.06764407039624
O         6.42016638339864   -7.55235631746234    4.86990245146973
O         6.74454438281669   -8.86629817876409    0.76059039602187
O         5.93704004567554   -5.23642913580608   -0.65066432435224
C         2.60013437935416   -6.38149300432209    3.80382675852731
H         2.98787218300332   -7.11042306459976    4.53811599902241
C         1.25600696332215   -7.82900078795721    2.49983770378777
C         2.65439098856003   -8.10460207150643    1.87286882289704
C         2.71395006815693   -4.99699084005572    4.35630853687102
C         3.78938339324621   -4.68242666760393    5.18054554916288
H         4.49945740189726   -5.45246304449305    5.45205685196275
C         3.94684470487878   -3.39436450178132    5.65731148390667
H         4.78639133942255   -3.15759381702368    6.29335550895529
C         3.03275419278774   -2.41128294793298    5.31620903707638
H         3.15919398903676   -1.40493979375697    5.68604018895141
C         1.95649532942020   -2.72297876592146    4.50364896742761
H         1.23915733113796   -1.96029489449758    4.23934733368805
C         1.79633151663639   -4.00994791751582    4.02167670207919
H         0.95637498326557   -4.26286921051289    3.39376499339628
C         0.41172542739091   -7.45101892868351    1.29760180358149
C         1.05752039207721   -7.64190067061862    0.15068118092193
C         2.42619520194059   -8.24494775542337    0.35181454160989
H         3.19215542694004   -7.67196635641231   -0.19411950302073
C         0.64344974035997   -9.00643172609071    3.26053158716597
H         1.26131426332072   -9.28638082892410    4.10934336124890
H         0.51794834538845   -9.86115011683622    2.60197130450648
H        -0.33103891634330   -8.70365248289037    3.63446586818753
C        -0.96064829459904   -6.91269212870375    1.51682317862872
H        -1.25448944915323   -6.25111371942398    0.70627179491761
H        -0.98617628695840   -6.36353209553018    2.45504514432431
H        -1.68555622783285   -7.72491503511968    1.57263235346282
C         0.56305685991463   -7.37176168527691   -1.22956813391031
H        -0.24447708885676   -6.64556556630591   -1.21946701496813
H         0.18827736822869   -8.28679872221921   -1.68776489227093
H         1.37292164013851   -6.99038913631772   -1.84823444001529
C         2.46185156040617   -9.67947047090683   -0.17858523831258
H         1.71024747094284  -10.29238608887565    0.31311434110128
H         3.44004785015898  -10.12893942911464   -0.03452923611143
H         2.25043920068993   -9.67136375497074   -1.24482702347251
C         3.44888098127149   -9.24293366506864    2.50493854876837
H         2.91293438371393  -10.18576254637790    2.44429233363507
H         3.66077340981473   -9.03567749297320    3.55428919688869
H         4.40197899458287   -9.35360905495150    1.99021441177239
C         7.80458892153764   -6.05225401381794    2.12541102437728
C         5.80590676619819   -4.56687110875548    2.79396953591147
C         6.18055746908141   -7.07124427436009    3.85384609701374
C         6.35524081904633   -7.94985075742501    1.33792893216576
C         5.88587594660632   -5.63341195919897    0.42496385297866

