21
CSD_code = AMBUPD | q = 0 | S = 0 | Stoichiometry = C4H12Cl2N2Pd | MND = 4
Cl        1.08722584394009    1.48454286073206    2.16839248868283
Cl        2.50555450190098    1.69496567761883   -0.74280272323136
C         1.53724236133384   -4.02934707499702    1.83246665383241
C         1.33586497930213   -2.82651137376179    0.91133448029211
C         2.56247516972128   -2.55307940053633   -0.00166732364286
C         3.82751965630715   -2.17874214172455    0.77209025651923
H         0.02135994906874   -1.57032951642987    1.92588552814606
H         4.66170214021976   -2.07679752574295    0.08084540952160
H         4.08678078781808   -2.94151902906747    1.50000893637130
H         3.68775965095075   -1.21005074630444    1.28055722983215
H         1.54705725672054   -1.54896597544044    2.53254840944953
H         3.02397331707617   -1.07253893397207   -1.38970399897936
H         1.47986745492063   -1.64997019283031   -1.53495153455958
H         2.31367073673371   -3.83000930680352    2.56709225920585
H         1.81912333788742   -4.90960473180559    1.26133211814612
H         0.61400580101302   -4.25028245498631    2.36367123982462
H         0.48890220551700   -3.03492648497683    0.24294834364500
H         2.75651805713248   -3.46527735375307   -0.58973769764552
N         1.00512707389063   -1.61278313201997    1.66890701026912
N         2.21794108660195   -1.42187454369374   -0.87054969455736
Pd        1.66352863194301    0.09920138049689    0.53853260887708

