35
CSD_code = AMEBEB | q = 0 | S = 0 | Stoichiometry = C15H14AuClN4 | MND = 2
Au        3.46251821967639    5.61534611713147    4.54023650318166
Cl        4.68381708851589    3.96861174919190    5.44875384860173
C         2.29245280491479    7.07303074309389    3.81352356784022
N         2.00505950334212    8.23843497116277    4.42548215834743
N         1.53527873719342    7.05234413139186    2.70349905476711
C         1.07857145098044    8.93988286016839    3.70519221169190
H         0.70980627193912    9.89616317538453    4.01443397230087
C         0.78178960980756    8.19144257968091    2.61639245404059
H         0.10802659935479    8.37441513242428    1.80530159145274
C         1.50857653962685    5.99268339114359    1.73594070114708
H         2.19568549131159    5.21153809315808    2.05817189043727
H         1.81604485458373    6.36461194762960    0.75728619378320
H         0.50280368692456    5.57721012875314    1.65672110000878
C         2.60478332224994    8.68779192319232    5.66063669522285
H         2.07599329639632    9.59309719399605    5.97778497941050
H         3.65416116326829    8.94603793522654    5.48052605702370
C         2.53083214078479    7.63887568737410    6.73953034503933
C         3.64358719574481    7.32280076694015    7.51506455165826
H         4.58184917015745    7.84539311666975    7.37419760034920
C         1.34918214719925    6.95162809587286    7.00506272847892
H         0.45008294836629    7.17572327622764    6.44574905946318
C         1.34813105969420    5.96430796821449    7.96826335986549
H         0.46668894938797    5.38925392435682    8.19937374132106
C         2.53482809055710    5.69431162097161    8.65414279811055
C         2.60160207615717    4.60724414492875    9.63717003339113
C         3.83602608139073    4.14869095961518   10.09800183247638
H         4.73694058069786    4.60668926130766    9.72509283034373
C         3.85641392527134    3.10651283408728   11.00650764459822
H         4.79437279338797    2.72129276650439   11.37997859353643
C         2.65209540506698    2.56127091314542   11.42595334117295
H         2.62200071384399    1.74669752452857   12.13318666098573
C         1.47839325915608    3.08875324903852   10.90632160937874
H         0.51220455022028    2.69691197466413   11.19957612430175
N         3.64705802215119    6.39177034528141    8.44119887650894
N         1.44554224977558    4.08012949811519   10.03784528957403

