55
CSD_code = AMECUQ | q = 0 | S = 0 | Stoichiometry = C21H28IrO4P | MND = 8
Ir        2.03684686217399    2.12461501690404   11.48097292040262
P         0.54114727727950    2.14860558712423    9.72338112772577
O         1.62779780868242    0.07551398836034   11.46089176375794
O         2.17693485388377   -1.90999474874966   10.73407207344654
O         4.12138725149489   -2.98123264441764    9.54185693553188
H         3.28840173195784   -2.63758358452574   10.00915237006646
O         6.02577008616308   -2.31718304240903    8.68267319780899
C         3.42354817038447    1.39645371331642   10.17765651903802
C         4.30208596669003    2.21032128457342    9.48024098273451
H         4.19160610606018    3.28469523285901    9.51647698188138
C         5.32409677685558    1.65135930334804    8.73175928679656
H         6.01153529708254    2.28475090274310    8.19003813613505
C         5.46657635937239    0.28038114243590    8.69107329786398
H         6.27544962302172   -0.17168611310937    8.13732392112996
C         4.58508014567912   -0.57703120843296    9.35005822565271
C         3.53191626104908   -0.00577504944236   10.08917215777046
C         2.40551329118315   -0.69795144970496   10.80437496628264
C         4.95579383261941   -2.03981649343989    9.17618105787089
C         2.33049632206535    4.15964976878867   12.26173285876071
C         3.44647959036448    3.37940592652184   12.70439120007322
C         2.93031857703562    2.31104164231830   13.48644597950744
C         1.51417605819998    2.54023582737836   13.68900037135604
C         1.14571734448686    3.66711675844952   12.95218376964230
C         2.42402768909472    5.49882254528779   11.59409599859459
H         2.65550017033608    6.26589103808329   12.33558215363700
H         1.48610803863091    5.76729750349559   11.11409051064601
H         3.20843910582868    5.51034006825566   10.84074185030303
C         4.89437584633150    3.68544351573377   12.48718738745876
H         5.31490456555142    4.10662328665963   13.40183509994165
H         5.02880069089730    4.40822375086345   11.68756261943443
H         5.45768817426228    2.78867900185319   12.23711272466316
C         3.73287212818138    1.30090956707615   14.24043023861085
H         4.70001050231939    1.14082316108574   13.76946776121494
H         3.20918263537422    0.34812041225966   14.28631122106333
H         3.90064210356524    1.64469424781393   15.26330653144831
C         0.66532939601412    1.70861412912990   14.59162804107767
H         1.00997853869130    1.80470533660412   15.62230081796174
H         0.73063385957043    0.65756678666776   14.31280953191948
H        -0.37793739901082    2.01133100354548   14.54709408992750
C        -0.17349928225314    4.37303566904042   12.97751448937026
H        -0.97273142245386    3.70492526413618   13.29052197558050
H        -0.42770137351644    4.78008672449849   12.00000959683207
H        -0.13177827433198    5.20495983072717   13.68346742901268
C         0.77886545799478    0.97704872390351    8.33716250543465
H        -0.04842937520497    1.06400611579690    7.63374056660621
H         0.81612159598788   -0.03732445131257    8.72813635821591
H         1.71745702957028    1.18996564732623    7.82992487958019
C         0.24858376344986    3.71250631635771    8.80968881013316
H         1.17597606726033    4.02471914488881    8.33630701263394
H        -0.07052870315138    4.48911846909246    9.49910721398492
H        -0.51734202927352    3.57153073473306    8.04965932782107
C        -1.13950583046257    1.69485789638448   10.28284593863480
H        -1.82916462649660    1.64801936906461    9.44146260814519
H        -1.49650682818688    2.42179907610551   11.00788614435305
H        -1.07644780833105    0.72056835385151   10.76289846449088

