165
CSD_code = AMEDAY | q = 0 | S = 0 | Stoichiometry = C70H72Br2N4O16Pd | MND = 4
Pd       21.65955783469855   13.57691461959724   20.73539565855820
Br       21.84266824006039   15.44959276038322   19.16079373766858
Br       21.79384610519227   11.99522231586789   22.59293640619882
O        21.66949420262159   12.78392571915460   15.63546161375930
O        18.30809458660713   13.60301246990130   16.79308837757521
O        16.83800889909050   12.29392968510398   15.69439959544297
O        18.22616430234825   14.25842379020673   13.96769161963471
O        17.27963449669682   15.87229509685800   15.21937579648333
O        20.75674542899804   14.93645751062961   12.85487193884534
O        19.55427413900561   13.79528739563957   11.32729672517602
O        22.21187162026537   14.99004355797092   15.12976098206308
O        16.52200125514895   14.70455493491031   22.09063432488797
O        17.97479835869683   11.71021226820991   20.61692733659907
O        17.19219633904463   11.21531667164057   18.56443051654822
O        15.13468485266784   11.15384648499440   20.53333222259676
O        14.50715225598828    9.67741203037518   22.11633609920772
O        13.69913445567572   12.44726937188767   22.61412582235691
O        12.38869056294479   14.24838293614582   22.33989005087767
O        15.88173325277439   13.49062999231240   23.96904822875649
N        23.73207696048647   11.78442461043747   19.44033182226353
N        21.95738218916867   11.84403854589140   18.23284182605056
N        21.27234395588906   15.67623389304940   22.93945083861893
N        19.48692223254635   15.24181086412807   21.83010986609248
C        22.48577938018628   12.29462418724311   19.39002036504140
C        23.97668821602688   11.01947046734895   18.33144749826084
H        24.91020543827791   10.51861646629708   18.17748922912523
C        22.85862247620248   11.05175654646333   17.57259896877027
H        22.62924025514011   10.60248654881940   16.63050484316228
C        20.65083049787075   12.14530959073550   17.71511437699197
H        20.02975221980564   12.54816527599690   18.52666266617330
H        20.20194371278777   11.22156513529289   17.34160603452897
C        20.68191446247190   13.17652976360537   16.58068335763579
H        20.93094958645043   14.17009734192603   16.97651502971512
C        19.32302364145101   13.24125167809009   15.87618373790022
H        19.07399987127349   12.26427424800767   15.43569868546511
C        19.40940009525310   14.28119039409430   14.74466497779995
H        19.55762839046325   15.28245284300906   15.17057479181897
C        20.56830548363579   13.91638285083909   13.81164095469815
H        20.32106540342713   12.97658037255576   13.29910350663911
C        21.86044532073573   13.74872973097355   14.62909625067572
H        22.66132292414353   13.32947061662279   13.99548091167722
C        23.47904050007917   15.02368160825463   15.76178953544055
H        23.54859646642292   14.26556450159744   16.54569244397786
H        23.56063692610192   16.01075825205458   16.20839555258839
H        24.27883139553177   14.86352941023670   15.03059927364532
C        17.06500573482941   13.12345241901203   16.53595998070413
C        16.04039216010618   13.75371418448715   17.39390371107133
C        16.28405966413735   14.95168590082222   18.06187646133474
H        17.23696004114609   15.44085859048093   17.93599319980114
C        15.28825799763664   15.51651618513919   18.83874080747142
H        15.46864847471360   16.44844091484036   19.35343349036597
C        14.05442559377843   14.89295169420222   18.95529625274826
H        13.28111933449157   15.33740943985952   19.56556456434662
C        13.80813014034008   13.70587268888604   18.28001140429022
H        12.84462290051172   13.22547926170459   18.36609425198775
C        14.79369376842600   13.14093582810251   17.49366715245499
H        14.62292517978255   12.22491556686124   16.95086135658305
C        17.21444641585838   15.07037487435900   14.32052689099357
C        16.02419309269798   14.84214199254360   13.47451510608933
C        16.12116609338299   14.20400625565506   12.24084486758954
H        17.08418421300671   13.87356090736506   11.88325939528870
C        14.98011767434382   14.00940122564742   11.48471050798352
H        15.05030902428208   13.52010731017275   10.52456425376757
C        13.74817069160764   14.43610679616846   11.95565633858757
H        12.85993427817174   14.27702834998212   11.36142083577348
C        13.65121215177104   15.06546380309731   13.18692364204224
H        12.68960930269523   15.39307121532337   13.55351447879041
C        14.78690523515708   15.27406750774315   13.94547140607750
H        14.73697960056746   15.76039038056166   14.90839535926099
C        20.15482214232838   14.78731107355211   11.65721906574879
C        20.33987451805381   15.97846114268746   10.79908249047211
C        19.79649931654761   15.95913111026213    9.51607790056529
H        19.26212058605345   15.07839883993167    9.19340077694129
C        19.94754875355666   17.05175288355991    8.68421789789733
H        19.52722526418477   17.03607537487822    7.68970777849930
C        20.63921661613436   18.16797135294980    9.12834510181098
H        20.75765159180431   19.02222606186967    8.47796174637008
C        21.17799218335669   18.19192530836595   10.40560514770162
H        21.71352700535748   19.06501135811596   10.74781674810028
C        21.03138149163425   17.10283136319297   11.24429759838746
H        21.44437732748172   17.11104479392630   12.24053741338361
C        24.68730423452358   12.02295739378958   20.49879439047168
H        25.59229402226657   11.45482775378481   20.27032513364051
H        24.27375911101657   11.65734443393741   21.44613486697813
C        25.01470678144715   13.51272182291630   20.62990657256745
H        24.07734589841397   14.06423332168911   20.84208286980948
H        25.41547663631526   13.88637415275723   19.68386127742311
C        26.01247497293307   13.76603419163817   21.75506628476189
H        25.58761757069254   13.40664381810966   22.69505792937324
H        26.92529429699040   13.19576192980911   21.56664251124478
C        26.35644750430592   15.24533533073755   21.87437156153514
H        25.45561169332068   15.83759854875460   22.01706335709031
H        26.84991779106871   15.59557994132586   20.97068024398530
H        27.02065777683127   15.41608839766313   22.71782986541299
C        20.77788604816635   14.88971182652946   21.97346010534358
C        20.29383024451318   16.51676745560901   23.40703603088889
H        20.47973183700166   17.23696823651298   24.17666660364714
C        19.16818870174711   16.24496534897014   22.70728111169720
H        18.18497853954023   16.66521715672793   22.74694533505349
C        18.57692994900384   14.59215813955527   20.92747225063352
H        19.16902638544436   13.91105047351704   20.28843989791034
H        18.06604531965409   15.33152445460826   20.30475414563631
C        17.52172323638063   13.78431842019601   21.68979872479074
H        17.97683561610511   13.30896863311829   22.57361831237699
C        16.94613332220796   12.66724968737276   20.80988976060727
H        16.62144010729895   13.05962351222946   19.83681346775681
C        15.73970069858155   12.00771336029993   21.48733863496842
H        16.04186996670065   11.42489646949127   22.36778230220030
C        14.74721832067781   13.08587480284699   21.92093325216829
H        14.35195418499156   13.60558946242163   21.03658205127100
C        15.46214427354443   14.12214017500376   22.80538835351214
H        14.78054043843665   14.95948621675850   23.02435645490527
C        16.29399432778733   14.37702632324621   24.99148684378432
H        17.14621085889730   14.98409467750548   24.67037654043903
H        16.58322510178395   13.75004535396756   25.83130475112489
H        15.47184536344255   15.03846584067859   25.28450794805548
C        17.96086734738765   10.99889995443861   19.46797853257423
C        19.03490539967541    9.98584611796998   19.42886640493022
C        19.96311334336710    9.86713770113226   20.45904579494391
H        19.85563272244373   10.46870448336091   21.34617445261127
C        21.01733124557807    8.98086034428547   20.33775883373747
H        21.74145582601394    8.90888426810791   21.13504826661632
C        21.13948623722529    8.19897695050785   19.20042168079950
H        21.96686511344317    7.51117866879641   19.10489081642828
C        20.19643922323201    8.28823434059794   18.18618247751088
H        20.28616785573221    7.66526428541502   17.30861398434325
C        19.14724156682572    9.18024066855774   18.29469427463186
H        18.40734451769241    9.27733242996435   17.51350441943990
C        14.55505886978412   10.01539581615424   20.96075523641483
C        13.99662170931029    9.24320887653522   19.82871301569787
C        14.40989085617309    9.47438404555477   18.51855740462264
H        15.15885046482526   10.22435872190796   18.31843759789053
C        13.87280945016177    8.72133728976377   17.49047384696813
H        14.19589025024630    8.89625550377819   16.47506515025667
C        12.92683081023688    7.74467088846070   17.76020833437345
H        12.50995656840277    7.16032632862477   16.95285407185917
C        12.51801803922392    7.51072641148052   19.06424920844179
H        11.78384299904559    6.74651192464505   19.27215659223508
C        13.05320469649427    8.25422399967747   20.09868457932088
H        12.75211448188620    8.08738452649258   21.12199577857600
C        12.54754230568646   13.12476916881465   22.75641778636715
C        11.52859993690205   12.32817139173304   23.46993901644833
C        10.32012646966526   12.93691729274084   23.80408856996510
H        10.16561720518253   13.96931756931852   23.52860490466007
C         9.34867553419921   12.22075336621847   24.47659468304167
H         8.41241313968088   12.69187727696235   24.73669412695564
C         9.57752583105675   10.89558902791066   24.81478534243688
H         8.81769239142430   10.33593587159893   25.34055919439104
C        10.77687253680489   10.28637123301992   24.47833078900689
H        10.94885748088307    9.25352595012216   24.74207409923906
C        11.75644644397264   10.99493809095026   23.80770861724255
H        12.69157470326020   10.52783334518224   23.54017111380546
C        22.62077322620608   15.60209185728391   23.44644374089544
H        23.05575801944249   16.60521171870246   23.43738231711544
H        23.18946631740954   14.95305979294668   22.76387125608342
C        22.64842900629171   15.00377959464979   24.85432768124846
H        22.13788924873112   14.03886656212425   24.82436378443999
H        22.10510558256696   15.65753802631046   25.54065703090559
C        24.06943676406370   14.78828392605344   25.36994948526982
H        24.00778351638441   14.24629399564351   26.31517252113322
H        24.61203328937859   14.15605148788793   24.66581204446634
C        24.83780294063604   16.08595847017139   25.59162170058688
H        25.02571202942962   16.60136746834729   24.65331174969157
H        25.79838090918521   15.87680561845499   26.05605806276793
H        24.28147969594292   16.75207097366278   26.24801010526950

