31
CSD_code = AMENCO | q = 1 | S = 0 | Stoichiometry = C4H16CoN6O4(1+) | MND = 6
Co        1.51435674353843    2.37435831929250    1.28057556135461
N        -0.22848463397528    2.68101691075566    0.19156833831138
N         1.41075915168488    0.61146702802010    1.07525205493604
N         0.62920436928457    2.36505917765091    2.82228850157785
N         2.78453819717195    2.41671772719770   -0.49175111404420
N         3.31977754766819    2.24105014333423    2.22242342573797
N         1.85401149545730    4.50639525079911    1.58780816638215
O         0.95916994621469    0.26439392053394    0.01102833897746
O         1.87024230523949   -0.07504680149802    1.94047267265887
O        -0.31120749737858    3.12103560222321    2.85467258978270
O         1.07493885951498    1.70310438319262    3.71327324304023
C         4.20237264468524    2.47530875821639   -0.08766955340169
C         4.36475589230191    1.80386781813793    1.27735070029635
C         3.61433191885575    3.48819806596676    2.95321816501704
C         3.20295314150775    4.72064014267711    2.14569309022107
H        -0.50934269000934    1.83651003604653   -0.31208026464846
H        -0.15814778351201    3.41858542015927   -0.50680694645936
H        -1.00983961805251    2.93773907084280    0.79923235717293
H         2.61528725559319    1.53684661068887   -0.98189040993902
H         2.60635006170406    3.14379506816396   -1.18033561795123
H         3.24832632011930    1.50468948054063    2.93021817391975
H         1.72392513071657    5.12360191840645    0.78980979325902
H         1.15973261656027    4.80667227296854    2.27407545888285
H         4.51074910539171    3.51912316427132   -0.03626821986818
H         4.85297524821067    1.97450265384357   -0.81120449412618
H         5.36262824772303    2.01361203597894    1.67464691728183
H         4.27123720277001    0.72210239571642    1.15566615160218
H         4.67730185089841    3.55085631464737    3.20566980732470
H         3.04704388759066    3.46831517974604    3.88681900613696
H         3.90065592095877    4.88701455784422    1.32542944505704
H         3.24029716156585    5.60136737363491    2.79421466150728

