73
CSD_code = AMEQEP | q = 0 | S = 0 | Stoichiometry = C28H28Cl2N4O10Zn | MND = 6
Zn        4.93101541690486    4.98432156618206    0.00076755720228
Cl        1.41880588666576    9.82933971215088    3.44807003878172
O         6.12071696651382    3.62760495518726    1.19814159066793
H         6.18378224764475    4.23133325781478    1.99261920233752
H         5.69145841660923    2.83144920981656    1.52259896121044
O         4.20366129394175    5.76926565213618    1.68846636634224
O         5.90800257616313    5.41377934620315    3.06855959581638
O         6.11128055387444    6.81253610330743    5.22497868380022
H         6.31158323598177    6.11061905164420    4.55475808849641
O         7.82491632884983   10.71470483751141    1.39590385445630
N         6.47797118115535    6.38970667717567    0.11491936600780
N         5.92289521974586    9.91991160602543    2.33315647108245
H         5.36627153499306    9.10614422492360    2.54802766614007
C         4.86105650115604    6.02088437594856    2.72789733232864
C         4.36773889036198    7.13211593466723    3.60002114638837
C         5.02586100916393    7.46342337377216    4.79844777061562
C         4.53131820441343    8.52241088154759    5.56784686641317
H         5.03862901669814    8.76013303934415    6.48913726017002
C         3.42778208724467    9.23906709334870    5.16127486569564
H         3.05507010029229   10.05400646803471    5.76143744705631
C         2.79175078961212    8.90937058729399    3.96904714074508
C         3.25067880441628    7.86332147814782    3.19689613153392
H         2.76294053375521    7.58829491652552    2.27452541994352
C         7.05152324324535    9.80218888550425    1.60521440407497
C         7.29324044544188    8.42866096071479    1.05016416583674
C         8.60215075520675    7.96836476419090    0.92773666721176
H         9.41469353894041    8.60350787266056    1.24727727697659
C         8.81905686059361    6.70910453579804    0.39855645541213
H         9.81715083222058    6.31578622370917    0.29077027828114
C         7.72609911940945    5.94779799387876    0.01623486288539
H         7.83466312073354    4.95368763885409   -0.38830146652893
C         6.26792657071352    7.60605026157480    0.60493482342457
H         5.23719182987296    7.93095229235923    0.63738992499821
C         5.54646458029551   11.15750948968965    2.97205116911209
H         5.61067863211936   11.06669714150749    4.05781165803024
H         4.52614042837993   11.42621172361454    2.69718852535116
H         6.23501664895481   11.92845698305705    2.63038853664583
Cl        8.44525603329742    0.13983602380149   -3.44545006489018
O         3.74110649936378    6.34080252359218   -1.19740524640359
H         3.67860900675393    5.73710483846735   -1.99190838226308
H         4.17028415330569    7.13712071972636   -1.52154556126310
O         5.65875542315526    4.19928595114551   -1.68683509242148
O         3.95533866960717    4.55486509698695   -3.06805830993337
O         3.75483527097100    3.15780326221723   -5.22586477962937
H         3.55363806040213    3.85913305005603   -4.55530198826799
O         2.03362385293310   -0.74314509243865   -1.40041394904015
N         3.38335131687704    3.57951833448891   -0.11355416269192
N         3.93704903287677    0.05141821817385   -2.33495346687567
H         4.49441081076629    0.86509275698019   -2.54826184050909
C         5.00218048289383    3.94789415575198   -2.72681767375299
C         5.49646382506359    2.83712835330631   -3.59905460419936
C         4.83977873520223    2.50665799158890   -4.79852073467849
C         5.33527388598808    1.44826140517533   -5.56809055977455
H         4.82909087219239    1.21114478654546   -6.49016109113371
C         6.43832735092289    0.73130050883149   -5.16069707874804
H         6.81170805850637   -0.08322092060009   -5.76100367638522
C         7.07285825326325    1.06012660590344   -3.96745488588894
C         6.61303729840717    2.10565629818011   -3.19511803790748
H         7.09981449603973    2.37998170477672   -2.27203135159850
C         2.80790090574042    0.16907768954125   -1.60775067180093
C         2.56696159769244    1.54194753299409   -1.05084013505385
C         1.25829387726111    2.00275897287287   -0.92774527666434
H         0.44539309625309    1.36842866166689   -1.24799564043070
C         1.04206270711768    3.26153075523410   -0.39712469280103
H         0.04417235517104    3.65519436907377   -0.28870489466914
C         2.13544947624095    4.02193278580280   -0.01423335199938
H         2.02742598715354    5.01567369705529    0.39134648819164
C         3.59272752474211    2.36355349938337   -0.60476347336325
H         4.62329464800599    2.03814554000482   -0.63746821865912
C         4.31297319619970   -1.18559944126028   -2.97520762424321
H         4.24950801275802   -1.09335110828984   -4.06089184811019
H         5.33293082570778   -1.45540809557334   -2.70006280748206
H         3.62363099886455   -1.95647254700718   -2.63497141972120

