46
CSD_code = AMETOC | q = 0 | S = 0 | Stoichiometry = C20H22AgBrN2 | MND = 2
Ag        4.82016852222098    5.25900112997711    2.03008567070561
Br        3.71663196644914    3.26874688024195    2.71485111645143
N         5.13091290720104    8.22839680106285    0.98225877858595
N         6.97469422670061    7.57573048025853    1.85540499654043
C         5.73952470151682    7.15242423188746    1.51983870443446
C         5.96683485869103    9.30910903625366    0.98768966119120
H         5.67424474261121   10.26694185199301    0.60992226197950
C         7.13356652384075    8.89594083643127    1.53632234475763
H         8.03975290002342    9.43595823367326    1.71442870392241
C         7.98255020359935    6.73991586686171    2.46621874127408
H         7.53671308090435    5.73731376008592    2.55056751978522
C         9.23673607535618    6.64871630451892    1.59585091343279
H         9.68513209435387    7.63921634014627    1.48936303549985
H         8.96591177867230    6.28998602377862    0.60033214369010
C        10.24464600037965    5.70274462412503    2.24230615061279
H         9.81485073632735    4.70048958640082    2.29812549011416
H        11.14316807102619    5.64784289173559    1.62547751588794
C        10.60204619003853    6.18078470501403    3.64670671635816
H        11.30733530456180    5.48611867131434    4.10502376823491
H        11.08751588403736    7.15788476506043    3.58594223742363
C         9.34840292507357    6.28902165037339    4.50991255313164
H         9.60934486120757    6.65130833199761    5.50552255316539
H         8.89658900390176    5.30116329022504    4.62105906082652
C         8.33745727302764    7.23535207051257    3.86922587193833
H         7.43096015269335    7.28746013373172    4.47664502066539
H         8.76359971819273    8.23960169546736    3.80828097456946
C         3.76605760092959    8.26236357203567    0.51288583136957
H         3.45503988747295    7.22927003470073    0.31733732503017
H         3.72611145553080    8.83172142835819   -0.41989665252406
C         2.86131248710147    8.88207309411414    1.54916230915547
C         2.39935996072074   10.16421284073713    1.41489095534446
H         2.65291414583239   10.74976111801624    0.54123513789387
C         1.57323501992897   10.74736793463957    2.39784045543582
C         1.07712473595474   12.06174645344601    2.27428664865879
H         1.34018498848511   12.63674955025835    1.39765123375732
C         0.27624309215690   12.59807944713442    3.24322396968101
H        -0.10185697972577   13.60473759804835    3.14172985338744
C        -0.06400367548398   11.84634752755073    4.37883151398934
H        -0.69904041573906   12.28641617107796    5.13344758946813
C         0.40180023187546   10.56983445850379    4.52762650709280
H         0.14126430271970    9.98625097202618    5.39872500621907
C         1.22920857192433    9.98707532238983    3.54590971671746
C         1.72230067765540    8.66960941202475    3.66267688185498
H         1.45573110425298    8.08792830153433    4.53261066768640
C         2.51447140400155    8.13336368612237    2.69014828226192
H         2.88135070179464    7.11332088415134    2.78091426234630

