77
CSD_code = AMETUI | q = 1 | S = 0 | Stoichiometry = C32H40AgN4(1+) | MND = 2
Ag       10.78331681029640    9.93404563453701    7.47271244988772
N         9.94261771463515   12.99111485538504    7.24504728013878
N         9.92044516231853   12.06516934415321    5.31187411074016
N        11.54256591471977    7.58859250594706    9.48976622963182
N        12.21026592211302    7.13073427005354    7.50535145392388
C        10.11828592909301   11.80966762382936    6.62076252752221
C         9.62971814743749   13.38576523191983    5.12161919033743
H         9.43403675769151   13.81061945631359    4.15990046880861
C         9.64619688928167   13.97133949020918    6.34343218235302
H         9.47310101306643   14.98747788327970    6.63127252084141
C        10.11960627435940   13.21960239710813    8.65740337546803
H        10.00472924990861   12.25498124524711    9.17092911802655
H         9.33844226769120   13.89677194361950    9.01142450817925
C        11.48376925139227   13.79903480571751    8.95700843552248
C        12.62618062115719   13.18295720732886    8.46258937775619
H        12.53620398890395   12.28478876483625    7.85605233569988
C        13.87818333546495   13.70227404935612    8.73667000797102
H        14.75943828560476   13.21500123383295    8.34737878612325
C        13.99905651350438   14.84447021438022    9.51169719829476
H        14.97547422841029   15.24991328953176    9.72705219954684
C        12.86476280064407   15.46276316149611   10.00846553216384
H        12.95364908921872   16.35242403704806   10.61236525023749
C        11.61148108839073   14.94482897668257    9.72887354003058
H        10.72967097427691   15.43183654612250   10.11866696163169
C        10.03357839379704   11.07781289109528    4.26046709728012
H        10.19067800593667   10.11028445142660    4.76683855006659
C        11.24253984030129   11.36930357053438    3.36807607050313
H        12.14541518571439   11.42629251892485    3.98221730201182
H        11.10814121685151   12.33403284629021    2.87528083771378
C        11.38604217124275   10.27595130059631    2.31333023975235
H        12.23524841789180   10.50086824733158    1.66715176616397
H        11.58605688487173    9.32118970675178    2.80589253823450
C        10.11234991350650   10.15981023147717    1.48139921555746
H         9.95307090760809   11.08858743224698    0.93035105585443
H        10.22037779669007    9.35569580396587    0.75284949783249
C         8.90691048108707    9.88751980200203    2.37681324715806
H         9.03093583139801    8.92401848681028    2.87715394215146
H         8.00048686981720    9.83398764057184    1.77346110152207
C         8.75763785561560   10.98891575563837    3.42337184971615
H         8.57787447502286   11.94015667388167    2.91970834680913
H         7.90474964809115   10.78173328062004    4.07323113237154
C        11.53733312003950    8.05123432392141    8.22436559545060
C        12.63124288924874    6.11040717478973    8.30922400305428
H        13.18069217039847    5.26715859774272    7.94759089521420
C        12.21357198639016    6.40324703355047    9.56457487120637
H        12.33951053275494    5.86632931934068   10.48166520963473
C        10.96154078094822    8.26543844018577   10.62673063752629
H        10.54894804467314    7.51677541204326   11.30688516315569
H        10.14687639915114    8.90145900768062   10.25956436796347
C        11.99315505239896    9.11036010126614   11.33648482300820
C        12.56242267467476    8.69221305484380   12.53085503169244
H        12.25295786020054    7.75926196756676   12.97906732430020
C        13.51880698468922    9.47342380926274   13.15728051723340
H        13.95381609827565    9.14327431097894   14.08789691284891
C        13.91406066406606   10.67427572276836   12.59363899665661
H        14.65685364903028   11.28351040641216   13.08463213376063
C        13.35371634204956   11.09530061773301   11.39839032435770
H        13.65420421514021   12.03256043606702   10.95486324593628
C        12.39975220939513   10.31312677362728   10.77544082300616
H        11.95693069239845   10.63886698497424    9.83438938417317
C        12.41470168343306    7.20073394717195    6.07515589541250
H        11.98319872024515    8.16427173819638    5.75342359074239
C        11.67976617729859    6.06632587864312    5.35811339779760
H        10.62066456556729    6.08816451900604    5.62591926797056
H        12.08945663561263    5.10610233782024    5.67684066540698
C        11.84738726290480    6.21256807456979    3.84839424808664
H        11.34210422103152    5.38844511516640    3.34401281383359
H        11.37530550242289    7.14166325748365    3.51935575605934
C        13.32552756256285    6.22715786726944    3.46951605653347
H        13.42857198730404    6.36502137931064    2.39271906415364
H        13.77384312871641    5.26539853037722    3.72585292374541
C        14.06396523085546    7.34194232006272    4.20522396013684
H        13.67010203300022    8.31254426487214    3.89383358704587
H        15.12354437176389    7.31655935896621    3.94950732637433
C        13.90046938176703    7.18848590747565    5.71520676904497
H        14.34909835860252    6.24551974161355    6.03230423656023
H        14.41180868751215    8.00043745874212    6.23747134982972

