49
CSD_code = AMIBAB | q = 1 | S = 0 | Stoichiometry = C18H26CoN4(1+) | MND = 6
Co        3.79513474172313    6.05337575628181    7.12933796738616
N         3.44790127601701    7.80569990511396    6.24457360553530
N         2.62693730060285    5.25496519631832    5.72511386540074
C         5.33119838900705    5.84113755682711    6.02574326861632
C         6.32832407235285    5.75238364383445    5.33733637295354
C         7.44198725566405    5.63324272235209    4.55968595569726
C         8.42705810035685    5.52899842755177    3.87464818316551
H         9.28346846042748    5.43572058919979    3.27763386657206
C         4.50381580957157    9.22402493664672    7.98155789740995
H         4.40330358703571   10.20045737753090    8.45497445459747
H         5.41812570895931    9.23818734894017    7.38230585625359
C         3.29318938453377    9.00259149187655    7.07933618691723
H         2.39805867570040    8.87751232739604    7.69411128551535
H         3.15399011758126    9.88138188448745    6.43828799699315
C         2.30630275698236    7.61896185986326    5.33798043123387
H         2.25174984216239    8.41977237135517    4.59266494468933
H         1.38927420138222    7.63378352921031    5.93471783909292
C         2.46617818663931    6.26115263841414    4.66600051449143
H         1.60426635184933    6.03696349307516    4.02832670646033
H         3.36912869028401    6.25508397389629    4.04802117664071
C         2.97372453896399    3.93746922553805    5.17998219681148
H         3.92999532153106    4.02421268002137    4.65760417339116
H         2.21000877444605    3.62718103358124    4.45675517881812
H         4.27453300544914    7.95503793977242    5.65671499493447
H         1.71605392084318    5.15845444113924    6.18574433420649
N         4.14237574725084    4.30110301310637    8.01414069090703
N         4.96331614262063    6.85186022032641    8.53356020957351
C         3.08650561351961    2.88281475912919    6.27709584430018
H         3.18703555604869    1.90639502939896    5.80365958462886
H         2.17219301773317    2.86861460452611    6.87633940529632
C         4.29712086631839    3.10424789628909    7.17933830960332
H         5.19223909381896    3.22938540829536    6.56455791175269
H         4.43636813219722    2.22545019344740    7.82036570234774
C         5.28397035221398    4.48786497930785    8.92073197696743
H         5.33852766219585    3.68706327562922    9.66605529079701
H         6.20099953330647    4.47304416831703    8.32399537426228
C         5.12409303390816    5.84568675192394    9.59268811249491
H         5.98601038673191    6.06987281975428   10.23035988579557
H         4.22114637343942    5.85176280002453   10.21067156992647
C         4.61655416001949    8.16937551842071    9.07868042922154
H         3.66028393519489    8.08265769278962    9.60106559562408
H         5.38027242311140    8.47968857934780    9.80189700351266
H         3.31573852010774    4.15174375276854    8.60198291110234
H         5.87420824577640    6.94837375343878    8.07294690487286
C         2.25911355517595    6.26580657149391    8.23296373013366
C         1.26187095714547    6.35520624713839    8.92111317189677
C         0.14826110397092    6.47442657010663    9.69882828983707
C        -0.83698769021260    6.57845381868302   10.38363778932808
H        -1.69372519165381    6.67054922610950   10.98036505203268

