45
CSD_code = AMIBEF | q = 1 | S = 0 | Stoichiometry = C14H25ClCoN4(1+) | MND = 6
Co        2.62892490801556    0.75673973611253    6.97930449490774
Cl        4.37826167060242    2.24893475754293    7.03611677499310
N         3.96979953035287   -0.64482082966629    6.66702938485367
N         2.47455023869323    1.16899466617383    5.06462437260334
N         1.30003437396360    2.21171322307322    7.27133520909669
C         4.07923607776376   -0.42628745656010    9.05934236397074
H         4.12149539918156   -0.94003037612774   10.02529725599008
H         4.92073704807087    0.26872517903040    8.99484643369883
C        -1.63303416573475   -2.93326591983089    6.76312777168369
H        -2.42696666047989   -3.61677594394655    6.72845656824930
N         2.83670274478141    0.34774204358612    8.91772074131906
C         2.56281827399701    0.10878785682481    4.05629859593935
H         2.52400417600514    0.55413674231633    3.05522577419893
H         1.69995141675590   -0.55190568853515    4.17420173784408
C        -0.71863450862409   -2.15076508064618    6.80282739233346
C         1.23671316335915   -0.47662666355020    6.88583420374223
C         0.31230317711713   -1.26088031182438    6.85222815268900
C         3.89508756430921   -1.50832365246055    5.48489038354929
H         2.99581646946732   -2.12475518288254    5.56439750376559
H         4.76838880237434   -2.17076823977410    5.46185582056382
C         1.30208409388424    2.02901731370364    4.86167701472539
H         0.40747752602168    1.39894933980252    4.85170956800517
H         1.36310574093986    2.56690532305130    3.90956709787531
C         3.85207392891442   -0.69352831412086    4.19653264386150
H         3.92705872995694   -1.37788569618603    3.35191229520820
H         4.71213344042430   -0.02063533433533    4.15612996458667
C         1.49970447510080    2.26564089062204    9.74129687000197
H         1.44019580263217    2.95808798242032   10.58077658634824
H         0.63426453975945    1.59980211930518    9.79522410310265
C         1.25312954396502    3.00108392952097    6.03130528874913
H         2.13357048495486    3.64886893642448    6.00849858788604
H         0.35569788070892    3.62692486690739    5.99041617854975
C         4.14228881385513   -1.41544567391861    7.90482087888386
H         5.09404616245311   -1.95742864577328    7.90705145600071
H         3.32586070183361   -2.14032409266117    7.97859215920404
C         2.78912588576550    1.46255180050246    9.87161479931091
H         3.64354628830480    2.11412341325098    9.67603446293732
H         2.87869248260151    1.07335385308029   10.89257473053679
C         1.46126126683082    3.07338832751323    8.44877866602629
H         0.63598286834323    3.79392628946540    8.48943002166076
H         2.39613423504788    3.62737813698089    8.33924660743539
H         0.39150724761251    1.74646843481748    7.36527007309935
H         3.30632097442055    1.76443228731421    4.96614239925154
H         4.79973909611207   -0.04735210822962    6.56576235842413
H         2.06300808958022   -0.28087223830691    9.15597425233677

