87
CSD_code = AMICAA | q = 0 | S = 0 | Stoichiometry = C48H34Cl2P2Pt | MND = 4
Pt        2.60386114885850   -1.95607836918863   20.49357576436458
P         3.47580233741453   -0.74802774559122   22.20579615195154
P         0.80109224298709   -0.60075315580510   20.20311032739993
Cl        4.12218600512542   -3.64655961946219   20.78787573503066
Cl        1.79512578697469   -2.98908778050408   18.59578735259858
C         2.02398560387847    5.69773268058631   23.53993978826295
H         2.05289618730475    6.60422553943723   22.95249972808128
C         2.56509289607982    5.67330514106218   24.81115902643298
H         3.02778772265378    6.55910088414572   25.21990731101522
C         2.48838635163326    4.51418067529191   25.56422785383253
H         2.88389253475332    4.49188298692958   26.56895463177096
C         1.88693474743985    3.38740519348793   25.03515868041118
H         1.78943461168915    2.49681929151161   25.63433159851232
C        -0.50505226954881    1.84590392157943   23.88163987847409
H        -0.80884738748546    2.41848302455359   24.74588083737031
C        -1.28003765077381    0.79748053060492   23.43011717036409
H        -2.19195201160236    0.53192093396519   23.94346516518505
C        -0.89192710352558    0.10063008578738   22.30269899900325
H        -1.51639838560357   -0.69748015232350   21.93027946931106
C         0.29316827635305    0.41133863734443   21.64189578582673
C         3.54859750235638    0.99890964463185   21.66776521700538
C         4.77769424640497    1.45050435360019   21.19077821464466
H         5.66115572075568    0.85131576854860   21.35008960144483
C         4.89072872642067    2.65163266307924   20.51811634828329
H         5.85235375567644    2.97871523395851   20.15248365780234
C         3.76344414204944    3.41766228631949   20.30693306719548
H         3.82324456729684    4.34999823744496   19.76485439090823
C         0.93848814782497    4.14633632160050   19.29891574686134
H         1.41614257905929    3.62788057255377   18.48183119810333
C        -0.09576767701342    5.03267899954904   19.06002066564649
H        -0.44023254070268    5.19658453980114   18.04998843703244
C        -0.67293602853085    5.72168677167198   20.11331626686054
H        -1.48101451025703    6.41468892433761   19.93159062403253
C        -0.18860202218078    5.54753860883510   21.39677699167939
H        -0.60496403213616    6.11177322411354   22.21898737847950
C         2.52293225374671   -0.84931333003228   23.74322569398942
C         2.63856273440841    0.07286988289391   24.77619186943354
H         3.28065816307313    0.93466991569883   24.65121950069374
C         1.93704307791756   -0.13059760945807   25.95147609665180
H         2.04046219373297    0.56371894410848   26.77358221648631
C         1.11083786464839   -1.23417424290744   26.09246746342409
H         0.56295801201486   -1.37999209665952   27.01159160675229
C         0.99818837173689   -2.15649714652397   25.06507751396630
H         0.36469443055452   -3.02309188472949   25.18151409004811
C         1.71476421990908   -1.96957266205626   23.89846129050172
H         1.68141902241376   -2.69730546835502   23.09362029621155
C         5.16910057307927   -1.16053009004796   22.71832249719744
C         5.56342107663508   -1.26684927478410   24.04612436798224
H         4.85961997444410   -1.07572460653171   24.84308813226681
C         6.86321181649737   -1.63356518748517   24.35220957356166
H         7.16387608650598   -1.71765793651975   25.38638826724245
C         7.77061113084316   -1.90285070170373   23.34243018061551
H         8.78019467187776   -2.19724839000893   23.58816382786611
C         7.37853239734535   -1.81027651170495   22.01613965224427
H         8.07903406823582   -2.03670694900791   21.22638050739356
C         6.08349615283994   -1.44654308638409   21.70344044949219
H         5.76006915393005   -1.40813595463963   20.67098676788767
C        -0.62286709298197   -1.70440795040310   19.93380704974184
C        -0.70398863579836   -2.79942965170105   20.79500545694353
H         0.04023345025435   -2.90980817498841   21.57626679423939
C        -1.69936401032838   -3.74218971988287   20.64148328810492
H        -1.74853735605769   -4.58992158140164   21.30883955937296
C        -2.62229447453924   -3.60894030694906   19.61488788141555
H        -3.39537643165123   -4.35133960014425   19.48331623798151
C        -2.53611805394802   -2.53567799584509   18.74666575059540
H        -3.24055630361676   -2.44081710368083   17.93321864546918
C        -1.54001203479285   -1.58470540001986   18.89934134200308
H        -1.47002883267552   -0.76866770651377   18.19583170260164
C         0.74448578381308    0.53870550991569   18.80031279112625
C         1.77427630410148    0.49812737723886   17.86898615608309
H         2.63213298868190   -0.13579761958830   18.06141679452820
C         1.67764403378362    1.23826254093870   16.70408762431870
H         2.47424195262261    1.20612294381927   15.97575502597292
C         0.54589734803690    2.00078993559662   16.46167568706754
H         0.45755070728162    2.55548435303099   15.53891325236182
C        -0.47242415524890    2.05986120369265   17.40151494493137
H        -1.34857877824355    2.66315905438278   17.21425412999229
C        -0.36980937367481    1.34447072363907   18.58036252433510
H        -1.14958987181923    1.40010319807296   19.32874271720038
C         1.43632335842138    4.56200820955438   22.99346789726875
C         1.38791138987917    3.38332688594430   23.73784245170096
C         0.66624099218020    2.19888520964580   23.21994849263227
C         1.10038496638961    1.45475842324477   22.11646509970910
C         2.40738175848993    1.80363262869022   21.50310458432460
C         2.53537498937878    3.01638574664706   20.82068973731309
C         1.38731893681699    3.91895083839165   20.59254832140911
C         0.84379477722492    4.65161356205247   21.64619713616134

