44
CSD_code = AMIGIN | q = 0 | S = 0 | Stoichiometry = C16H21O4RhS2 | MND = 7
Rh       11.53001608425743    3.04682445287517    2.21767717064459
S        10.09557743330251    2.07762869225736    0.80161782308819
S        13.09319363188607    1.68873020371725    1.42319606868518
O         9.56913828314442   -0.87572625329253   -0.76561756930645
O        10.46835937122558    0.52846744786796   -2.27598748634057
O        12.63642366210472   -1.05547493674944   -1.30432920106779
O        14.36917513392109   -0.34845687418525   -0.06033755682249
C        10.99304578815630    0.89817730860851   -0.03996935868034
C        12.31570878960994    0.71526028268557    0.22935003796817
C        10.26923137560444    0.05825789749271   -1.04582592681716
C         9.92449431371459   -0.25411577684434   -3.33052423945963
C        13.09328834619186   -0.31412041475468   -0.46313828777189
C        15.18361306873467   -1.32906361176970   -0.67943245745828
C        11.16865331125714    3.51961520204709    4.31943210160012
C        10.21045833584232    4.24534540006393    3.52718401055871
C        10.92859146130169    5.11557169543747    2.66483400196572
C        12.34405655256362    4.95619645426236    2.94189849743530
C        12.48557507295184    3.98756069190797    3.97192559055367
C        10.84303796926920    2.61187358770782    5.46021301433410
C         8.72432655607657    4.20154050235280    3.69143832558978
C        10.33624975203194    6.16277800098707    1.77810600406189
C        13.43351375617102    5.81411800991886    2.38498822929861
C        13.75729277884124    3.63902755008446    4.67832332003291
H        10.48762942909573   -1.18530395155892   -3.41508779814893
H        10.02542193384190    0.34053517337964   -4.23487530102780
H         8.87623479295131   -0.48462372546467   -3.12960098805922
H        14.77040070057040   -2.32632539384422   -0.51116016696013
H        16.16642332452628   -1.23803671374612   -0.22361419230727
H        15.24006075877905   -1.15103840998964   -1.75600363959735
H         9.91186693382801    2.07804705738451    5.28540905317655
H        10.73121566447560    3.20540911192491    6.36977172030154
H        11.63531758180167    1.88497405655542    5.62297538838148
H         8.22375084675148    4.38693820573650    2.74442305076661
H         8.41276122775158    4.96799428587124    4.40313593926633
H         8.39979258332777    3.23394784691155    4.06473131603998
H        10.97622621208659    6.36168592205706    0.92169003380271
H        10.22263709283531    7.09087138922388    2.34162298748663
H         9.35711842590775    5.85905524164562    1.41674652248736
H        14.39005047569560    5.29881576293430    2.41704462807153
H        13.51328690217735    6.72616536565139    2.97968115558504
H        13.22523919332201    6.09725534055576    1.35584535753197
H        13.69851448780020    2.65083923467488    5.12618647451348
H        13.94617289905627    4.36617583626523    5.46989992172997
H        14.59895770512800    3.65210285119673    3.99035642496679

