47
CSD_code = AMIGAF | q = 0 | S = 0 | Stoichiometry = C17H23O4RhS2 | MND = 8
Rh       11.25461813175948    1.63905186238650    2.32423861101505
S        12.82250351154712    3.18897351278912    1.59094189566830
S         9.81950971299401    2.39182327705708    0.61145376700709
O        12.52274763693260    5.14475141557927   -1.78628098099625
O        14.08415092253365    4.94154325140301   -0.17000421659310
O         9.55688070778202    5.17575791903379   -1.34731528778947
O        10.31750888145184    3.41021647696037   -2.51663379457560
C        12.07575801493065    3.81581783624513    0.10776952665688
C        10.80089321985564    3.47480563083480   -0.23317046705778
C        12.87838621679374    4.68950223184184   -0.72030189160277
C        14.93820377620862    5.78129257948359   -0.92761341678534
C        10.16863615482567    4.14588996262539   -1.42161241193201
C         9.82461868698969    3.99289605086809   -3.71631433916423
C        11.59716719206900    3.59496727855846    2.80226092437647
C        10.93254474219260    0.53063434044366    4.25806037779724
C        12.24041198911357    0.26530279073657    3.75298933201938
C        12.10983275750819   -0.45258032113001    2.49635779197063
C        10.74107578046813   -0.52648764641927    2.18358698000567
C        10.00175267192833    0.13090369018142    3.25060640804274
C        10.59141445790090    1.02357870401709    5.62930629695696
C        13.52209862402066    0.40407468470693    4.51315454465269
C        13.24269301325177   -1.11728416532768    1.77916117574379
C        10.09707759893423   -1.28600763535719    1.06645773867033
C         8.51290064296827    0.08544422884340    3.38800070895060
H        15.19512509146932    5.30545330385237   -1.87670640079897
H        15.82850580829058    5.93237567193480   -0.32236152861562
H        14.44629805558729    6.73394352004230   -1.13563444774429
H         8.77574091768037    4.27318865772142   -3.59851723958405
H         9.94017336745963    3.23831385719129   -4.49013326404808
H        10.40996592565193    4.88336250593100   -3.95244119862380
H        10.95066788401084    4.40768983730390    2.48396741179840
H        12.04779058410986    3.77277147856298    3.77741537801735
H        11.38545447883648    1.64472149748158    6.03588485646492
H        10.45291167507436    0.16918853533347    6.29440243880417
H         9.67067716824882    1.60127480363780    5.62101221430128
H        14.35136959513456    0.62980641801363    3.84628950609343
H        13.74379658140709   -0.53377969647648    5.02563732417328
H        13.45428745455124    1.19195143548053    5.25923111363033
H        12.98975869634206   -1.31310034402049    0.74029904284330
H        13.46840833670243   -2.06931970268254    2.26353467024694
H        14.14060782239118   -0.50368011163158    1.80615863792653
H         9.29406810696379   -0.70496374555801    0.61693232478491
H         9.67164423005024   -2.21323000823789    1.45397801365634
H        10.81809734742049   -1.53318605149642    0.29185236817112
H         8.15932907518708    0.84172621039869    4.08385140146856
H         8.21272990990363   -0.89565369807809    3.76074018805410
H         8.03200684258389    0.24797766896450    2.42630791592107

