111
CSD_code = AMIHOU | q = 0 | S = 0 | Stoichiometry = C43H62N2PScSi2 | MND = 4
C         2.65245558434643   13.44258267602676   12.27053354127828
H         2.22720789182106   12.42235185598876   12.27159209387781
H         2.02223334498329   13.98851107478673   12.99423658034609
C         4.61279293810844   13.10397256672825   15.58412246035317
H         5.58597488147682   12.72353435718855   15.93679500689441
H         4.50775545248799   14.10112942960016   16.04687199150802
C         1.77580808094449   12.82501972703533    9.30724189325664
H         2.44141627311520   11.96803028131246    9.34727960391196
H         1.78436469156572   13.20390601294708    8.28951721906424
H         0.77261974462380   12.46203663722300    9.50935917666360
C         3.77738379930095   15.15549655819273    9.86685461430828
H         3.65502247316207   16.22544969924878   10.00730895765685
H         3.90614302275479   14.98691623574388    8.80138210169725
H         4.70733346637376   14.86389656850391   10.35923540277016
C         0.81027524360805   15.43149320773785   10.59026854714523
H        -0.10853761342896   14.96069775855475   10.92622293646629
H         0.62471570907989   15.84543546365862    9.60358327439488
H         1.01195489655011   16.26312323240854   11.25934750419772
C         3.17397564683616   10.39012766859217   15.22160489582080
H         3.06538052696338   10.64696010977162   14.16769461375279
H         2.33023596192762    9.76672389738777   15.49979833580595
H         4.07114767631779    9.78609820654532   15.31840932355784
C         1.57423793980941   12.84280482364277   16.25078286852365
H         1.57587161179652   13.74706466312525   16.85103396820453
H         0.78992675616007   12.19829173757841   16.63442745933403
H         1.30552344638175   13.12153771354042   15.23635712695964
C         3.56979608008473   11.40127922842166   18.10583643974753
H         4.50258786495679   10.85263286990143   18.19776800250828
H         2.77357114060595   10.74952483237954   18.45273095323969
H         3.61960608784639   12.24693903768770   18.78512561923938
C         6.22943185896942   16.03022174869776   14.10028742772916
C         5.20332467251625   16.98260143459477   14.20084162549493
C         5.32275962261383   18.00930325457558   15.12785322413835
H         4.53916437197521   18.74774283367649   15.20734178637890
C         6.42951320975078   18.11212678884675   15.94657897055476
H         6.51058378912315   18.92501468648940   16.65288276496380
C         7.42670709571586   17.15981201345773   15.86338108224926
H         8.28334740712674   17.23216138305069   16.51683154547913
C         7.34488898511962   16.11690631122823   14.95416944850471
C         3.95766500572630   16.90455223106316   13.34579751135448
H         4.04981089265520   16.04655794721776   12.65981565105607
C         2.73015088309704   16.66607800680636   14.23060901828360
H         2.85596907351277   15.75195542505265   14.81134032445418
H         1.83855724713581   16.56603054098256   13.61599719414743
H         2.58169529637213   17.49579407899348   14.91787266562059
C         3.76627942746356   18.17041277310227   12.50665697577549
H         3.59083842110120   19.03634013473765   13.14036782797700
H         2.91001649307599   18.05261678359870   11.84607603488536
H         4.64525903518733   18.37058292605854   11.89745010835589
C         8.42998476726381   15.06242228474214   14.93127832344698
H         8.17211895832095   14.31937665718536   14.16847620577846
C         8.48961221450656   14.34811640559234   16.28408757657496
H         8.82059091527957   15.02659281403668   17.06664604391219
H         9.18475585416772   13.51210430045899   16.23783852805646
H         7.50461713892953   13.97138501647788   16.55134940743292
C         9.79845027316509   15.64869115172821   14.57844479108694
H         9.78122194972286   16.11804362727904   13.59692255937505
H        10.54769045680976   14.85921007885933   14.56732806914029
H        10.10157740009830   16.39634481790050   15.30760515385026
C         6.86396633426882   15.09474363846603   12.03685194806689
C         7.35593191791858   16.46759430745845   11.63181289744992
H         6.50182058845238   17.11388853442984   11.43370562782887
H         7.97313083578470   16.41995484079894   10.73897329699703
H         7.92682090360411   16.92115687070754   12.43960815663474
C         7.11961491845227   14.05910369907767   11.15802793970452
H         7.61465782012055   14.29600651231595   10.22228284831544
C         5.50295727954364   12.04467105263098    9.12056512880362
H         4.78784360825018   12.55815916911249    9.75225055639779
C         5.18875198216100   11.70810557146930    7.81822049121738
H         4.21824327365314   11.95510496142132    7.41465682312402
C         6.12574960466928   11.05567641897403    7.03132034204322
H         5.88531844670877   10.78867936881715    6.01276059318799
C         7.37390312713910   10.75310697230240    7.54857079977155
H         8.10741018564299   10.25350654463532    6.93243959310025
C         7.69179883989547   11.09291393523510    8.85334675588076
H         8.67335726356529   10.86756737251630    9.24521040825386
C         6.75049042586544   11.73000975088292    9.64938222580527
C         8.67451803393995   11.61383556431063   11.77019910282511
C         8.85436730876869   10.23408820370161   11.73936657715386
H         8.04695364293148    9.59531255093502   11.40763116150365
C        10.06163826991734    9.68710439438029   12.13427412376193
H        10.19840795721909    8.61586703588514   12.11427891461634
C        11.09230582015338   10.51164996217421   12.55776875483249
H        12.03379461602723   10.08159133537448   12.86655675632931
C        10.91782180947103   11.88611185954841   12.58322743426031
H        11.72433278516570   12.52743046143392   12.90826782227492
C         9.70965692353196   12.43615193420399   12.19419161132323
H         9.55748219445810   13.50680877002688   12.21023555526442
C         6.00105473586259   10.48863293080962   12.93104592795262
C         5.19431063968505    9.49430394720910   12.35753338564508
C         5.25061837975626    8.19884139015379   12.84802938133244
H         4.62826408861844    7.43990973444530   12.39575995995573
C         6.08560972288655    7.86884785007262   13.89918768703031
H         6.12576780673685    6.85424667942746   14.26615971050681
C         6.85194411087640    8.85557601075576   14.48599526481287
H         7.49292057794840    8.61687324982159   15.32290294040315
C         6.81925297968105   10.16439394551864   14.02297858457576
C         4.26654638496315    9.81051296865305   11.22276119186154
H         3.84899209623110   10.81217239472470   11.33757312722552
H         3.45434819808450    9.08762082262545   11.18787643873832
H         4.79780807818996    9.77069081471775   10.27071599670277
C         7.65517733545692   11.18934001843435   14.73136311023512
H         7.46302603406530   11.14025288434728   15.80303962223060
H         7.42613773734576   12.19488053997421   14.37446821442682
H         8.71670448847010   10.99476194805026   14.57472271403771
N         6.16563916793244   14.96202317766499   13.16460752063164
N         5.94314898545237   11.82356645508756   12.43590515587810
P         7.03543381633718   12.32184213583834   11.36307191511254
Sc        4.68710288471682   13.35927210959058   13.33310834499616
Si        2.26812636659458   14.18338599647780   10.57290527016799
Si        3.28155532970691   11.97508381426123   16.29535393027767

