114
CSD_code = AMIKEO | q = 0 | S = 0 | Stoichiometry = C43H66N3OsP | MND = 7
Os        6.61800702997707    2.49816962270617   13.15930588894353
H         5.88669376868953    3.87082164143583   13.00643459041378
H         7.29681965884934    3.70773603612142   13.92676587520545
H         7.94917770504942    1.99724609138593   13.89792767812678
P         7.99906646352848    3.11716061517197   11.24701163581270
N         6.74365396256171    0.50921508596600   12.58533209483955
H         7.48216139825057   -0.12741764719109   12.87680979471326
N         5.20203923082442    0.90013822755514   15.46298804882634
N         5.50218195440765    2.96164768633764   15.99404910941076
C         4.89940957291443    2.13831880824881   11.92055158247474
C         3.82702228792251    2.96493555547122   11.56282058910188
H         3.71965455068279    3.93564304358608   12.02765305021192
C         2.87965366930273    2.60596655024097   10.61852965787361
H         2.08077206337381    3.29524124238271   10.37597656373055
C         2.94750331044654    1.38214521507097    9.96330513994765
H         2.21840183987668    1.12150346119071    9.20869583090459
C         3.94859718716974    0.50248748479144   10.30903816094465
H         4.02475897183786   -0.46990967203853    9.83716528254042
C         4.89006765389563    0.87138953542767   11.27558694233684
C         5.94356109733333    0.01453329522928   11.70003769986375
H         6.06012841163828   -0.99758625396046   11.31098283626589
C         5.63507746523996    2.09058270937265   14.94702603042104
C         4.83712970922018    1.03435538810945   16.78310151172822
H         4.48049843729648    0.20419021002171   17.35847114028761
C         5.02646656681074    2.32523554606955   17.11382877481779
H         4.86989017438829    2.84477060596975   18.03711456860531
C         5.06079122725512   -0.36388939088147   14.82597402275295
C         3.84025432436903   -0.67936482903823   14.21797201724787
C         2.70980901506425    0.32579925997055   14.17614982144060
H         3.15007911798103    1.32367948199603   14.07188282008938
C         1.75863160467940    0.10787668532260   13.00038343359891
H         1.11095958117184   -0.74950440951373   13.17261647959118
H         2.30958220498180   -0.04061232438413   12.07684137691765
H         1.12736676248370    0.98527502211502   12.87815397543379
C         1.89595581793175    0.27288439247025   15.47545405121255
H         1.53986343818349   -0.74054498578932   15.65323688492578
H         1.03396576712009    0.93126076375165   15.39320745304339
H         2.48197582321137    0.59054343194064   16.33259828906994
C         3.69045382497820   -1.95293069873066   13.68537531218286
H         2.76461161093161   -2.23026405225329   13.20851241841636
C         4.71129687325336   -2.88080446239566   13.76469987466454
H         4.57358607468066   -3.86802234762475   13.34750831724763
C         5.90383484537405   -2.55680813564362   14.38244865654556
H         6.68485797017681   -3.29824728329259   14.44567734963209
C         6.10182860861188   -1.29420130318891   14.92521921492804
C         7.39663163241533   -0.94264723427748   15.62655795728480
H         7.54107308126244    0.14061132738947   15.55226834229968
C         8.62033617869801   -1.62287585326212   15.00718573605075
H         8.65949073106483   -2.67831219282997   15.26832538419812
H         9.52633577714084   -1.15196435528045   15.38280843789835
H         8.62273098289756   -1.53872591941038   13.92250090653169
C         7.31447635540197   -1.32604534940027   17.10825365460431
H         7.09192794321863   -2.38676122789697   17.21127750296970
H         6.54247933283192   -0.75949354120867   17.62109934501827
H         8.26516613163357   -1.12295453968048   17.59656807292117
C         5.78980239082542    4.35506624694673   16.05892425655428
C         4.81662763536329    5.27278174846799   15.65000832484232
C         3.51609477868084    4.79464373918317   15.04574421481985
H         3.71577318343179    3.85104031966770   14.52828550119457
C         2.94662796626569    5.77534369711875   14.02129291317702
H         2.54402861685107    6.66425707217770   14.50184502500196
H         2.13684259654652    5.30041598020033   13.47108368659983
H         3.71777258615054    6.07568997693315   13.31582926499812
C         2.48683447073009    4.54148173087578   16.15260450999468
H         2.83160450699614    3.77269346948300   16.83987451692396
H         1.54503178119815    4.21373810036662   15.71785741330417
H         2.30808487398677    5.45439456316667   16.71786478928040
C         5.06437034258894    6.62282698467878   15.85455650735358
H         4.33078836810753    7.35516329468418   15.55840727902595
C         6.23848527295666    7.04781932610817   16.44722235745046
H         6.41017400880481    8.10276470018619   16.60467546146431
C         7.18925968785720    6.12835249113743   16.84260221107061
H         8.09945522407544    6.47326787156334   17.30829903508691
C         6.98293452332855    4.76765614675208   16.65781294629714
C         8.02555919077526    3.77271416202107   17.11233235352319
H         7.75479901339916    2.78394797834374   16.73220415826667
C         9.39987663599237    4.11689656601546   16.53760662437778
H         9.32690183805662    4.21564404970087   15.45803860071935
H        10.10703964590436    3.32267994571799   16.76699279424455
H         9.78491719088406    5.04524949368765   16.95132499715777
C         8.07750520561898    3.71333473677318   18.64124735374880
H         8.34019950191497    4.68491003301314   19.05349622895442
H         8.82338199896608    2.98969284070799   18.96283718321179
H         7.11421657999908    3.41774673399527   19.05124553951100
C         7.23542757408799    3.87675461994688    9.70433954309340
H         8.06166280770141    4.25742049450583    9.09524345651701
C         6.33883812996260    5.04389095010883   10.10747410945512
H         6.04282577611737    5.61398424969987    9.22663332933027
H         6.83919766743868    5.71353656160571   10.80400090690529
H         5.44157736742716    4.66617009692970   10.58957202915037
C         6.43389084951690    2.88829566391414    8.86362185964613
H         5.65133706101940    2.42446269294477    9.45632552768423
H         7.05865556200287    2.10540547790087    8.43927344810664
H         5.95824705916639    3.41891880448540    8.03847838986083
C         8.99571370662656    1.72801488133789   10.44085983342687
H         8.18347200845769    1.07532539635517   10.08549718091826
C         9.82099742230833    0.92328752510991   11.44812582919814
H         9.89491108296667   -0.11758007066157   11.13171392041348
H         9.37260989533635    0.95741250941815   12.43770557608522
H        10.83126732877007    1.31629341298018   11.52748891894780
C         9.87574384285207    2.08499365640727    9.24515096508657
H        10.73124928444822    2.67898810497027    9.55685613427039
H         9.33515144317784    2.62640811324461    8.47432997627273
H        10.25789211510961    1.16501480458941    8.80068033119045
C         9.21557848317237    4.49560283515812   11.69515039183414
H         8.59368613913690    5.13280053888110   12.34082115338277
C        10.35331068449046    3.95313232235988   12.55767138336656
H        11.11168784046205    3.47366519835843   11.94386929268811
H         9.97251344215660    3.23505066641918   13.27929716254536
H        10.82985599273902    4.76763214589848   13.10273752322421
C         9.79175995658288    5.37141810888906   10.58300057151953
H        10.49127165759782    6.07721328813283   11.03194678426007
H         9.02548275241452    5.95065926552304   10.07607404694990
H        10.33754867004069    4.79033767129604    9.84517718943583

