87
CSD_code = AMIMOZ | q = 1 | S = 0 | Stoichiometry = C34H48FeN2OP(1+) | MND = 8
C        10.56764676753055   -0.29691334558699    1.33914414084709
C        10.08237614530901    0.96574554164773    3.75085585923527
C         7.24687812483841    0.89628833295775    2.71036195624329
H         6.85971481628853    1.40585058595642    3.57615240547419
C         7.30255959266932    1.39830470424140    1.40248801302306
H         6.98519447459853    2.37595910431176    1.08099479600663
C         7.72534418614689    0.34735725426373    0.54344386006923
H         7.76033970477888    0.39313528958755   -0.53104058896436
C         7.87145938430069   -0.81797086918879    1.32659629046998
H         8.09137979400130   -1.80316090922431    0.95284826944993
C         7.61469557672227   -0.47756224819038    2.67006361315249
H         7.54290217779914   -1.16382448270863    3.49670580117048
C         9.91545120183584    4.05857146920882    1.46822086678594
H        10.50854510603599    4.73095673373357    0.84060830373543
H         8.85680383915049    4.24718789974064    1.27796052397189
C        10.20692190148157    4.28980189567880    2.94578358030900
H         9.97935063669298    5.32719925873300    3.19566823551044
H        11.26747943084999    4.12341521582546    3.14808497479346
C         9.36398058386811    3.35063053819458    3.82083972520487
H         9.01575023329623    3.88534382543327    4.70727651986115
H         8.49167838814516    3.02427210238194    3.25518060943384
C        10.02295515009099    2.29267493745607   -0.79677257838328
C        10.76188944497499    1.39539318316863   -1.56660915276216
H        11.52903425516217    0.79702573380885   -1.09658449972322
C        10.52814336977805    1.28241308011227   -2.92373862223366
H        11.10983513080088    0.59040235317162   -3.51312771537791
C         9.54797947576337    2.05597536684671   -3.52600112940051
H         9.36451146878280    1.96766564027231   -4.58551759524586
C         8.80372416314872    2.94257154310447   -2.76579093233670
H         8.03958876593200    3.54566042639335   -3.23233149510598
C         9.03354753536176    3.05836774341242   -1.40583141261055
H         8.44155657557416    3.75217020912526   -0.82777186051812
C        12.13668594752923    2.40152842489144    1.07806276508904
C        12.83661965314691    3.21922931801942    0.19306505693140
H        12.30200212718634    3.77040584888751   -0.56863435751616
C        14.21365514538192    3.30899470878949    0.27497292119929
H        14.75241745867547    3.93836883685531   -0.41661174395148
C        14.90208430947861    2.59049393755795    1.24016851165072
H        15.97697637783981    2.66155029142620    1.30033433966542
C        14.21106104546493    1.77727673663653    2.12320779075087
H        14.74763523379285    1.21497796368712    2.87261937275123
C        12.83277580891347    1.68262898540032    2.04193227656995
H        12.27965891491050    1.04571339751663    2.71747616317698
C        11.19973962919307    0.22578231275155    5.81834702698366
H        11.25335131387749   -0.74323671963700    6.31286527105194
H        10.53053268257507    0.85140321264834    6.42025582279288
C        12.60465622879180    0.83970961674013    5.77187273075309
H        13.26598007083285    0.17647799995169    5.21346941266512
H        12.58224905457154    1.79333941659350    5.23897347890626
C        13.18578945600854    1.06333847970227    7.17017735460860
H        14.08258251008581    1.67442388258145    7.06654056650118
H        12.47321644913311    1.62315792684046    7.78081406647901
C        13.55396746322701   -0.23578351481378    7.88578504639112
H        14.24177899397003   -0.80920927971405    7.25998656979854
H        12.65586333574542   -0.83845977292982    8.03643839660023
C        14.20310817414246    0.00223339659663    9.25071432408753
H        13.56073900247251    0.65381406839994    9.84688003099155
H        14.27130709548436   -0.95601355386438    9.76939305077613
C        15.59914017393606    0.60686582112287    9.16031330413724
H        16.04268105515933    0.66841696495972   10.15047849231586
H        15.57231708707607    1.61034548251778    8.74331978420188
H        16.24239897075398   -0.01033425562150    8.53697491893187
C        10.61757957871666   -1.38962904263263    4.08169099543014
H        10.04107346387638   -1.46877745742773    3.16025114116179
H        10.10727397831280   -1.97459173251333    4.85392559658413
C        12.01413121611249   -1.96872689905298    3.85018269722448
H        12.56396070120191   -1.32615128793378    3.16063977980997
H        12.56811172433139   -2.01530093390382    4.78880501256305
C        11.92462396465202   -3.37522849305794    3.26111469574627
H        11.34492771388989   -4.01356287948387    3.93134118624547
H        11.39992409078457   -3.33355178409717    2.30471678890581
C        13.30673850145304   -3.98851255130830    3.04976752764798
H        13.83490501860784   -4.03151260958581    4.00506849908310
H        13.88545348839740   -3.35000022994568    2.37854383491892
C        13.22423668354702   -5.39431420061509    2.45980962464167
H        12.63721000172414   -6.03078948515705    3.12547619070160
H        12.70574459075811   -5.35197795309273    1.49956035074130
C        14.60554973859939   -6.00576594990212    2.26379961484796
H        14.52396035969718   -7.00498618636347    1.84441244908187
H        15.13127078224484   -6.07518111351838    3.21346216688013
H        15.20075868720545   -5.39724865021748    1.58663774052958
N        10.08538794610902    2.18754394874888    4.28357935997743
N        10.61925746525394    0.00314419158544    4.49429279570972
O        11.32158554045197   -0.96550082106617    0.79682588859537
P        10.31891193572602    2.31814453181481    0.99637396912122
Fe        9.27776067825904    0.67861224549822    1.97109773313809
H        10.54777397906265    2.33751729496849    5.17007085341694

