87
CSD_code = AMINUG | q = 0 | S = 0 | Stoichiometry = C32H52NiP2 | MND = 4
Ni        0.37424067609437   13.59585035857491    8.24264057936617
P         0.69978826075518   12.31434337525506    6.37982763666074
P         1.98917801922838   15.02416454092215    8.94834405873584
C        -1.76258452023965   13.20263188264956    8.63639858029429
H        -2.28263177421421   13.65984195126496    7.79834203410048
C        -1.13501844764058   14.01508596967537    9.58936146463008
H        -1.20658887705551   15.09811489186916    9.50732657645087
C        -0.77455022897004   13.45251741604749   10.85024817592627
H        -0.33566568657804   14.09419253289540   11.60279554064713
C        -1.01075455568212   12.14514350323966   11.13368276294191
H        -0.72622897275776   11.72920718053301   12.09064627328319
C        -1.68727660055532   11.30009802480406   10.20906090442491
C        -1.98898230219498    9.98038368481540   10.51122426336062
H        -1.65698321294042    9.56565429127579   11.45407955263934
C        -2.71662277443483    9.17282143612079    9.63454553459492
C        -3.01869882354810    7.82146764114600    9.92347052237918
H        -2.65630389744315    7.39974856423924   10.85104382907168
C        -3.75076605727816    7.06611045123222    9.05567781116154
H        -3.97764895393439    6.03461828705725    9.28452947852170
C        -4.22145709143351    7.62255897998641    7.85080661087336
H        -4.80037076298943    7.00736723308599    7.17671056784476
C        -3.95005114621077    8.92166472892348    7.53841901220754
H        -4.30819380016456    9.35180821166266    6.61290208857704
C        -3.19100290276547    9.73619226829021    8.41179238511408
C        -2.88342212031705   11.06479551432054    8.11119074220881
H        -3.26177076859876   11.48655215602023    7.18849344526143
C        -2.11018693949718   11.85122037206748    8.95695595294975
C         0.49506302698946   10.60329665247684    7.13568441855987
H        -0.58980564409070   10.52214728101968    7.27404524022698
C         1.12517876909053   10.64234942623805    8.53023040095277
H         0.71247590567218    9.86193409461193    9.16734292539838
H         0.91773931954403   11.61833194642595    8.99967477364615
H         2.20455975613015   10.50883975518655    8.48327224069599
C         0.95441099371586    9.36851067706517    6.36875742935065
H         2.03284235417229    9.34607604604190    6.23598468717043
H         0.48504243040127    9.29982389129259    5.39134091013020
H         0.66942666535588    8.48167234363291    6.93485137794134
C        -0.80216686485161   12.40880100720014    5.25567585976840
H        -1.59900503468296   12.02943963917751    5.90540477308954
C        -0.82229136152460   11.57887831495344    3.97771445698945
H        -1.78674714069007   11.70677241724927    3.48563788336265
H        -0.69923487309049   10.52098689119239    4.19244885498940
H        -0.05081268889986   11.88368535669760    3.27638663991165
C        -1.11606858241944   13.87815360322638    4.97022474625999
H        -0.43367250558683   14.30144844333358    4.23755495997318
H        -1.02611916579895   14.45790003941412    5.89145029494822
H        -2.13124036996674   13.98929758245335    4.59023173188702
C         2.11098284769765   12.05607844201158    5.16644109520680
H         1.86993471980623   11.16245341618249    4.58269469837335
C         3.42219263872108   11.83340217686007    5.91236895122023
H         4.22161955017389   11.60209292041080    5.20884153649895
H         3.35343886619783   11.01821188141349    6.62616790685857
H         3.69390933569123   12.73584929324777    6.45299442894027
C         2.29303159557634   13.24022804716255    4.22226912015149
H         2.47332492975803   14.14736271390405    4.79084831219831
H         1.42639991197093   13.39792444732734    3.58800736254973
H         3.15303937121476   13.06595056643521    3.57521491392236
C         1.41313239713411   16.45732577444815   10.03084230195127
H         0.76167951911640   15.95177194799082   10.75437007247875
C         2.44671823307739   17.24513241826077   10.83190412474510
H         3.16947838238284   17.73957645362441   10.19177171070559
H         2.98168502906949   16.61605762314280   11.53767583877448
H         1.92882019739181   18.01474880878685   11.40515653867307
C         0.53495168599665   17.41248326055690    9.22329079524810
H        -0.11563959864335   17.98407672207072    9.88499236052300
H        -0.08792727689196   16.86220774114912    8.51888161413006
H         1.14456189486285   18.11995438782040    8.66649898007531
C         3.37105880380402   14.33625097200147   10.00817764305772
H         4.04978471753019   15.14366078448462   10.29817669839506
C         2.75766540927422   13.70657936042963   11.25636838733823
H         2.03660549001174   12.94381395586403   10.96530204743880
H         2.24755155445095   14.44416425715289   11.87061226466967
H         3.52941485491867   13.23576895657330   11.86438269054563
C         4.15411263203190   13.27420045294474    9.24517871485394
H         4.81435247194795   12.73359898781758    9.92230937058432
H         4.76747259311249   13.71253812155223    8.46165283324338
H         3.46116209930931   12.56315691491670    8.79962721284665
C         2.93826564502833   15.76290439762114    7.50733837554330
H         3.44761102898287   14.88054618272728    7.09906870106842
C         3.98987549085209   16.82796832053273    7.78938812902618
H         4.58508421371143   16.99512107488211    6.89130300992258
H         4.66498770650405   16.52629377375445    8.58633392276009
H         3.52679873649969   17.77450706497359    8.05536063242766
C         1.95129358915090   16.23265887982851    6.44001952840079
H         1.52019199569170   17.19712605102006    6.68995606652955
H         1.14303612576746   15.50170711801558    6.35017751047839
H         2.44611988409275   16.33294447357392    5.47430260865404

