102
CSD_code = AMIQUJ | q = 0 | S = 0 | Stoichiometry = C39H59N3Zn | MND = 4
Zn        3.22442239861584    3.48119059711673    4.82759657394857
N         4.13962576299216    4.89070798420714    3.59918600687772
N         3.61087391969007    2.87984245720244    2.87374271968902
N         4.94933309179358    2.66904179207592    6.11651618517841
C         4.13813326864037    4.05182159363406    2.57810682690070
C         4.45374461440121    6.24998029646499    3.65108746675212
C         5.65746012686902    6.68858043476147    4.23453215605298
C         5.92992549852945    8.04565371296855    4.31216365722018
H         6.86037976110989    8.37821776896998    4.74753241413046
C         5.02655502651106    8.98285293005727    3.85218450975192
H         5.25930600614764   10.03655046925607    3.90080883021514
C         3.79898451878322    8.55957801599112    3.37953077931545
H         3.06512000686265    9.29558409798909    3.08846421649538
C         3.48846964557991    7.21250129758857    3.28587362057824
C         6.59371812192413    5.69785171345687    4.88680287342658
H         6.32251141232066    4.70260418174424    4.52986238729507
C         6.35527774774267    5.74358377656458    6.39974738339622
H         6.58101983445827    6.73475580051731    6.78773301092679
H         6.98556525766012    5.01786968165479    6.91229544574139
H         5.31346878086856    5.51725970257391    6.62072596097369
C         8.07175319995141    5.93712757300681    4.57896173695128
H         8.24328033251373    6.00365912257089    3.50725082655029
H         8.66735057592279    5.11433643382482    4.97166769690277
H         8.42668415214788    6.85517018394462    5.04058557035169
C         2.08177375509167    6.79358427789868    2.92454268647701
H         2.09976837563654    5.74006661815326    2.64008576744814
C         1.21093289961443    6.91887853973642    4.17906117908973
H         1.62079728430736    6.30648897558779    4.97965615754603
H         0.19623322260540    6.58568217249216    3.97078731176836
H         1.17641413467561    7.95305964725837    4.51664839992389
C         1.46586942002443    7.59299580600200    1.77622792847722
H         1.23588716837623    8.61065336571895    2.08290404197180
H         0.53531321543051    7.12363703386235    1.46215039312830
H         2.13577433331161    7.63423848282011    0.92080068062236
C         3.17504757391002    1.82928329118230    2.06936107628717
C         1.97838588990557    1.93428702421468    1.33325178870204
C         1.48460135726998    0.82005254663758    0.67452272841297
H         0.56247252866035    0.89823823572655    0.11801319191203
C         2.14133837521312   -0.39438366260014    0.72201968960604
H         1.74037070919836   -1.25191722915413    0.20174291114260
C         3.30974329994734   -0.50234928112889    1.45024954908489
H         3.81681352697252   -1.45456950156427    1.49894728749246
C         3.83612991538188    0.58939772249215    2.11991757509365
C         1.19382157599479    3.22451146610085    1.30677930749460
H         1.83864285023257    4.01782954296138    1.69113063885924
C         0.74531275838391    3.62300866983002   -0.10021436902852
H         1.58399677911860    3.60944283085999   -0.79388124957417
H         0.32749107640427    4.62832525015718   -0.08566505227143
H        -0.01931605314329    2.94844106061891   -0.47735033411324
C        -0.01144165576712    3.10730221102802    2.24262701788522
H        -0.68411043784283    2.32216039416645    1.90349121023320
H        -0.56039285389271    4.04665271795356    2.27555586275758
H         0.32472906020157    2.86353069877951    3.24838070313860
C         5.09606030103508    0.44444448134068    2.93910081470493
H         5.44972668914303    1.45468673132962    3.16224081379106
C         4.76619741157508   -0.25609228235149    4.25924067178368
H         4.00425954909843    0.30553222850765    4.79758755144055
H         5.65168192819641   -0.33416261537289    4.88912908829142
H         4.38590656192581   -1.25747672419220    4.06853776431916
C         6.21019736660437   -0.29701424617624    2.19941646464106
H         5.96289046940901   -1.34674951239923    2.06397525550469
H         7.13686755004215   -0.24198753981803    2.76897033274176
H         6.38174230529458    0.14215370583008    1.21854978677899
C         4.84121633504985    4.37035810372379    1.24570306392702
C         4.85308462906049    3.19556030170701    0.26282651799913
H         3.85330953320282    2.93759048760650   -0.07151307201391
H         5.30954329456524    2.31375309582648    0.70237363325090
H         5.43814233754460    3.47781160392916   -0.61220387030310
C         4.20001119172958    5.56647506198921    0.53440666625807
H         4.71616738149652    5.74044077735997   -0.40888851179892
H         4.27698971698498    6.46829734653387    1.13387352529181
H         3.15331381720604    5.37193874399178    0.31634150253213
C         6.30558401914538    4.71173170087929    1.55947374296639
H         6.85354582614305    4.85804042282365    0.63000387509835
H         6.78119600821213    3.90211834542807    2.11048147236648
H         6.37425504926991    5.62503173206087    2.14103233627997
C         4.70752396713122    2.55358758108096    7.41729536616796
H         3.69313504507602    2.75199578027261    7.72958228116492
C         5.67271458430235    2.20436773541082    8.34069436261879
H         5.39575424445013    2.13191256021933    9.38020919525752
C         6.98113612253477    1.95572333967287    7.92684166704413
C         7.21848944026415    2.06800669596652    6.56127087720750
H         8.19432274727006    1.88923522418441    6.14198979561658
C         6.18530322085385    2.42095264544848    5.71030793756579
H         6.36558419953204    2.50475622135650    4.64958200185466
C         8.04849673654691    1.58804911002287    8.93795889421708
C         9.42121657755437    1.38696694747101    8.29167689370719
H         9.40115738915815    0.57365502378412    7.56987600329618
H        10.14852433839448    1.13407122405040    9.05968070700676
H         9.75822742146887    2.29558691719797    7.79794082931518
C         8.15845032401270    2.71782155186848    9.97168779431286
H         8.41583652215477    3.65492967461833    9.48257764069178
H         8.93508611141893    2.48319081408205   10.69559180837560
H         7.22494282095413    2.85854317459429   10.50884784405065
C         7.63915347906825    0.28145084712394    9.63194304207946
H         6.69339777114395    0.38971725178533   10.15546511064107
H         8.39802813754164   -0.00778138973665   10.35507170217611
H         7.53617429441036   -0.51862922010004    8.90186324420639
C         1.60163734960914    3.46586457784389    6.03724206200551
H         0.70487148929875    3.80936277110248    5.53171640708446
H         1.73458600137770    4.10968936492866    6.90248594989099
H         1.38749724526970    2.46884109923115    6.41163822141693

