78
CSD_code = AMIQOE | q = 0 | S = 0 | Stoichiometry = C27H39BClCuN6S3 | MND = 5
Cu        2.98389611380110   15.97746757899425   10.01587876508830
Cl        1.83189659368475   16.85604705395524    8.38269721301109
B         4.09254535887265   15.13239566900406   11.57058392674733
S         3.13469799846183   17.81495618719714   11.56733563827966
N         3.53599919681231   14.78142276180208   13.92136187994270
N         3.53944239919562   15.61880785614929   12.90431275865480
C         3.17289707201738   16.91574205832697   12.99115509657154
C         2.81232190226371   17.42808583495125   14.27293898156194
C         2.82121121577349   16.55166442524819   15.32147347330125
H         2.54138263254791   16.88727457961237   16.30793442905139
C         3.18809221705646   15.19778208169363   15.10400010858882
C         3.19791153539520   14.18009160876354   16.22248553064730
C         3.69262858186170   12.83274121366339   15.69277588387876
H         3.03607379713258   12.46969518622932   14.90704232339892
H         3.71695582612219   12.10244525090239   16.49812711977646
H         4.69042821948263   12.93693140820463   15.27573580344824
C         4.13437086556460   14.66280220712289   17.33705342621558
H         5.13654090077500   14.82380939131002   16.94671953623261
H         4.18527833464026   13.91438616880720   18.12419627286866
H         3.78344871077166   15.59273973488252   17.77631432076443
C         1.77179516851252   14.02395755000951   16.76461942675356
H         1.39987618709016   14.95956130427730   17.17441866567914
H         1.75603636552712   13.27541000046168   17.55313424808928
H         1.09934980025984   13.70468879422096   15.97170924373530
C         2.42780363635069   18.85802503246884   14.39167988924555
H         2.20144650389903   19.12346158700313   15.42039454215625
H         1.56005162070487   19.05300044983159   13.76298172813143
H         3.23289535165238   19.48634715384210   14.01441893587689
S         1.56327167191786   14.13127164131671   10.71742682043473
N         5.05909062848949   12.90359266778404   11.80173149476540
N         3.99316985498408   13.61430627102713   11.49306538525664
C         2.78800738898806   13.08025723164247   11.19715523084762
C         2.64267707283996   11.66315261279611   11.27858875241086
C         3.75304155593776   10.93837176071474   11.60887534609362
H         3.69774734525853    9.86248725827740   11.66782668773198
C         4.98001102899202   11.60637929718135   11.86084494051622
C         6.24501469876058   10.85514929242426   12.21029808403220
C         7.38010103306305   11.84635081970280   12.47440285636009
H         8.28665589607419   11.31049724374368   12.74553203930759
H         7.10918843558055   12.52033712030240   13.28229229510415
H         7.57538404722251   12.44446704186722   11.58874921281109
C         6.00186449756994   10.01398481413956   13.46941479646291
H         5.23022681499842    9.26663128999167   13.30532902504377
H         5.69396125616572   10.65011130350467   14.29596923666629
H         6.91762947546006    9.49946930526842   13.75041488334185
C         6.62342355192767    9.94598501827402   11.03455906833706
H         6.76337707223582   10.53557347576844   10.13141686277893
H         5.85234040578550    9.20383425280322   10.84427773647431
H         7.55217622385587    9.42492092364324   11.25415080777849
C         1.31893559688701   11.05972643556290   10.97797238804534
H         1.33547442191069    9.98168301764499   11.11056326190582
H         1.03659201857407   11.29870929356933    9.95347222692277
H         0.56006309968605   11.50204263275924   11.62118390230477
S         5.03209094505414   15.31926235399471    8.89206257820931
N         6.23390528648341   15.81617684924761   12.52620567306031
N         5.54822334253141   15.55767661131083   11.43124133395515
C         6.08042698721277   15.55170751524490   10.18936902477177
C         7.48346865887039   15.77397138901912   10.05838969931895
C         8.18559457753107   16.02882163250392   11.20283525801236
H         9.24677466506828   16.21758918907695   11.15452989299029
C         7.51050745110917   16.05613672064707   12.45123256552643
C         8.23144387487005   16.35609365102084   13.74621367080398
C         7.25067112455975   16.26913394964311   14.91717181535205
H         6.45116365052889   16.99488264443978   14.79723920173092
H         7.76909929349455   16.46636910102539   15.85248306219274
H         6.80331239349011   15.27995905354121   14.95888624374286
C         9.35484030174527   15.33144618810075   13.94706237650404
H         8.95004042959229   14.32211268453166   13.95322209889821
H         9.85121200881855   15.51157652738504   14.89758021463544
H        10.09918378185107   15.39803993732783   13.15810906046880
C         8.81695915264539   17.77166439149901   13.67380057488327
H         9.54249271131703   17.85914504882155   12.86912322855200
H         9.31433187375671   18.01419927154860   14.60980892878620
H         8.02634417284053   18.49900280690390   13.50426577449688
C         8.09108216243223   15.74335383537917    8.70312247967479
H         9.16711788293027   15.88540704694197    8.74787355914293
H         7.64390748686670   16.52350569947286    8.08841668976381
H         7.86060658500156   14.79563375072594    8.21946248509964

