79
CSD_code = AMIQIX | q = 0 | S = 0 | Stoichiometry = C30H46N2Zn | MND = 5
Zn        2.03197114586638    2.92359864390019    3.76187038669944
N         1.39689602708488    3.10072600856501    5.65813502768664
N         0.22902709309396    1.18301030472074    5.23547019563796
C         0.56244701676032    2.12649470963017    6.05013006391041
C         0.66469542724500    1.06956141619432    3.95109994478468
C         1.80526034322186    0.27655373953074    3.64699456723762
C         2.12060832444384    0.01726503848174    2.32108389666763
H         2.96190837178521   -0.61991024750161    2.09024158099694
C         1.36444909937614    0.54029615780326    1.28745645445747
H         1.62608031225534    0.32540058031467    0.26213887129215
C         0.25843859829628    1.32075483680951    1.57281400934536
H        -0.34685463959144    1.69603729137386    0.76051867251492
C        -0.09984679838699    1.61141614066120    2.88128743836061
C         2.55202425828961   -0.40583532141352    4.77054416488474
H         2.26046337036186    0.07817861335364    5.70859566256351
C         2.12079445495991   -1.87296822387438    4.84876366314327
H         1.04637703898338   -1.93658072291768    5.00395622368576
H         2.62356236748657   -2.37210257731473    5.67470811366492
H         2.36734218422200   -2.39341480820402    3.92565349549107
C         4.06807066306725   -0.29065368032175    4.61526571500724
H         4.42499875344849   -0.89785480938520    3.78670461622977
H         4.56285593535754   -0.63476649488729    5.52130725847623
H         4.35434827544161    0.74495489409067    4.43392393051563
C        -1.38264389243099    2.34927794952337    3.19057039706265
H        -1.35923577971511    2.63259796071776    4.24812477528811
C        -2.57093824623088    1.40526093381905    2.98707197043534
H        -2.62098992531040    1.07211344268113    1.95249853966206
H        -3.50247703891522    1.90957835669969    3.23605028711602
H        -2.46469785631522    0.53172054816781    3.62589838722480
C        -1.54315796989365    3.61664426148997    2.35175026871134
H        -0.63839633715062    4.22194692553823    2.39938791677374
H        -2.37701458387382    4.20755149732755    2.72541229379571
H        -1.74331295139955    3.37545419644847    1.31042774038789
C         1.83683342575830    4.18497967800698    6.44403017290159
C         1.14096233449051    5.40667870719039    6.41211366938526
C         1.60372395033406    6.46934282979494    7.17366299331183
H         1.07102168416711    7.40771825074403    7.16013114206309
C         2.74395360758208    6.35204258687335    7.94434284663500
H         3.08324999597042    7.18418116056734    8.54351907035762
C         3.47154762843824    5.17854818426818    7.90872373785822
H         4.39250539936014    5.11238599698306    8.46728823701783
C         3.04329254639025    4.09210612292605    7.16063217154160
C        -0.02595154548065    5.60682487257499    5.47061319803798
H        -0.41627845647905    4.62482484971445    5.18901396822383
C         0.49805608591449    6.29540081198769    4.20524868991413
H         0.94729274245243    7.25406980404385    4.45687679327263
H        -0.31317577183251    6.46716520881007    3.50074673900530
H         1.25879863744718    5.67787067991763    3.72290475272524
C        -1.17183493379846    6.42482446017764    6.06697141628583
H        -1.46510835081010    6.03993006633220    7.04026758663267
H        -2.03531304786939    6.38075038243375    5.40599406454291
H        -0.89268177513043    7.46962190738369    6.17873694640463
C         3.92995655777149    2.87389548380550    7.02692531759612
H         3.32376390790344    2.04348640287035    6.65395141996710
C         4.58678124930007    2.43696570776057    8.33666862177216
H         5.35041441543369    3.14494253453647    8.64906201114646
H         5.06661098098276    1.46973488919680    8.20017652327515
H         3.85335886643446    2.34647386000457    9.13371602789629
C         5.01032494543458    3.18591977314654    5.98505144104892
H         4.55375227586437    3.41992684550361    5.02110050541639
H         5.67741703727313    2.33533642375825    5.86055167189979
H         5.59962399844775    4.04491264861818    6.29966581773792
C         3.14114827748013    3.61911770078743    2.23968190387544
H         3.62943046306352    4.55801402000478    2.47902993756437
H         2.53343948524182    3.78397139646711    1.35725688384999
H         3.91543564797360    2.91126543585537    1.96554752777223
C        -0.06996150586364    2.00589824291031    7.44026395736574
C        -0.94783231708457    3.21972077652844    7.75606000261764
H        -1.68649880279727    3.37364901395228    6.97233840862684
H        -0.34803200300204    4.11845930219241    7.86251257202485
H        -1.47618587981481    3.04961539779329    8.69272445569295
C         1.00389032123896    1.86348850650346    8.52220274723464
H         0.52778182418962    1.65681189603333    9.47928379564796
H         1.58248105732976    2.77697157558061    8.62043657094596
H         1.67474835943929    1.03877665080898    8.29109391871617
C        -0.95389171974435    0.75344331010598    7.47378199833386
H        -1.41058358144221    0.65304925313230    8.45651443643716
H        -0.36583959547217   -0.13575938791272    7.26656091765740
H        -1.73878146431911    0.81903821731296    6.72606588205719

