69
CSD_code = AMIQIW | q = 0 | S = 0 | Stoichiometry = C30H30N4NiO4 | MND = 6
Ni       -0.00012984362264   -0.00019388871238   -0.00003337710090
O         1.03569915868226    0.87339255797813    1.30432207365766
O        -1.48952774851817    1.13605309697671    0.36058683859198
N         0.89809093624800    1.48771507524379   -1.70455003639891
C         2.21746580161567    1.38293142167282   -1.65857495274179
H         2.67693204305933    1.54214887491889   -0.69094698342670
C         0.68404292080900    1.77783403120272    2.10895000368469
C         1.76778725062972    3.52412663869029    3.58357416586318
H         1.04196715713386    4.25524573367922    3.26173886524577
N         4.38000751774267    1.00456760271126   -2.66061014037736
C        -2.94329153538995    2.66328362164044    1.43483426488528
H        -2.83502882549111    3.73319085280323    1.27246608066109
H        -3.32691853044907    2.50642788934706    2.44062588713293
H        -3.64223673719688    2.25945157607293    0.70754325407195
C         2.35721818570163    0.86525684287382   -3.98593486610008
H         2.92581160430250    0.60248694487758   -4.86778970832203
C         0.29534864253938    1.33459682241329   -2.88142339843577
H        -0.77760904184401    1.46461448546670   -2.88334612215732
C        -0.58967682739904    2.34930409193486    2.17763520506659
H        -0.81218860678679    3.07753276211290    2.93909790073731
C         3.00790895338155    1.06015074445042   -2.76699082672360
C        -1.59630894497951    1.98015836748642    1.28136057148917
C         2.70266571201443    1.31732209394707    3.46656985981942
H         2.67348407182849    0.32248603093004    3.04858014196768
C         3.71392429789672    2.96952720803248    4.87723568708005
H         4.48264134956621    3.25832892805923    5.57927143013902
C         2.75837504591880    3.88918428855572    4.47757846189430
H         2.78784523610447    4.89840078795921    4.86264067255615
C         1.72412193997170    2.22899661319512    3.07694705790375
C         0.98460338457388    1.01991613742213   -4.04154949696612
H         0.45514819969541    0.88589414873267   -4.97282249509696
C         3.68618647524587    1.68230602677160    4.36576237683966
H         4.43549405140473    0.96468823684238    4.66775943122881
H         4.74277236402574    0.87290769541543   -1.73042541187121
H         4.86824477979435    0.49748592261182   -3.38110413237540
O        -1.03595408285615   -0.87378014980567   -1.30434069886455
C        -0.68424823300057   -1.77805184707587   -2.10913790455463
C         0.58954023102863   -2.34935427681001   -2.17799953209170
H         0.81209664122419   -3.07741824299227   -2.93960572103926
C         1.59616354276548   -1.98026254743874   -1.28169402859161
O         1.48931683471525   -1.13633482457297   -0.36076121436535
N        -0.89821861249524   -1.48803997532032    1.70459244924178
C        -2.21757948405707   -1.38290281966749    1.65902033467181
H        -2.67735561790686   -1.54181708338378    0.69149151388109
C        -3.00759471463913   -1.05989272821200    2.76767504849175
N        -4.37970280249345   -1.00379645787757    2.66167956279920
H        -4.74268518761154   -0.87194379913968    1.73160712284502
H        -4.86756264881347   -0.49660319214669    3.38235465606497
C        -2.35648185350896   -0.86522344668302    3.98643035763335
H        -2.92473542901612   -0.60234009371001    4.86847009403158
C        -0.98389593199606   -1.02026911120199    4.04162761140163
C        -0.29507252973004   -1.33508114453742    2.88127970821883
H         0.77782879177712   -1.46558263258549    2.88291470355096
H        -0.45415512420364   -0.88659149718312    4.97278592461593
C         2.94308211057818   -2.66353750343113   -1.43505871440156
H         2.83487180573420   -3.73331812107438   -1.27181060420960
H         3.32640859744906   -2.50747998220723   -2.44107515785381
H         3.64224263901411   -2.25917573891754   -0.70828099053610
C        -1.72429167504312   -2.22900642746157   -3.07727089409772
C        -1.76782627488076   -3.52397213698209   -3.58432357218452
H        -1.04187338577565   -4.25509906193608   -3.26280910095835
C        -2.75849377454221   -3.88889550295109   -4.47829280593945
C        -3.71423840893818   -2.96925754226712   -4.87752343839816
H        -4.48299675037810   -3.25794511195078   -5.57956179686716
C        -3.68660478952501   -1.68218801050575   -4.36566389463039
C        -2.70301142549344   -1.31734515512449   -3.46649385743073
H        -2.67393764014504   -0.32264444076331   -3.04817371716235
H        -4.43605287272851   -0.96458246245967   -4.66734046207604
H        -2.78785238271188   -4.89798719594238   -4.86368926361523

