83
CSD_code = AMIRAR | q = 1 | S = 0 | Stoichiometry = C29H42BCuN7S3(1+) | MND = 5
Cu        6.05338341851088   11.62815498987016    6.87614883800637
B         7.04208942918747   11.44374760102407    8.72725737347846
S         6.25807066804932    9.24488228681513    7.05489224237096
N         6.35933691779307   10.31918645429958   10.76499818780508
N         6.46404825548782   10.24095723618993    9.45076580931069
C         6.20908287914674    9.12551804957890    8.73846597033338
C         5.88657544614835    7.93052032901641    9.44506613965379
C         5.80268263916879    8.01966456586901   10.80753649189267
H         5.55026097321779    7.14717907175117   11.38885476565550
C         6.03331776258086    9.26301689226850   11.45257934621158
C         5.64060617926478    6.68035141180469    8.68278972787416
H         5.46834188526114    5.84013948056079    9.34852531809484
H         6.48968204082717    6.46913839858669    8.03460850400359
H         4.77527713446295    6.81155681440581    8.03388963480908
C         5.91510739484741    9.42113674039401   12.95006076054738
C         6.28636945393410   10.84939855711474   13.35309768778339
H         7.30050484622158   11.07776602978125   13.03645637037017
H         6.21814243716212   10.95860979404546   14.43215003436917
H         5.61532023270771   11.56477370221951   12.88525981996969
C         4.46607488572918    9.13120399547536   13.36241153357523
H         3.78377625258935    9.81597575038631   12.86393470779274
H         4.35882707592949    9.26006670413019   14.43603424768828
H         4.17762788057870    8.11385058937012   13.11181851764528
C         6.86493546672886    8.43365893713898   13.63950623599078
H         6.59321007670030    7.40325635768296   13.42812888742046
H         6.82173283850374    8.57881280157055   14.71562463063750
H         7.88860493285492    8.59521904563616   13.31029604850393
S         8.07621986497572   12.83088697130152    6.43397873141404
N         9.18836815713316   10.45141199139034    9.26737510680422
N         8.52192626564035   11.24821132362916    8.45172830812086
C         9.09628737987277   11.98487575325237    7.48008634312832
C        10.51794916321746   11.97914931652601    7.37785420823312
C        11.19812674734742   11.16739012338511    8.24366302986356
H        12.27447367931380   11.11724642663590    8.20055027947373
C        10.48570287587719   10.38139260275099    9.18709842683528
C        11.17470656306268   12.81923714713573    6.34469611570291
H        12.25635983901650   12.76584980706995    6.42232373797340
H        10.84840834914628   13.85309692195021    6.44645179832854
H        10.86599643104149   12.48894563015350    5.35342110260318
C        11.18762902530040    9.43685972296245   10.13395141339467
C        10.16617186770736    8.77644992593914   11.06168453925030
H         9.62536878402898    9.53249916929480   11.62452063503821
H        10.67289736055682    8.11155549674383   11.75601322913436
H         9.44545657602340    8.20039959673931   10.48744471462178
C        11.90573512457508    8.35953644541419    9.31084376417937
H        11.19489699251718    7.81445997315225    8.69378167352227
H        12.39312362972439    7.65391369560172    9.97829104436624
H        12.66311054057698    8.79316257175594    8.66315153589868
C        12.20420187513357   10.22259566590838   10.97150096522096
H        12.97957192540475   10.66235039073268   10.35044408947037
H        12.68179667602619    9.55505672504054   11.68374308020223
H        11.71028754901494   11.01929050903218   11.52259369799070
S         4.48335873604673   12.67712294989743    8.33962433507229
N         7.78488984897488   13.14414918950184   10.29094849311939
N         6.80254193915323   12.71613279660158    9.51898855363589
C         5.57079466225143   13.26261624968740    9.49113095578863
C         5.27577863616773   14.31259555569093   10.40869006008872
C         6.29540471969269   14.73191085422860   11.21865694559770
H         6.12842737513838   15.53130644080052   11.92291406384726
C         7.57504425068829   14.12489868765729   11.12083969269031
C         3.91319793134720   14.90201406678666   10.42372207193046
H         3.80978080609857   15.63592913959942   11.21713405946431
H         3.17088782772058   14.11545796398345   10.54950868664255
H         3.70881756040673   15.37575440257145    9.46407141482042
C         8.74260730110772   14.57924465918710   11.96457248674385
C         9.96126462566269   13.69839507588936   11.68309900181652
H         9.73097238858189   12.65824120758979   11.89741757070613
H        10.79592608157586   14.01249588004997   12.30408866071942
H        10.25346009391204   13.77327241196480   10.63908600833656
C         9.06856439625854   16.03577587484621   11.60963016507749
H         9.31389381413087   16.12500690272830   10.55371750835994
H         9.92361502510039   16.37098226277291   12.19056779463792
H         8.23155516352013   16.69438167829168   11.82599114340544
C         8.36750114759276   14.47170735946755   13.44787565380864
H         7.54089409980398   15.12993731566281   13.70030799224937
H         9.22041631647226   14.75302044829475   14.05977169305795
H         8.08511287649988   13.45172516473047   13.69738679979339
N         5.16480747217910   11.76784672109518    5.16332901851358
C         4.72996492242786   11.73779166369526    4.10379720240724
C         4.18501626554525   11.70929878860045    2.79507114809527
H         3.95249843389194   12.72477756813650    2.47352100648355
H         3.27364911797749   11.11095013117181    2.79205883473890
H         4.90909351835205   11.26919409835304    2.10893157581296

