68
CSD_code = AMISAR | q = 0 | S = 0 | Stoichiometry = C29H34Cl2P2Pt | MND = 4
Pt       18.12667858833474    1.36977258624382    4.63735578742724
Cl       20.38987774993358    1.08078014950752    5.09041276337465
Cl       18.56614098267265    2.83743489119375    2.91331265967382
P        15.85306976477869    1.26086004152493    4.43883812899316
P        17.98910456230167   -0.00066957715801    6.41481622153708
C        13.95341119922380   -0.40866536362162    6.10087425787132
H        13.36490443811192    0.40185944077696    6.53870647302520
H        13.37889432922672   -0.80500252805974    5.26469071772960
C        15.33176991419843    0.06942607033112    5.71977457637945
C        16.26359893494342   -0.55168016661740    6.49495336130810
C        15.62174043677846   -1.53392705135765    7.35207501837591
C        16.13701442930362   -2.47029192688933    8.23735836529282
H        17.20195124247464   -2.57411654938801    8.38251228549065
C        15.25515229337811   -3.29718072080853    8.91156281967682
H        15.63925213831051   -4.03208821477459    9.60328346110181
C        13.88561920878312   -3.20090954847024    8.70829239067869
H        13.21911058901247   -3.85707310868574    9.24756837932170
C        13.36489747875640   -2.28164383174959    7.80932259575850
H        12.29966787121448   -2.21956383354795    7.64091760127358
C        14.23790980623602   -1.45797034246273    7.12982825822837
C        14.84169187616585    2.81153924145462    4.79648351953577
C        15.08924320800141    3.07680580230507    6.28517308308382
H        14.68682159134590    4.04879624925475    6.56514148190849
H        16.16270832859376    3.08181520554304    6.48381441728134
H        14.62997563107103    2.32217258843136    6.92076142061646
C        13.34915451779718    2.70530700315820    4.49996151498016
H        12.85699731214261    3.61953212295671    4.83097474796252
H        12.88466887927073    1.86999237935600    5.01694523511882
H        13.17035928356372    2.60225908978387    3.43253266590928
C        15.44917427805996    3.96586436230891    4.00005973931684
H        15.07836740614869    4.91466178280425    4.38459782340980
H        15.19657204576722    3.90677490877333    2.94615759084324
H        16.53560559898134    3.95858420053241    4.08397526043196
C        15.43498927870883    0.41582413691490    2.80361906453973
C        16.55105261426877   -0.62147870359954    2.64313967354566
H        16.43400056636105   -1.16092340482486    1.70488522529178
H        16.53002181722239   -1.34425191499372    3.46040903520461
H        17.52970021593449   -0.12881191335115    2.63279819238299
C        15.55423609155801    1.45943119420453    1.69531211081438
H        15.62703061335836    0.96250174062502    0.72909470926513
H        16.45365201013893    2.05991080328682    1.83769581401198
H        14.68444256974476    2.11202133082665    1.67143982224432
C        14.08138284519692   -0.28864961609239    2.73474731933894
H        13.88905513674818   -0.57449050654187    1.70098123110788
H        13.26636901622068    0.35193645409845    3.05958862046282
H        14.08528896170642   -1.19948581791656    3.32933614945430
C        18.97646099775064   -1.49480082786215    6.63545625267927
C        18.61308617168238   -2.65229875989109    5.95247375886219
H        17.71341761062858   -2.65645829715070    5.35085853202961
C        19.39712513184659   -3.78557821806896    6.05154920172078
H        19.11365540734876   -4.68507133355929    5.52491486723530
C        20.55076197893531   -3.76387088578937    6.82002383249013
H        21.16534019812895   -4.64896387619109    6.89256497301821
C        20.92302008061826   -2.60696233787531    7.48567629617417
H        21.82920278895950   -2.58928869638262    8.07292471448839
C        20.14237957043655   -1.46917278932030    7.39292977106639
H        20.43475075445220   -0.55669910617646    7.89293426354598
C        18.17883105257561    0.95948172040239    7.94485337251229
C        17.96417314230766    0.41674457517519    9.20778428561130
H        17.69248112330554   -0.62248693235512    9.31395974497184
C        18.10162133016123    1.21305785450853   10.33006777517305
H        17.93720657670145    0.78939660223894   11.31015313285765
C        18.45097404719504    2.54819670762872   10.20139964867960
H        18.55984021952527    3.16315384864237   11.08250188366427
C        18.66418964924195    3.09213067981728    8.94536907026371
H        18.94108295264837    4.13075066618812    8.84364533817904
C        18.52652573467917    2.30099080695606    7.81955194158165
H        18.71124582881298    2.71015946378093    6.82902575261655

