125
CSD_code = AMITUL | q = 0 | S = 0 | Stoichiometry = C46H76P2Ru | MND = 8
Ru        5.07928627608265   17.30378542988148   10.08050476195793
C         6.45479228756544   17.85688903875618    8.27087243321056
C         6.44040432631528   18.86510305456921    9.26958842858740
H         7.37747185715223   19.25689825524795    9.65523137910747
C         5.23242717504180   19.47376490024345    9.66135933683971
H         5.26627539219915   20.32132784159235   10.34112155431381
C         3.99611886523511   19.10418405370345    9.06162449539164
C         4.02168509554411   18.09842321670276    8.07471489153478
H         3.11505406648462   17.85636530228951    7.53184401945853
C         5.22368181422612   17.48569922648043    7.69321478120113
H         5.22361900924672   16.78354811502205    6.86432174499568
C         7.74638583488844   17.39831751579478    7.65004149653427
H         8.50132240563844   17.17463084521019    8.40022801072205
H         8.13773579603345   18.19144596890657    7.00807267146050
H         7.59280912837685   16.51210565493597    7.03651047176096
C         2.77466805418043   19.97778367438177    9.24747578975180
H         2.94927146548099   20.62323580056112   10.11484994232397
C         1.49024298364124   19.18702660440435    9.49430056717362
H         0.67872988361174   19.86615717580248    9.74662295307894
H         1.62593055877045   18.49186729289292   10.32110184404725
H         1.19620379662179   18.62819909369128    8.60804207302371
C         2.62234462351651   20.87904848333254    8.01583343087804
H         3.52665139399048   21.46359788547979    7.85441574969796
H         1.78857071640915   21.56445458918305    8.15297728299523
H         2.43460280665954   20.28438222089129    7.12351048514016
P         5.58803283633619   17.09606782622585   12.21987672898004
C         6.40531701475438   18.65008520898706   12.73194783480611
C         7.80100415690656   18.83383035451172   12.57561004265810
C         8.30347273180365   20.12584065951890   12.51025660372862
H         9.34879137708506   20.26560976647788   12.30493480054174
C         7.50612650356226   21.24401612646885   12.68721130346054
C         6.20864109147568   21.01938700097019   13.12730149533350
H         5.61316404584918   21.87126937461748   13.40735774280279
C         5.65152803654534   19.75451433002597   13.20512596601653
C         8.79135562891214   17.66630477638928   12.54898992520654
C        10.22517313215841   18.11046569702045   12.88348038042451
H        10.24954031004187   18.68400222091030   13.80723004146247
H        10.67067217387571   18.70131058815363   12.08614221064517
H        10.84655283400149   17.22648225385234   13.01625061646560
C         8.82350899675007   17.00782381492628   11.16803228418500
H         9.44593030837641   16.11477954765319   11.18918664633678
H         9.24184706655155   17.70210576381605   10.44112463280792
H         7.81302541159556   16.73070003701194   10.85637252064893
C         8.40386758780564   16.64076590701058   13.62023252037483
H         8.41715031344092   17.10835196717096   14.60221308226875
H         9.10627619090719   15.80937252320049   13.61852008274861
H         7.40370327935415   16.25010446537008   13.44078078450548
C         8.00740834843790   22.66790148984953   12.50489973511468
C         9.44032549139840   22.72561768587383   11.96738525422862
H         9.52308032517631   22.19837335636159   11.01923131550273
H        10.14284050782857   22.29424707383548   12.67672020976606
H         9.72639202605589   23.76314046930994   11.80292263338524
C         7.97276890289328   23.39630225669553   13.85565643337858
H         8.35332522820199   24.41038894857808   13.74787416863555
H         8.59023523455203   22.86975995812915   14.58051642292216
H         6.96114586168549   23.45162515425727   14.24840151552876
C         7.09586065384808   23.39116623776929   11.50264417263691
H         7.11201216198675   22.87818131308423   10.54242007294982
H         7.43512059757714   24.41441826670245   11.35206541594557
H         6.06811466998069   23.42257409895226   11.85458081422303
C         4.27554433072910   19.60021384914381   13.85721786736157
C         3.90982914788946   20.80748246162223   14.73627551762216
H         3.00564342141539   20.57532068444738   15.29604782999300
H         3.70363232248441   21.69914422696541   14.14834377474766
H         4.70370215199327   21.02603709865825   15.44693760976410
C         3.18944768325941   19.45142987714264   12.78973885155437
H         3.48431034349989   18.69671437199969   12.05687452485030
H         3.04313283491391   20.39819932844047   12.27443919261162
H         2.24469342969250   19.15526557916238   13.24119556936679
C         4.27785710361477   18.38231246643907   14.78711858580337
H         5.05729813293299   18.48883185968606   15.53835704419721
H         4.46362869571325   17.46910908221415   14.22435268753393
H         3.31638548860037   18.28964110990108   15.28844595149280
P         4.24809032116830   15.11407618312930   10.16699988718361
C         5.55389587125818   13.77141155582928   10.07025710924043
H         5.06440597997774   12.80546807847109    9.90717558553310
C         6.44699315102951   14.11261473492321    8.87800799979918
H         5.85497029284627   14.15140344320171    7.96008793563023
H         6.86575917908488   15.10944279063258    9.05657832925121
C         7.58117190990033   13.10793385726379    8.71205776651354
H         8.20343562395114   13.38894060509094    7.85884880319854
H         7.16504874348057   12.11736360665699    8.50894181642241
C         8.42350309183130   13.05453587546273    9.98040262144408
H         9.22663159122264   12.32277122980119    9.86821713304904
H         8.87720427840657   14.03217797110690   10.15137212537759
C         7.54531182183246   12.69108494713862   11.17141731623623
H         8.14355929466169   12.67304366353259   12.08448833907257
H         7.13434924784357   11.68877355073673   11.02195361903935
C         6.40037947549086   13.68796171633186   11.33765495606633
H         5.78834735150901   13.37634620997340   12.18429811489036
H         6.79936745119434   14.68203402231827   11.55863074056187
C         3.18242636399057   14.66908338746150    8.67835448131430
H         3.70742379960433   15.17397895733407    7.85406938719875
C         1.81184326188355   15.32836802143098    8.81716452694012
H         1.22183032288842   14.78487233015684    9.55614950931561
H         1.93659166697830   16.35477085382003    9.17144037485939
C         1.06381448603354   15.29412963466087    7.48853644193685
H         0.08981735829353   15.77810331302223    7.59447296871461
H         1.62838446519382   15.84036754385261    6.72789466121002
C         0.88281641388962   13.84687105837093    7.04112966469999
H         0.37427745942645   13.81168528475396    6.07515415362205
H         0.25723762243103   13.32165918161272    7.76678572679184
C         2.23561014007669   13.14865416336403    6.94040587686375
H         2.83114754648998   13.63044280239503    6.16015425718984
H         2.09271694144640   12.10521368259260    6.65016650660966
C         2.99928182970289   13.20894893814908    8.26567940942645
H         2.44107550859164   12.66552847293836    9.02787327109232
H         3.96051239150916   12.71284310118205    8.12931785001848
C         3.33840306735355   14.59115354909601   11.71544961227153
H         4.14872425330493   14.67328625778065   12.45598877624215
C         2.75428567057378   13.18275670600463   11.78018931517676
H         3.48171429245189   12.43867426577783   11.45314944742455
H         1.87743594530354   13.11286405408206   11.13393116291470
C         2.32891768059308   12.88194895792123   13.21778682732548
H         3.20741176889177   12.91140533649862   13.86602455055265
H         1.90332326750817   11.87712509480602   13.27487262178961
C         1.30811048529438   13.90589940589042   13.70638252085796
H         0.40002030098217   13.82644081288867   13.10318067810321
H         1.03790910106039   13.69299760757591   14.74273460578777
C         1.86820533354488   15.32120796965224   13.59154700837985
H         2.73742181477741   15.42615904247381   14.24304901772350
H         1.11669829358057   16.04500942014547   13.91342501536413
C         2.28215661679832   15.60592685527917   12.15104479609540
H         2.70857821448632   16.60980748951640   12.06728127526958
H         1.39894990097096   15.55170265042315   11.51500148974584

