38
CSD_code = AMOFUD | q = 0 | S = 0 | Stoichiometry = C18H12MnN3O3S | MND = 6
Mn       18.25769760766423    1.22016281459876    4.90026430852942
S        17.73090059674122    1.37658556069651    7.33745368809950
O        17.48053068864542    4.03375074003337    4.67200743959621
O        18.69357789242479    1.07922018082506    2.00350497479811
O        15.68477190753987    0.43931188847928    3.82515109271594
N        18.70445823221866   -0.67508347863091    5.22961937992595
N        20.13121261372794    1.44423888702825    5.43696762069717
N        15.48371768873783    1.20628623232253    5.97333880188981
C        17.83702725345435    2.93813523637374    4.75944152154945
C        18.51598869983635    1.11754871315336    3.14242834330079
C        16.36825016980298    0.86713013094796    4.71525570868796
C        17.94508633360212   -1.74403418393052    4.99177333441848
H        17.03733633983476   -1.57609753494238    4.42692113757933
C        18.26865218973117   -3.01654222517823    5.42325143427370
H        17.60980856079557   -3.84175434131499    5.20588078457111
C        19.44309845489728   -3.20344218479270    6.14086457109223
H        19.71991349183728   -4.17958079697879    6.50872505639420
C        20.25649224477142   -2.11117331669224    6.36304663621051
H        21.18140332634169   -2.22641502061961    6.90433954128627
C        19.87050079981612   -0.85758794489511    5.88632725529584
C        20.67957273970656    0.34976218923431    6.01229602927731
C        21.92594785381096    0.38890850620337    6.63759635958287
H        22.32849513893153   -0.49584743371430    7.10361496291204
C        22.63900004707142    1.56956477742502    6.66307880566336
H        23.60243239949418    1.62204843423344    7.14595088558754
C        22.08490349393223    2.68489012699703    6.04553681807776
H        22.60714029824074    3.62789548560603    6.02765669904913
C        20.84259269151938    2.57478680683351    5.45429074157014
H        20.39444617619982    3.43242974006066    4.96895848691849
C        16.05295016512568    1.40910349137661    7.18484478872614
C        15.21602502968833    1.62603194195799    8.29944442671819
H        15.68698494029365    1.77061477359321    9.25847390641312
C        13.85841933478662    1.66073693720466    8.14223240527524
H        13.21351790357143    1.83815391763236    8.98926674433577
C        13.30580259325923    1.46449874908982    6.86510342638867
H        12.24041718064196    1.49413677304577    6.71018829993208
C        14.15072863952132    1.23301202336126    5.81807128744468
H        13.81629828178104    1.05251340337700    4.80473229521565

