73
CSD_code = AMOFOZ | q = 0 | S = 0 | Stoichiometry = C24H30NiO14P4 | MND = 6
Ni       -2.05273699622463    7.22089661280372    6.02804712407117
P         0.61551646353775    5.93258342772925    5.47151173682570
O        -0.21458145535421    7.22774163910373    5.64443377136029
O        -0.01132205450316    4.97604602839543    4.50809274440574
O         0.82335800842713    5.28115218185035    6.92048777935958
C         2.28550733754871    6.45333088962901    5.04309006248896
C         3.00457020059336    7.26397922918663    5.90617213079851
H         2.56004270722740    7.57296818725642    6.83899661866257
C         4.28766758549490    7.65412088056252    5.56666438384785
H         4.85366865352851    8.28304877539532    6.23756691897262
C         4.84457709652123    7.23663521019925    4.36782402201779
H         5.84647793487022    7.54235985932230    4.10464488851941
C         4.12174976978593    6.42590117473495    3.50750108787729
H         4.55977450467976    6.09839795913608    2.57638558564162
C         2.83754597777833    6.03439798694929    3.84535123668983
H         2.25245379030766    5.39683769286370    3.20047959626729
H        -0.02957123387596    5.09330506717613    7.32935862179567
P        -3.61400276357090    4.73863337129324    4.44734621152817
O        -4.22682602786603    4.67240768497072    5.93184233101874
H        -4.36112174817288    5.59516336870021    6.23823844393883
O        -2.37324770282953    5.77404366544005    4.60444787040719
H        -1.44684677756334    5.31863309345853    4.45102375890310
O        -3.21774501218454    3.42175027772648    3.96931016332399
C        -4.82819148929195    5.66486327486245    3.47211071763427
C        -4.59585919769313    6.94265058894601    2.99498664504068
H        -3.64612891386047    7.41590650518353    3.18813327315296
C        -5.59003546008494    7.60130548747429    2.29107388259622
H        -5.41933187755844    8.60298141229598    1.92710215281264
C        -6.80587167460887    6.97906667906650    2.06070698292213
H        -7.58094995116257    7.49686208826419    1.51559066628847
C        -7.03135796846018    5.69276290217748    2.52688366301716
H        -7.97796764476722    5.20738293710186    2.34134953117524
C        -6.04074585900410    5.03552365477644    3.23465210909322
H        -6.18775122325694    4.03415689446065    3.61205582164363
O        -1.98886363057469    5.37280125008106    7.62527264094243
H        -2.56372751417196    5.69655701769361    8.32877841766890
H        -2.51062218801342    4.72594086043320    7.12336277617090
P        -4.72018909404355    8.50868571101634    6.59766553816126
O        -3.89188863252169    7.21453325863499    6.40958756544309
O        -4.09238420097635    9.45240604782376    7.57327775005654
O        -4.92616410287509    9.17760351677276    5.15640413426990
C        -6.39148040912163    7.98736489576742    7.02011441928369
C        -7.11297435737633    7.18854081141480    6.14810416293219
H        -6.66902659437518    6.88798938690421    5.21227617875767
C        -8.39761500405949    6.79937166858597    6.48287595933320
H        -8.96560296960169    6.17979667871480    5.80497549792232
C        -8.95360793035722    7.20597083832283    7.68587561537273
H        -9.95680160304573    6.90121499865397    7.94521505784228
C        -8.22823333807682    8.00466125159788    8.55527046194546
H        -8.66549312797627    8.32370430172522    9.48968184142794
C        -6.94253256750260    8.39524389028084    8.22212682264540
H        -6.35550711574740    9.02389009133933    8.87397326904669
H        -4.07311518934619    9.36106793602741    4.74575490395622
P        -0.49208143659407    9.70319537804076    7.61160148734820
O         0.12141215111788    9.76818028074810    6.12742817590246
H         0.25496331220057    8.84503577335668    5.82122520412744
O        -1.72931077003283    8.66351424409867    7.45569245383605
H        -2.65692830257446    9.11457477893622    7.61767792454391
O        -0.89267665005624   11.01993716031838    8.08649721528482
C         0.72516681251564    8.78388628709654    8.58957654601092
C         0.49504865864814    7.50955380022298    9.07677351100308
H        -0.45506391373851    7.03429190374375    8.89022362294568
C         1.49163517335487    6.85692518650967    9.78290788888993
H         1.32268393120191    5.85788276720158   10.15484042949064
C         2.70755886897461    7.48173964974220   10.00548311689670
H         3.48452006375347    6.96860252000737   10.55235579907376
C         2.93087790528377    8.76471668271144    9.52917660744842
H         3.87759296306171    9.25223215845308    9.70862388226961
C         1.93785531526804    9.41588064594615    8.81921343573809
H         2.08309098273037   10.41450391568956    8.43387091053189
O        -2.11732282330884    9.07493869352583    4.43757993828979
H        -1.54473819122925    8.75433063750501    3.73077046385029
H        -1.59337147923445    9.71893643588834    4.94102583920322

