68
CSD_code = AMOJIX | q = 0 | S = 0 | Stoichiometry = C29H35CuN2Si | MND = 2
C         2.85854518761677    2.35721836817331    7.16009570396549
C         3.57471492828047    2.68180156541550    5.06645093841002
H         4.27591073869371    2.92294839232073    4.29409137148515
C         2.26471818876748    2.34152192284018    5.00448366760470
H         1.60499658806697    2.23039840089902    4.16855655824392
C         5.21162708969439    2.98760911376474    6.89889138395080
C         6.17530077780147    1.98204705279865    6.92747717175021
C         7.43208623177610    2.28923191727800    7.42531877532346
H         8.18656544143232    1.51645728608874    7.45602391758821
C         7.73389508844890    3.55965665791966    7.89204871424748
C         6.74879329699598    4.53787447630185    7.85816814620860
H         6.97086816312433    5.52377744246672    8.23699230419172
C         5.48193174744801    4.27323440963018    7.36739811571578
C         0.52412571035292    1.77729395576558    6.66157781277519
C        -0.36591921125439    2.76042334319656    7.09371651177657
C        -1.65295809243332    2.37518251529314    7.43038051967207
H        -2.35465766499554    3.12344022277686    7.76890223998683
C        -2.06033340633895    1.04968259366119    7.34778268917624
C        -1.14895990861976    0.09453564128912    6.92276719517995
H        -1.45083854454878   -0.94108485825387    6.86357193279748
C         0.14923304263844    0.43806835494641    6.57707468048757
C         5.83961653820689    0.59924815017700    6.45506694288064
H         5.52431908744393    0.60475435134862    5.41148092777396
H         5.02377661606510    0.18904874287786    7.05095601426950
H         6.70000353294336   -0.05679046292771    6.55220941428614
C         9.08858409135140    3.88492694184004    8.43650905685931
H         9.52752807620127    4.71975374505046    7.89231644690487
H         9.75631824720707    3.03051915462649    8.36723173707032
H         8.99831976144148    4.17839355056193    9.48054123366834
C         4.41731425754413    5.32546347670791    7.36094158790396
H         4.83732367928910    6.29144663309184    7.62461186566999
H         3.65215649598178    5.07389870157121    8.09596309072967
H         3.94034434991776    5.40189078634357    6.38377893512324
C         0.07565285456753    4.18658196713883    7.20732943820622
H         0.54601453142288    4.52767909480503    6.28540792592439
H         0.80440962835374    4.28340351967874    8.01317729781023
H        -0.76907767248646    4.83275524676743    7.42818509161015
C        -3.45734348473725    0.66998089117213    7.73011037842896
H        -3.65966757202247   -0.37059946238083    7.49238715048725
H        -4.17941117284934    1.29624657873905    7.20992027658507
H        -3.60288656589037    0.81416974891826    8.79972596583413
C         1.14112543032106   -0.59796798602412    6.14252340450673
H         1.47641642734169   -0.41534038754512    5.12144326311305
H         0.70223922821115   -1.59058081118817    6.18834917340939
H         2.01626978638634   -0.57535605633825    6.79186273740127
C         2.17939345670801    4.04539396677575   12.35220101383833
H         2.64251998695785    4.41488769377467   13.26341265583424
H         1.28651879695495    3.49304104800693   12.63357075925510
H         1.85231818696368    4.90769385831377   11.77650862276249
C         3.79729114586683    1.57683895802567   12.67399039948269
H         4.21655210407830    2.01569194692197   13.57565740460279
H         4.50429858837580    0.83951336064123   12.30165458992045
H         2.89589640528456    1.03876543901245   12.95571913874433
C         4.98976509746076    4.01415192412185   11.36241743778481
C         6.24203740867830    3.49364384620392   11.66682002606263
H         6.32910894484022    2.44884214731705   11.92787750403835
C         7.37871283263296    4.28178335852882   11.65789334916881
H         8.33671340500967    3.85227422591177   11.92498602830927
C         7.29210006155087    5.62150022770967   11.31982016880848
H         8.17728351083413    6.24454278646579   11.31608482497072
C         6.05867843940881    6.15743114408863   10.99013514004749
H         5.97941269569291    7.20408630826639   10.72296056966927
C         4.93049255439535    5.35897639249739   11.01248297315667
H         3.97227573317807    5.79378611482732   10.76104186615726
N         3.91747762702415    2.68629671734628    6.38985941589549
N         1.84555875262978    2.14822270540372    6.29298641676268
Si        3.39185235564962    2.91726268015687   11.33001196890602
Cu        2.94465036461822    2.41482826015373    9.12420801882824

