56
CSD_code = AMOKUI | q = 0 | S = 0 | Stoichiometry = C17H30NO4ReS3 | MND = 5
Re       21.82132707402153    1.47211385735917   -1.01782636266676
S        24.24575244314441    1.22521117633902   -0.39352727895835
S        19.47837419058238    1.62736814903483   -0.91426084195491
S        21.63857885002131   -0.80002374563837   -0.81069711453094
O        22.11518645249701    2.00921552469453   -2.56438192654411
O        22.77666175800201    3.25899455431748    2.59126578432190
O        21.02474598273459    0.51339990666599    2.07922332148036
O        19.05706343851868    1.41846441490829    2.69437753277515
N        21.77683494413471    2.53712899491632    0.67506955907555
C        22.83615455894169    2.80932066611286    1.46103788923431
C        24.21569387777138    2.53686163470908    0.85188109427944
H        24.92193927211119    2.30106687797102    1.64820178627618
H        24.55500427131300    3.43623306153491    0.33263833951352
C        23.96928903722623   -0.29685660668644    0.59834597768879
H        24.94113554239898   -0.63625541069537    0.96052438740779
H        23.31173775808418   -0.05988074182017    1.43822852267127
C        23.32750873026932   -1.32123679768262   -0.31720003560791
H        23.19736772633682   -2.27327779606602    0.19789162651943
H        23.92186367595720   -1.47463910460523   -1.21935814260632
C        19.41837075077026    2.99894281632896    0.30149733326123
H        19.60264467136645    3.93726758845696   -0.22201556569413
H        18.42690607918287    2.99911811902141    0.74931880182661
C        20.49683208854213    2.73113381546103    1.33828132459284
H        20.56483893989927    3.54653873493929    2.07171570379860
C        20.22118920177598    1.41679921184913    2.08888262961419
C        18.61968406920878    0.21037831311723    3.33145704672864
H        18.07629448123730    0.54000318034222    4.21979562982190
H        19.49532210695128   -0.37630865288642    3.62483027933088
C        17.71206562220753   -0.59153794992261    2.40086702995528
H        17.18074625711067   -1.33190380568063    3.00222746128530
H        16.97823896579153    0.09045010009173    1.97015248179777
C        18.49084148235487   -1.29466656245886    1.29055655542549
H        19.21479324236347   -1.97361166529237    1.74769110187121
H        19.04722704155641   -0.56248172481048    0.70422845333497
C        17.59967707789119   -2.08082699222188    0.33146152846496
H        18.24896247525875   -2.68350007597954   -0.30386960147301
H        16.95623530730826   -2.76069381792881    0.89585261628369
C        16.74431522706523   -1.17550886006497   -0.55312195632305
H        17.38373588049589   -0.41605325411818   -1.00809090765186
H        16.00262810406440   -0.66431439343308    0.06403426589832
C        16.01122607119604   -1.93969045346796   -1.65649790665239
H        15.49484387114053   -2.79990848815442   -1.22258889376326
H        15.25129629067118   -1.28444102626800   -2.08910799568317
C        16.93545997366887   -2.41079093663327   -2.77699532736857
H        17.67351809075208   -3.11046248077635   -2.38190408494211
H        17.47795751203575   -1.55175735072511   -3.17666596259194
C        16.16121648543611   -3.09290261087777   -3.90218127883166
H        15.61587696387180   -3.94976525584839   -3.49845961658377
H        15.42431245368958   -2.39600037486312   -4.30848208775650
C        17.07868519028656   -3.56493550600204   -5.02730933387756
H        17.62053686757227   -2.70714482006337   -5.43149390000384
H        17.81769926611409   -4.26025591116833   -4.62206694472922
C        16.30141527648440   -4.24825765169496   -6.14592584932453
H        16.97274356083125   -4.57129549793417   -6.93863957694855
H        15.56911453197212   -3.56589586453465   -6.57284462222860
H        15.77342893764826   -5.12102851088825   -5.76622294935715

