57
CSD_code = AMOKES | q = 0 | S = 0 | Stoichiometry = C19H27FN3O4ReS2 | MND = 5
Re       12.77516342043816    3.42757294480603    1.66462806546659
S        14.94515146127017    2.68337737613460    1.98705187818106
S        12.55507033368951    1.69455131272593   -0.08675070084063
F         1.39851443132861    7.18011128263594    5.51437747815362
O        11.58268159988354    2.78955343682275    2.64918900471906
O        12.34109742048234    5.09259011687549   -2.08221953392238
O        13.18837118840551    7.43762979905362    2.31496639063419
O         6.46019162455760    5.18796784178704    4.95262567873100
N        12.57988368861203    4.66350951230267    0.14338400215832
N        13.30023198037224    5.16187495060592    2.52139652117909
N        11.11867325796671    4.20086417429007    6.09493975319133
C        15.06972056575407    1.23126680596664    0.87393019965627
H        16.13595298741168    1.07446144224301    0.70743605788557
H        14.65414130261729    0.36590415385755    1.39191832062693
C        14.34982725508059    1.48197675956628   -0.43482436541052
H        14.45002732736053    0.63205445282838   -1.11167169855339
H        14.71675262658029    2.38901250842349   -0.91917976352386
C        12.06470589429115    2.83738450758845   -1.40259798970251
H        12.52670671427679    2.52792049663757   -2.34028389593819
H        10.98213362873432    2.72510139452861   -1.49987281219871
C        12.35068532962837    4.32590226043988   -1.13803444572594
C        12.63166443748763    6.08740270294466    0.41113624615954
H        11.65598694208465    6.55351535413235    0.22852127914817
H        13.35185809237664    6.57956534413756   -0.25366972953882
C        13.04916635098999    6.31986107752872    1.85670660279399
C        13.94959710452379    5.29584670037175    3.81448057601017
H        13.93628562467655    6.35771597442753    4.07964173619018
H        14.99119141158204    4.96642433234307    3.71696036873639
C        13.25397700352475    4.46561928534977    4.89125769856894
H        13.34900307654294    3.40893540515554    4.63272799775148
H        13.73877232108045    4.64122663960232    5.85140162295338
C        11.77314087665547    4.84003525235396    4.98045314991985
H        11.68456156504244    5.92204094517821    5.10127573334176
H        11.30220566328846    4.55200595994473    4.01671301794261
C         9.86138520640586    4.80533000229010    6.47046032532601
H         9.54061544378087    4.34376325132495    7.40953419156326
H        10.04953427757724    5.86475906549575    6.66829680501860
C         8.72997325999362    4.68144286449943    5.43659360576580
H         8.52806302780428    3.63095039278510    5.22621788691705
H         9.02326394566702    5.16185741127404    4.50317377313794
C         7.45344192186711    5.33771294562839    5.94738412822103
H         7.12872112958305    4.85686748155090    6.88132085707316
H         7.63289961582839    6.40360086028680    6.14627036204436
C         5.22690823041187    5.71243411803095    5.16921554233244
C         4.83829094105682    6.39211681256912    6.32001490152401
H         5.52663191568924    6.54563291878723    7.13534135641479
C         3.54900974263889    6.88590733303197    6.43447515375902
H         3.23832866278790    7.41426812660388    7.32188156679164
C         2.65704325960646    6.69725146542061    5.39918527532874
C         3.01972311643574    6.02445779693666    4.24456885782903
H         2.30140312433561    5.89248362181808    3.45130425804051
C         4.30329010200176    5.53512749555942    4.13515530071279
H         4.62169343896030    5.00683435731814    3.25106838307085
C        11.08472000807588    2.75853143761438    5.97563365294007
H        12.05993216054575    2.35353000620975    6.24420831188358
H        10.85211508902812    2.43892065652598    4.95151712176821
H        10.34521787108056    2.34833707518270    6.65946393801295

