52
CSD_code = AMOQIC | q = 0 | S = 0 | Stoichiometry = C17H28NOReS4 | MND = 5
Re        8.22590407783475    2.33271996944217    1.59470328298082
S         8.07432066859946    0.71051168341335    3.24289939403712
S         6.26048300477239    1.61614727277896    0.63601972830191
S         8.52763514154735    3.77743217651281   -0.59157159115687
S        10.07499638463256    1.21042601761295    0.80474512823950
O         8.32093398644377    3.72332592826649    2.51204544953953
N         4.10542517423241    3.56426638955530    5.09638696426074
C         6.04584132075223    2.65444291031211   -0.85363788948882
C         7.34592776294743    2.80808176636014   -1.61465428874675
C        10.14376423074959    3.15490818463960   -1.19770408765092
C        10.95902254405526    2.55573253415940   -0.06775019369001
C         6.36205617882128    0.77843870591177    3.86198373747001
C         6.02869209685209    2.17000450409607    4.37535575617121
C         4.62215023790305    2.21113351997937    4.97338079326038
C         2.70327478663764    3.54559520336229    5.48174950427448
C         2.01963631034781    4.89787223382271    5.28231243436157
C         0.49412160595659    4.76027753567792    5.35412529485764
C        -0.16276702893095    6.10509270911253    5.23459541788581
C        -0.44304322776170    6.85984470734873    6.36638650886930
C        -1.01687790113313    8.11388169200932    6.25617813590079
C        -1.31652396931803    8.63262925320847    5.00831522700583
C        -1.03806064302149    7.89042702660182    3.87335585536771
C        -0.46429246428718    6.63685899884205    3.98729333142937
C         4.90583796442376    4.36714738284195    5.99913799985619
H         5.65616322236658    3.62283649356376   -0.53633504370789
H         5.29948212160743    2.14818033515142   -1.46776525879979
H         7.78688232060964    1.83084511502095   -1.82213909100530
H         7.19578340275805    3.35652082009449   -2.54599173945837
H        10.65894262546677    4.01457267074643   -1.62748852649614
H         9.94797811970241    2.41815407451682   -1.97561742461573
H        11.87949299667040    2.11821471399121   -0.45774372379469
H        11.20790129189869    3.31145367233086    0.67828287113830
H         6.32225063670396    0.03998978046671    4.66305076052441
H         5.69577959659418    0.47461698112996    3.05477452550544
H         6.08734012532608    2.88523583883733    3.54717100988784
H         6.77680770877199    2.45090740818002    5.11706300396273
H         3.94983501886545    1.66769775652588    4.30266963992388
H         4.62336547028993    1.68573263434388    5.94738829977531
H         2.57354028392624    3.21652734237718    6.52997587130870
H         2.20068051528188    2.81391785608096    4.84226115401001
H         2.30911291895736    5.29637815501569    4.30900651731050
H         2.33932298537375    5.60747607043220    6.04670985244661
H         0.22333602731468    4.29861161006478    6.30650345216288
H         0.15327643967523    4.10589593264133    4.54900789102104
H        -0.21310311599995    6.45826041922596    7.34344962661724
H        -1.23235144231609    8.68744182676856    7.14620440950800
H        -1.76635496512245    9.61076796816278    4.92079147049379
H        -1.27010719206148    8.28969771157712    2.89643568857382
H        -0.25004015822300    6.06005949547392    3.09861769357431
H         5.92012711410395    4.43722764788733    5.61588891441182
H         4.49624890766647    5.37259487284743    6.04685460043593
H         4.93544878069176    3.94798649064910    7.01812166193107

