26
CSD_code = AMOSAW | q = 0 | S = 0 | Stoichiometry = C6H14NOReS3 | MND = 5
Re        6.63660660307343    0.04732171542962    9.68010881966644
S         7.16132077257049    1.43079447264730    7.90937457995822
S         8.77459344143992   -0.78059272160095    9.62801543445658
S         5.26965263081333   -1.28051186797795    8.39265369662297
O         6.01772607499896    1.16408698946499   10.76335653191526
N         6.31802706540812   -1.71605588637579   11.26886136703776
C         8.77494023657300   -1.89809486487278   11.08141057699299
H         9.59440536281154   -2.60078677130389   10.92918987416292
H         8.98939309724094   -1.29646351897820   11.96410175750952
C         7.45172297288181   -2.64383552186254   11.19494506558284
H         7.34058270422203   -3.27032423278807   10.30546765787308
H         7.46615457974143   -3.29893094856578   12.07931961683281
C         5.04125153146800   -2.36691072472578   10.94939641972379
H         4.91225417689784   -3.27620407878848   11.55650294012929
H         4.24983940464969   -1.65783001559913   11.20954800694903
C         4.89810092414887   -2.71248539349102    9.47629206775821
H         3.87073129474592   -3.00821712389666    9.26336084132823
H         5.56061506538188   -3.52378837913090    9.16827002324401
C         6.23477097699398   -1.12890938807503   12.60756496906748
H         5.43893157527006   -0.38596616959637   12.62712779165256
H         7.16482224777223   -0.61996390536467   12.84934277162917
H         6.03749821429145   -1.90057325646987   13.36095894280931
C         5.57476507420246    1.76040887956324    7.08780850661085
H         5.76340066330542    2.49541343621656    6.31161507856654
H         4.88444734358469    2.15501082024279    7.82748296987367
H         5.18894596550677    0.84260845590623    6.65452369204916

