33
CSD_code = AMOVAB | q = 0 | S = 0 | Stoichiometry = C13H17CuN2 | MND = 2
C         5.59427037940578    0.96728903182941    2.27278695923811
C         5.35347438001041   -0.98155069696686    3.36858744301281
C         5.59120748659978   -0.01271225110748    4.29673422849892
C         5.14548610419409   -1.03272549753879    0.89286124424707
H         5.20369608192756   -0.29908168157333    0.08935766869708
H         4.16166986529060   -1.50555745844519    0.87682269074473
H         5.90746297967882   -1.79843708427114    0.73531697578014
C         5.12023633365366   -2.44044611630131    3.51449997891041
H         5.16343980259226   -2.72454198286541    4.56170774902426
H         5.87512693926905   -3.00776663748067    2.97014185298282
H         4.14209068417220   -2.71620208042143    3.12039474510613
C         5.69899293159428   -0.07985535840654    5.77589135399889
H         5.53019280263224   -1.09631512234441    6.11881605383280
H         4.96241427819974    0.57159970853225    6.24591474784365
H         6.68856342265263    0.23714755502528    6.10548445636122
C         5.99831929430931    2.43749072776313    4.21711606454705
H         6.93308995367510    2.40422565990980    4.77982162781279
H         5.18769391046362    2.71083768321548    4.89542993066317
H         6.07778063812186    3.19026256413202    3.43333819327120
C         5.82622187445129    3.64892028779710   -0.58194431931517
C         4.69491918224823    4.21487272829343   -1.20176291753142
H         3.70546763445429    3.90328336320513   -0.87889137228104
C         4.76920685269419    5.15800943817078   -2.21182391185498
H         3.85968928190862    5.55423231722774   -2.64739100338707
C         5.99921828311303    5.59595108882836   -2.66699916754500
H         6.06472872560797    6.33309765115400   -3.45708194558706
C         7.14389808809587    5.07414496753703   -2.09315279685437
H         8.11791373905238    5.40376569716311   -2.43460076336076
C         7.05063102070015    4.13180628852762   -1.08390371529928
H         7.97862138207825    3.75215814604058   -0.66549968693475
N         5.35983240735517   -0.35780873948295    2.14143224751800
N         5.73501392692605    1.16729644832112    3.60259513628836
Cu        5.70752933287150    2.30250935453168    0.85240025156945

