46
CSD_code = AMOYEG | q = 0 | S = 0 | Stoichiometry = C18H22PS4Tc | MND = 5
Tc        6.57394527559415   11.85254284551478    5.20390725931644
S         7.91761486812401   10.30677338171379    6.20568573739138
S         7.57886966605441   13.76186045885570    4.50263263584356
S         4.31465916757159   11.84118424127159    4.94097426441507
S         6.20396589830874   12.90993251706323    7.29741830220517
P         7.07428066013475   10.69843261224349    3.25043231572005
C         7.31122966897342   11.58221404660141    1.68606955452729
C         8.48139584248736   11.61339221263540    0.93934696557624
H         9.35035895456848   11.05728751846936    1.25849999325636
C         8.53361811755877   12.36396325405790   -0.22368831999767
H         9.44457163152237   12.38930975215887   -0.80440875730935
C         7.42722174111098   13.08245123942793   -0.64283353576328
H         7.47654011256959   13.66656156777071   -1.55019513323728
C         6.25895228127408   13.05901543295098    0.10446851953337
H         5.39839384176892   13.62533125119466   -0.22021001585138
C         6.20340583142346   12.31658375110556    1.26696937151981
H         5.30971362100052   12.29179455047965    1.87846547325763
C         6.03669362582318    9.28886860511657    2.74172055806325
C         5.26514274957751    8.66017652634245    3.71282158706902
H         5.25803456896791    9.06323879043634    4.71924495906287
C         4.50734910106286    7.55007598314681    3.38791539013935
H         3.90757290030291    7.06442098996614    4.14363875495921
C         4.51415455944129    7.06465050505533    2.09026802240816
H         3.91855217743327    6.20083414145876    1.83357810685921
C         5.28104896741632    7.68848584634101    1.11937527790108
H         5.28326340833413    7.30994744547482    0.10740850676272
C         6.04436616761502    8.79611978436107    1.44142704846921
H         6.64154699696179    9.28669354770087    0.68519136483326
C         8.67615112506345    9.82758810699961    3.57165790790261
H         8.89402396078435    9.09897341247359    2.78482897682692
H         9.45624537482609   10.59556523416958    3.60172447078992
C         8.56316705783004    9.15485688910926    4.92693285627353
H         9.53189491043332    8.81705060939781    5.29650869065029
H         7.87864787704318    8.30528420076763    4.88734834460732
C         3.62912973080976   12.59737757860821    6.47321028457247
H         2.66292352551370   13.01857801957816    6.19446159748601
H         3.47906407016749   11.79504445543272    7.19747381714336
C         4.54854660873478   13.66233514763601    7.02281348637276
H         4.19695376984658   14.04306018473363    7.98310061041208
H         4.65647984925145   14.47945120400743    6.30888336259952
C         7.37608558287224   15.00156658415640    5.85474756490499
H         8.24374418549957   15.65784759011557    5.78647974939189
H         6.48254817433010   15.58071489301207    5.61375138956142
C         7.29038178980273   14.37913946191936    7.22642518950274
H         6.92458485815065   15.08508160443474    7.97322615791176
H         8.26116514605778   13.98884202453437    7.53580133615909

