69
CSD_code = AMOZOR | q = 0 | S = 0 | Stoichiometry = C23H37N4OReS3 | MND = 5
Re       -0.71341822308485   10.83247983467102    3.04438639315103
S         1.22066740324401   11.55111662991877    4.06991994160777
S        -1.98021921221487   12.37596805029608    1.90486984127391
S        -1.08814045825915    8.58070114982060    2.77619460022099
O         6.47164892783580   17.61062915463978    6.45504050967378
N         0.46878760380770   10.70295829553682    1.26138215816124
N        -2.40310817152895   11.07434421237758    5.65942179383190
N         2.58444163292360   14.81015364530156    7.51627978557198
N         5.32267254753842   15.53325170600369    7.78613934738639
C        -1.14348954791018   12.32684661834282    0.26861819180271
H        -1.92531856876033   12.39571556141756   -0.48763826006821
H        -0.51227550548285   13.21302318450531    0.18963744513923
C        -0.37144513488444   11.02834096792594    0.10099200208933
H         0.24167319627108   11.07213819285232   -0.81459302598035
H        -1.10557620991078   10.22671021182023   -0.01788235523882
C         2.36856222322892   11.54997200377116    2.63522355900647
H         3.01872987065529   12.41717660364198    2.74965074009965
H         2.98268519480222   10.65070468504209    2.70010875686367
C         1.59127307938681   11.64875989461386    1.33271385659238
H         1.18276697467361   12.66138514832937    1.27382475776950
H         2.27118772860568   11.50104735222722    0.47737389956641
C        -0.07777613108952    8.27006316739689    1.27295422011778
H         0.38746973764017    7.29269483069284    1.40124398630590
H        -0.75578533695688    8.21600309040041    0.41998492072810
C         0.99208350363345    9.33789280874011    1.11585354475062
H         1.49597410047853    9.22378288473531    0.14158094689896
H         1.73252774982068    9.17514764051094    1.90402913977134
C        -1.76994103810956   10.97276804141368    4.67921055457947
C        -2.74703756231654   11.49096815455638    6.95213882458146
H        -3.24789464865487   10.66286126893196    7.46281549313007
H        -3.44717398759766   12.32884205001259    6.86762695406991
C        -1.48821238973383   11.91702663517667    7.71806952181581
H        -0.81901115830245   11.05819796996738    7.78662812368650
H        -1.77672673621460   12.21233406445655    8.72820040304535
C        -0.75962805459185   13.06086689226500    7.01803089947451
H        -1.37874647928100   13.96002069135860    7.04105740357689
H        -0.59974413064079   12.78685920110840    5.97141624529217
C         0.59686856781162   13.34983195353135    7.65251056222351
H         0.47529885557631   13.69786370076605    8.67957653377518
H         1.17406958058559   12.42543362351241    7.67285696602933
C         1.35128093500402   14.41421037457738    6.85743363385715
H         1.53205805363337   14.04070687758613    5.83540855365033
H         0.71720644000708   15.30147012702719    6.78137282885033
C         3.06689672539982   16.10514722177335    7.07572316374982
H         2.26925440808123   16.84115907289331    7.20152977123617
H         3.36832527541684   16.08975801730248    6.01312242562889
C         4.26592356621072   16.51540324132507    7.92400838074333
H         4.62837984340187   17.48842736921479    7.60084862231249
H         3.94410250356389   16.58199148325221    8.97667867223647
C         4.85503533454614   14.22836567938443    8.19633038910398
H         4.55287502321787   14.21662526319940    9.25636782531438
H         5.64953094249945   13.49628669677137    8.03931246419559
C         3.64727813729755   13.83927686672380    7.34527011845067
H         3.95952180210932   13.77244675643100    6.28676065595885
H         3.29072604076032   12.85835195580571    7.66091832520424
C         6.62641761909029   15.91031838280484    8.10252231335011
C         7.39659391944306   15.22291446338333    9.03708165603344
H         6.95675434230649   14.40891518874226    9.59102996756812
C         8.71406090824992   15.56643568129838    9.29095716243394
H         9.27911893295606   15.01055614182238   10.02430290088920
C         9.29071891205558   16.62238788638861    8.61896635242706
H        10.31399235894459   16.90716318695043    8.81113344705427
C         8.54922196536467   17.32524482762943    7.67951171197691
H         9.01992917536009   18.14059310907897    7.15295224927134
C         7.23817721308772   16.97870155737103    7.40403478776725
C         7.05246695135397   18.63812781669760    5.69511294839309
H         6.27899355950585   18.95917539587829    4.99809262764766
H         7.92143403579734   18.28377445653000    5.13041233795126
H         7.34850528231079   19.48868312968786    6.31915452449521

