66
CSD_code = AMUHAS | q = 0 | S = 0 | Stoichiometry = C18H31B10CoO4S2 | MND = 8
B        -1.82451026752604    4.08498892021168   11.26383113629027
H        -2.70323565701156    4.09499837236105   10.48757666960013
B        -1.65585616382545    5.18881915630836   12.62456262232283
H        -2.50239837749012    5.97597128169090   12.81672741252137
B         0.03673663111374    5.71282035679454   12.72362122892600
H         0.26582641955059    6.83916784863926   12.96579918951448
B         0.95247684707651    4.94604746189980   11.42958555431952
H         1.71911763552959    5.51911173045350   10.75369624903439
B         0.89824011541644    3.21246011667618   11.63883972261223
H         1.73184568407473    2.55902903471354   11.13474956640487
B        -0.78985397929359    2.69008096045210   11.52278938865696
H        -1.04217084635771    1.69602797801342   10.95458031185208
B        -1.70518696977307    3.42696868114634   12.87782949781610
H        -2.62305657541948    2.88755101307533   13.37404037466853
B        -0.55550103428293    4.43573383027265   13.80219932378529
H        -0.68396657492135    4.61519542051907   14.95602863403133
B         1.06079088312102    4.29449058805580   13.05123187816549
H         2.06061500202056    4.37357042346005   13.66259973036865
B        -0.01942399005499    2.87313731876727   13.11656329571652
H         0.22439155664233    1.93815830934185   13.78484085158219
C        -0.70609703367906    5.38075994029268   11.21709148833864
C        -0.22046861058738    4.00225954474010   10.59013014074547
C        -4.19891077867595    6.01657446146557    5.17388024862237
H        -4.49211170987657    6.95783185724325    4.71515377688968
H        -5.07288499466872    5.49756503440993    5.57247578204262
H        -3.70751416738717    5.36815441512197    4.44502385926432
C        -2.69674093968515    5.29810420133619    6.81958710490384
C        -1.83703056417995    5.78052740797515    7.91200617295130
C        -2.31433634879958    6.27323922718040    9.06286949459058
C        -3.66368259030882    6.44478135015493    9.59614801378185
C        -5.92686135451305    5.94827681882145    9.27578086468192
H        -6.50055846996680    5.23800957981961    8.68547991359461
H        -6.29843781849037    6.96392818616275    9.12065847744296
H        -5.98926978607533    5.70641677115807   10.33887963888236
C         0.75267743698479    7.74805566482794    7.21797882782554
C         0.44142033828600    6.82049124501224    6.19620239579567
C         1.19717255657231    5.63171500856987    6.45330474349771
C         2.08889034654922    5.89417941007295    7.56128084689887
C         1.79803453667307    7.18083423815946    8.04287939156903
C         0.27134110566572    9.15983163692405    7.29804216418318
H         0.93360638559254    9.80602409896412    6.71862193352949
H         0.26483254218037    9.51612418053794    8.32555984813847
H        -0.73307916937571    9.25153018782385    6.89072796455246
C        -0.41047887511129    7.07536651773238    4.99650378821623
H         0.16890653377902    7.63039810452435    4.25652843098453
H        -1.29007888672974    7.66231097559351    5.25064746131346
H        -0.73332789267014    6.14082013075161    4.54599604561150
C         1.25407125782298    4.43152497964665    5.56743601498997
H         1.85169446213255    4.65725814226109    4.68225819741737
H         0.25722108085354    4.13950325448396    5.24390858934220
H         1.70279813198438    3.58966133861735    6.08709765473652
C         3.18653887140100    4.97499247026752    7.99178535208668
H         3.91738682870088    4.87959437625108    7.18806309239727
H         2.79545624725677    3.98357271951344    8.21511844410517
H         3.69211823094316    5.35046832696762    8.87692331002559
C         2.52308046714206    7.94828780046265    9.10146567302903
H         3.12145466546343    8.73048235987958    8.63193507468772
H         3.18634969730974    7.30683616858261    9.67493181689271
H         1.82783396024234    8.42592678238432    9.78999380290021
Co        0.03949304269289    5.99803327833488    8.09427800060891
O        -2.83402202541424    4.15813587960761    6.46463226399804
O        -3.30546936157975    6.34585548130993    6.22494423287976
O        -3.91357976495956    7.04841690989215   10.61265754716952
O        -4.58468621216505    5.84451271965820    8.82687494946922
S        -0.93249575904364    6.78981186247400   10.08937123996217
S        -0.07883595085513    3.83948615113365    8.80009328629217

