115
CSD_code = AMUJUO | q = 0 | S = 0 | Stoichiometry = C53H59N2V | MND = 8
V        -4.30457800214212    1.30978862450426    8.94423956326095
N        -5.86977042081669    2.31369937185191    9.30413806367893
N        -3.39526898127606    2.44882672729734   10.14356431273967
C        -7.08429161682367    1.72372898710349    8.86335376091740
C        -7.71397888526078    2.18656858246980    7.68946637948469
C        -7.00064550738205    3.09497368192975    6.70804518600644
H        -5.92781268728934    3.01694997212575    6.90665993437140
C        -7.26590260224829    2.67616240900152    5.25640309054121
H        -6.52200467118065    3.12878926047016    4.60423017336020
H        -8.24792914824705    3.00997193034956    4.92836338196357
H        -7.21844991257417    1.59728639892085    5.12779289509684
C        -7.38883496274722    4.57077840851672    6.85338970820482
H        -7.00699002446589    5.12597813538400    5.99881892143546
H        -6.96007024163017    5.00238410387235    7.75110617868791
H        -8.47074665015450    4.68747160503876    6.88366251600884
C        -9.01786426802991    1.78424000591649    7.42889504917073
H        -9.52250864316959    2.15501441902589    6.54981319935022
C        -9.69050450766989    0.93503178683607    8.28731040961129
H       -10.71429094797378    0.65827705203536    8.08297478568823
C        -9.04074875979782    0.42469843621591    9.39438831462141
H        -9.56358232159340   -0.26202508936107   10.04042377380750
C        -7.73876630308640    0.79974226315826    9.69553999023389
C        -7.03795033386507    0.24098794496424   10.91460208404376
H        -5.95603531814280    0.27204010049099   10.70778719217560
C        -7.31347791650553    1.10603251056397   12.15003192216839
H        -6.93529761131707    0.61284561935925   13.04287154469029
H        -8.38401463449569    1.26249990536107   12.27239301384284
H        -6.82248531465210    2.07195188369474   12.06189031417545
C        -7.43675219685195   -1.20671720585294   11.20734252600131
H        -6.74425447276596   -1.64167512184045   11.92480543831839
H        -7.41702821031149   -1.80679895033777   10.30181664238842
H        -8.43430079364479   -1.25960052673884   11.63804355199974
C        -7.41699041786620    4.11903681890835   10.12358944066206
H        -8.15850374961721    3.80311317980497    9.39922556933035
H        -7.33084675158288    5.20295083459721   10.09845922215904
H        -7.78648952014470    3.84454675618271   11.11243597987565
C        -6.05424294766778    3.48821782228935    9.90584834946710
C        -5.00169407157421    4.14633475635490   10.52765970211761
H        -5.21477261949304    5.08474670735182   11.01818538277189
C        -3.73628538649444    3.60405073562260   10.70778770216644
C        -2.86157777079322    4.34741486005931   11.69594815271123
H        -1.85989495742553    3.93579474600427   11.76425621193696
H        -3.32255445141908    4.30025003983132   12.68266867196787
H        -2.80346634661580    5.39981576431881   11.42278187304685
C        -2.18381402764585    1.88522992353313   10.62821130487666
C        -0.94154500767383    2.19347477030248   10.03812511080533
C        -0.82148123697681    3.12837314201342    8.85105898183804
H        -1.78821013734720    3.14674749621923    8.34006829125574
C        -0.49939059780930    4.56379154193410    9.28638911467883
H        -0.22083825952905    5.15150626620161    8.41372115927024
H         0.33233809887552    4.57464593321054    9.98851774694377
H        -1.35664178174644    5.03786593550586    9.74960220770263
C         0.26721654218009    2.68023064444885    7.86665303779812
H         0.07107153543633    3.09857657679312    6.88047543910853
H         0.31769749494727    1.59769518876625    7.78861138166345
H         1.24439998170889    3.03499670850561    8.18808594117464
C         0.21571210896107    1.66720206565672   10.59658612831072
H         1.17167704720342    1.90159042223959   10.15576128733053
C         0.17338094559899    0.86708919086443   11.72051691736386
H         1.08592187768485    0.46633633340607   12.13573055872221
C        -1.04007375409113    0.60700899364589   12.32441927764718
H        -1.06428423377749    0.01226458188243   13.22512865980685
C        -2.22258517214318    1.11966696845876   11.80953193318317
C        -3.50837674862322    0.91805951297457   12.58673250427941
H        -4.31663526508906    1.44525540562409   12.06498855225951
C        -3.37313762570390    1.51036578170237   13.99479615746321
H        -4.34560781626908    1.53770791863762   14.48218565197909
H        -2.97743685531451    2.52127276167941   13.95810895087813
H        -2.70387964677246    0.90826682928337   14.60475445927839
C        -3.89681472412943   -0.55723622786137   12.70375225403942
H        -4.76197504475779   -0.65890248705153   13.35597131583245
H        -3.08368221062588   -1.14180370027893   13.12897498023628
H        -4.15602884050755   -0.96246788185819   11.72945292452245
C        -5.01086195421416    0.35327557040713    6.97696460417621
H        -5.80258326353686    0.47069383345472    6.24969359569787
C        -5.07305404980712   -0.66790981477148    7.91534433292757
C        -3.98525781622229   -0.79483297126466    8.82623335395322
H        -4.01429852302784   -1.61195103333066    9.53833223167350
C        -2.71076179472143   -0.27059531308233    8.46294442869716
C        -2.69117479623349    0.76335430193273    7.53348499545237
H        -1.75589458479442    1.19935454389373    7.21560841091236
C        -3.87248771583613    1.18866591944013    6.87740712344295
C        -6.15737059628848   -1.65856327449509    7.89047789090257
C        -7.41195116653046   -1.36819400618150    7.34871597059745
H        -7.62301973806649   -0.37865601253738    6.97798915930980
C        -8.40845909757926   -2.32245523338305    7.29800140887716
H        -9.37191431526072   -2.06116072410714    6.88484177846935
C        -8.18080910267273   -3.60303023677425    7.77299884502859
H        -8.96116921768885   -4.34851532895043    7.73525081464841
C        -6.93434197687810   -3.91970956051407    8.28586469083323
H        -6.73419566882398   -4.92017868807582    8.64237477915016
C        -5.93720430257913   -2.96505421730925    8.34096134284760
H        -4.96742114275178   -3.25427358335484    8.71940548119377
C        -1.46963369566855   -0.89509343168730    8.93361409660803
C        -1.37778918355098   -1.56298503293031   10.15531589737454
H        -2.22456510581338   -1.58664363304223   10.82044103252516
C        -0.20633950621336   -2.18111834205619   10.54581747313193
H        -0.16223783136608   -2.68454928636147   11.50120572542864
C         0.90801074488894   -2.15858659670870    9.72571293521615
H         1.82549491028675   -2.63749237899142   10.03426056222304
C         0.82565923501715   -1.53255244488961    8.49354900892874
H         1.67834354734801   -1.53132103155575    7.82902724934857
C        -0.34760737971071   -0.92170857626428    8.09858526061543
H        -0.40414796237667   -0.49011707940945    7.10883729403017
C        -3.76961546709215    2.20977304927382    5.81631569296900
C        -3.55300604072195    3.54764711296617    6.14203360284189
H        -3.51013303288209    3.83777235405735    7.18742708747571
C        -3.43728089490865    4.50068424640567    5.14758798557848
H        -3.27472879034398    5.53587159956873    5.41132128030438
C        -3.53705994719589    4.13331459540062    3.81499378334813
H        -3.44712387399383    4.87842571790654    3.03803240373629
C        -3.75973532612349    2.80765869731486    3.48239262573414
H        -3.84316515006206    2.51698955071485    2.44485419916599
C        -3.87657551521792    1.85152620963262    4.47546079031191
H        -4.04555369804446    0.81565367955868    4.21329646780564

