88
CSD_code = AMUKID | q = 0 | S = 0 | Stoichiometry = C37H45NO2Si2W | MND = 9
W        -2.10466376565001    1.63464040599898    3.58190427996244
Si       -3.90335723977288    3.27051598522211    6.31744158425191
Si       -0.14970137060164    1.67319081984969    5.19348689655245
O        -1.62430294451882    4.65380978043983    2.99966995740927
O        -2.07124988445811    1.07075332989920    7.21754913754898
N        -3.26048060702135    2.26803170411777    5.05567389227546
C        -1.74485302312926    3.55276207466084    3.34431793586181
C        -3.76732086890165    1.00644949337785    4.78435594530897
H        -3.61772962050765    0.23932330510038    5.56087070047507
C        -5.08029804686687    0.94957389854962    4.13931075165331
C        -5.94903025811985   -0.12619700318928    4.33786744126474
H        -5.64482487386329   -0.94023861712029    4.98308991248614
C        -7.19218495453664   -0.15151916211085    3.73421622752813
H        -7.85064258135610   -0.99307557499847    3.89717396010387
C        -7.60152992764116    0.90122172358525    2.93184921764636
H        -8.57674736519081    0.88318130161992    2.46871563195162
C        -6.75249368073849    1.97970370831360    2.73128318505915
H        -7.07055690423960    2.80431201568962    2.10871458509545
C        -5.50428243691028    2.00259157451387    3.31918003835179
H        -4.83313585960921    2.84191003732929    3.15847259391006
C        -5.73883149578492    3.71839490523075    5.97477659672735
H        -5.84967821949576    4.23121575592928    5.02492148696251
H        -6.11240520677846    4.38737899741552    6.74346534734347
H        -6.38231016046371    2.84394081663365    5.95544502430451
C        -2.94204184411584    4.91520678033802    6.42046442245288
H        -2.47715589812997    5.04994863037457    7.39068317511669
H        -3.61635457084066    5.75077511102092    6.26513227649880
H        -2.16525013561579    4.96747192945693    5.66641790633960
C        -3.93707584083503    2.26558459861158    7.94258132532777
C        -4.90787237370331    2.49545144006824    8.90587282432488
H        -5.60651490478835    3.30481815733076    8.76600354969982
C        -4.99685323457132    1.70417147754915   10.03662567680559
H        -5.75715479643168    1.89858285612503   10.77856816025937
C        -4.12226645392688    0.64830258941329   10.20694812844910
H        -4.22241982445516    0.01982348913171   11.07904201681858
C        -3.12391567186485    0.38388188332738    9.27797457232361
C        -3.03431563878217    1.21789448502177    8.16526541249783
C        -2.18951965655585   -0.79848023630925    9.46760921880032
C        -3.01778476548569   -2.09403166453016    9.41196325780412
H        -3.51522868251174   -2.17889091055915    8.44706582785310
H        -3.77695200401562   -2.09958742835371   10.19001436602619
H        -2.37942544297882   -2.96351203396196    9.54680958860042
C        -1.48632354510206   -0.67626689885497   10.83012168430829
H        -0.80859996579313   -1.51039328409789   10.98989978910114
H        -2.20869767765332   -0.66614411149705   11.64170110466531
H        -0.91071906484648    0.24664180494912   10.86851825350013
C        -1.11269553852225    0.11141558662547    7.35983161032161
C        -1.13428248246243   -0.83289630736324    8.37795388363129
C        -0.13306113368763   -1.79860815348092    8.37841860101318
H        -0.12380513193326   -2.56193694986295    9.14219338299149
C         0.86091293885635   -1.79397783309030    7.41932379139705
H         1.63014110429526   -2.55258293134456    7.44065223004422
C         0.88460303352046   -0.80422172426422    6.44998863475276
H         1.69118332584869   -0.77875901628123    5.73427682249298
C        -0.10206590358225    0.16599935036943    6.39599077897967
C         0.00896954256505    3.14450909987640    6.44499690402151
H        -0.87511459936445    3.25516060581177    7.05842026790556
H         0.17328538112947    4.08172491380993    5.92291298090174
H         0.85648801821642    2.98530954037395    7.10722764044240
C         1.66950948093633    1.75255383036270    4.52697140861325
H         2.35411131371857    1.87438521510965    5.36015078336019
H         1.79736329965294    2.61035281328693    3.87624930187808
H         1.98779378070367    0.87297641167280    3.98224607148253
C        -2.31021882615514   -0.47775129279835    2.52445401669810
C        -0.92324789106661   -0.16272981172517    2.56868688145549
C        -0.71940273228160    1.04571827128408    1.81975463535687
C        -1.99286277160368    1.43039685659736    1.27363998265875
C        -2.95882131798287    0.47109122414876    1.68257867782494
C        -2.89697796887170   -1.76301240059974    3.02642141186892
H        -2.70429643323982   -2.56465327319233    2.30890312826133
H        -3.97450326286880   -1.68346707396558    3.15940399430176
H        -2.44832307288063   -2.04999533657702    3.97726949726103
C         0.11342009073760   -1.14742044821929    3.02078923150842
H        -0.02372768921999   -1.43396420555477    4.06230930285303
H         1.11592264560347   -0.74843062736002    2.90389564554451
H         0.03590730811072   -2.04951168940001    2.40941488116177
C         0.58299353417039    1.57745948927324    1.28508217116965
H         0.68653487090080    1.30282064512974    0.23262882672000
H         1.42972419253910    1.17105032276953    1.82787541397628
H         0.62473840387633    2.66373884019166    1.35641455027216
C        -2.19500822296268    2.47986438353910    0.21931759985533
H        -2.01898900040764    2.05274418784011   -0.77072447296488
H        -1.50384647055849    3.30983776019811    0.35659565835873
H        -3.21083255871531    2.87171243358854    0.24061070705595
C        -4.30675672750981    0.30470786477512    1.05126036459875
H        -4.77477520086819    1.26282053194619    0.83533502119403
H        -4.98435411129717   -0.27546862369494    1.67273343526697
H        -4.18167992858133   -0.22628242064053    0.10380947583375

