77
CSD_code = AMUKAV | q = 0 | S = 0 | Stoichiometry = C31H40MoO3Si2 | MND = 10
Mo        0.54156458584511    4.07605622120739   14.60527486229002
Si        3.03936996537951    3.89877382608261   13.84876733346184
H         1.03349471843372    3.55173362896816   13.20004125626713
Si       -0.96085167179113    3.82923420538354   12.48198394086534
O        -1.17300505512235    1.55893915002726   15.12677070281145
O         1.66528673427864    1.61633459720237   16.10029216374256
O         1.59264314672041    5.08314077616171   11.50119881020496
C        -0.49426055052550    2.46527377001347   14.86909795253889
C         1.25545698982555    2.50100454044296   15.46946996825518
C         3.42981948653704    2.41009053714328   12.69989430772390
H         2.93117091714583    2.51034403876784   11.74157691941367
H         3.09518108941627    1.47914928098203   13.14877970924779
H         4.49568396232056    2.32401448808670   12.51019226119297
C         4.33027600672929    3.69298307754645   15.25432118011956
H         4.06347131334921    2.84026115576763   15.86959915698052
H         4.42263689127660    4.55284828677455   15.90613764345508
H         5.31153634591450    3.49166245738367   14.83509063246128
C         3.52462990090229    5.41845319814300   12.80308188477875
C         4.66856795908302    6.16300367102290   13.05555370635475
H         5.30994813030290    5.88065455194551   13.87614097794248
C         4.99607007673340    7.25994735183460   12.27955016373919
H         5.88364037178455    7.83466131100863   12.50061351576783
C         4.19624296746717    7.62012569326503   11.20890184129219
H         4.47653459048331    8.47223376713368   10.61120161298054
C         3.05863720681358    6.88864046280714   10.90167953434671
C         2.73531766302604    5.80499244499932   11.71911257954586
C         2.17735396511596    7.14442029287329    9.69245276462874
C         2.58081915075027    6.13163751424130    8.60095886036740
H         3.61746841182736    6.28932512939093    8.30978601724029
H         1.94516772599942    6.25229868987903    7.72591553610671
H         2.47623588270491    5.11207106308141    8.96525336090613
C         2.33964996766032    8.55877518035811    9.13640510258571
H         2.06326142872420    9.30298534668466    9.88048242099674
H         1.71868943482939    8.69112831884773    8.25443211585033
H         3.36863909391213    8.72792640832202    8.83054434308685
C         0.53404619739150    5.75778844817927   10.95465062013385
C         0.74636282488946    6.83670363173011   10.09503025649239
C        -0.36330878486163    7.51615656049755    9.61496839985101
H        -0.24440459458235    8.36209624573582    8.95759929939498
C        -1.64043277964800    7.11056585948089    9.96152768878872
H        -2.49495488793943    7.64388008818830    9.57133161114626
C        -1.82309572786400    6.02211376500301   10.79477433771576
H        -2.82368997671847    5.70585032356920   11.04584414066659
C        -0.74200006535042    5.32935989699805   11.32282809887776
C        -2.83550497917309    3.59486720029196   12.82166513877305
H        -3.35715361510294    3.35360160130261   11.90036746070082
H        -3.32102341955672    4.46025547164452   13.25592248816108
H        -2.97997881632475    2.76017036861168   13.49949731619136
C        -0.54060479324124    2.32408194845346   11.36603109628825
H        -1.26415551649657    2.21064912173785   10.56411052563689
H        -0.53767292745954    1.40463232664464   11.94452636610104
H         0.43970264090053    2.43027380584307   10.91338678405141
C         0.52216303194634    6.45547025484060   14.63470315060562
C         1.35158234731976    6.01711550825447   15.71187747994689
C         0.54709945275047    5.23734770830384   16.59375753139119
C        -0.78235774951707    5.23421515874625   16.09285723293168
C        -0.81013464885380    6.01939075431186   14.90204385285822
C         0.85482973384798    7.61340909396947   13.73680073676113
H         0.26655414058449    7.59253113130274   12.82096522451485
H         1.91018741173288    7.62560639326381   13.47161495096314
H         0.62803444806238    8.54763089829461   14.25995577617619
C         2.65909545375770    6.65661655786025   16.06928574241626
H         3.31822790276020    6.75130878698901   15.20912083452689
H         3.17176321876619    6.10263338230668   16.85149069923687
H         2.45821138033899    7.66231744564811   16.45006739446448
C         0.97538684973146    4.71897720970280   17.93466534703288
H         0.83986685554713    5.49116489593944   18.69591667933655
H         2.02437730417588    4.42673325662188   17.92706784466741
H         0.38725443077635    3.85000587854510   18.22684989510669
C        -1.98736125151691    4.71581016976131   16.82053982823687
H        -1.73692664980931    3.84681581611372   17.42749909708147
H        -2.77130772707926    4.42303245123338   16.12392786428061
H        -2.38686317326399    5.48777268151696   17.48279845390477
C        -2.02787611963779    6.67132331008633   14.31994270927289
H        -2.09710065812741    7.68747925005027   14.71932699148629
H        -2.93501006227928    6.14289424835875   14.60108117867059
H        -1.97977550472945    6.74242666028685   13.23552673560799

