38
CSD_code = AMUNIH | q = 0 | S = 0 | Stoichiometry = C18H14ClN3PdS | MND = 4
Pd        4.30673476525960    6.78127027735814    9.12174479496079
Cl        5.43422914841482    6.76194441424529   11.19406849470343
S         1.94148631942981    9.98990331410649   11.26605878491433
N         5.20070001129663    5.19161520186212    8.36327581267788
N         3.38932532381701    8.44503684487125    9.79008039246048
N         2.37959940631824    7.30310230379360   11.53651958886166
H         3.13083149599920    6.60087973927366   11.44703123027821
H         1.94678501492563    7.38695039327498   12.44243998244117
C         3.31785895896213    6.70459551493142    7.37989845152634
C         3.52701469337016    9.69230726273564    9.24683741880908
C         3.78913551072006    5.67773478121045    6.53298847695870
C         4.32292445094589   10.00930797901300    8.15047056112562
H         4.89261208432337    9.21443506639050    7.67034714283051
C         4.85383438613508    4.85756383426763    7.09875082091766
C         3.23132953059665    5.47558324623463    5.27056727510467
H         3.59810359757924    4.69002610098760    4.62595438799799
C         4.35898868540337   11.32147862364317    7.72527519040767
H         4.97077648252223   11.59298634190087    6.87885777989303
C         2.82922531978482   12.00567985768232    9.47234442583729
H         2.26414753056951   12.76956499264768    9.98189557031869
C         2.26969480091559    7.49360122465530    6.91630602432986
H         1.86698545525882    8.28833748514266    7.53346569731070
C         6.46081665295974    3.07014140174087    7.10834187196228
H         6.95546275738610    2.24619079259637    6.61605692173784
C         2.19769615046470    6.28174794649389    4.83789365095066
H         1.76420586487417    6.12697400876592    3.86057358434047
C         2.63424599792198    8.42793998620627   10.84839471459466
C         5.48307045656289    3.79330422972777    6.45290428329071
H         5.20532973371547    3.53960855343410    5.44272583333200
C         1.71406142444705    7.28530110261677    5.66264458305547
H         0.89875089453135    7.91033543593023    5.32611957032936
C         2.79451644542391   10.69335985434304    9.90603973155627
C         6.13597177605840    4.48935143273028    8.99568975617774
H         6.36945145884237    4.79222832925182   10.01109145586803
C         6.79138258995503    3.42052103498175    8.40894571335488
H         7.54350318777732    2.88088696347984    8.96122801088335
C         3.61746696939176   12.30565697651794    8.37521226451043
H         3.66314466713370   13.32464715099094    8.02305974938954

