60
CSD_code = AMUTUZ | q = 0 | S = 0 | Stoichiometry = C32H20IrN3O2S2 | MND = 6
Ir        2.21400836515237    0.43553802983940   19.37939139482316
S         3.19072816693490    2.20967247398091   23.39147973210631
S         5.43325925424498    0.10941737786897   16.26449723041183
N         3.47971615726755   -1.13360207301216   19.53931735431531
N         0.89244630806348   -0.05744897341174   21.04445972475732
N         0.90867932333241   -0.42667096221878   17.93912379659743
O         0.86130538335348    1.97693559230135   19.12254910658789
O        -1.14673427762177    2.42700140028190   18.28579063675093
C         4.42096734028124   -1.23656215661094   18.55740946923166
C         5.30053062832026   -2.32154649206886   18.50124473722178
H         6.02613416114887   -2.35937521032608   17.70397911576892
C         5.22186775725965   -3.30599917845587   19.46015228802800
H         5.89148181195654   -4.15184056072781   19.43887848963152
C         4.26296339851255   -3.18798202835088   20.46431499652556
H         4.17366053348310   -3.93347334769985   21.23751863578951
C         3.42295592543130   -2.09327315776249   20.46328681961081
H         2.67305182856000   -1.97742064227693   21.23391020428190
C         4.38849042491464   -0.13873578048057   17.65249445692756
C         3.48158125952300    0.87458505335762   17.87679991313181
C         3.62336338491429    1.90668623482672   16.90234536320163
C         2.91551763065096    3.10762881301670   16.79575150480476
H         2.15610582492326    3.32771397334185   17.52921658102659
C         3.20761276581897    3.97941743661424   15.77191099048531
H         2.66301890557129    4.90755611954412   15.68518593091567
C         4.20446486356995    3.68259939215643   14.84166250278549
H         4.41754481636953    4.38101247967425   14.04595164811749
C         4.92843957967136    2.51038325009126   14.92740397580927
H         5.70645275157085    2.27984621145447   14.21571080795253
C         4.63777716857631    1.62951578112165   15.95693317779530
C         1.22362835672095    0.64134413210272   22.14877810339070
C         0.39852848599761    0.64941880410397   23.27848912494163
H         0.69704945187592    1.22232764746907   24.14224762669462
C        -0.78131527231463   -0.06087060058277   23.25308897513011
H        -1.44023190104246   -0.06298649420363   24.10835105480989
C        -1.11324616813758   -0.77527378336763   22.10643092588705
H        -2.02728328929241   -1.34352186874805   22.04544043288477
C        -0.24341387697839   -0.73745698823030   21.03312969682553
H        -0.46870635828045   -1.28700874120122   20.12745217805831
C         2.46286693620912    1.34916893596065   22.04590826168146
C         3.18270988209949    1.40206143758608   20.87691478800732
C         4.37368843352353    2.17392672031768   21.05348779701523
C         5.37400374465467    2.48199467001903   20.12574766727388
H         5.27748204278750    2.11892406306366   19.11630582247458
C         6.45346579677192    3.24623816603788   20.50391515951011
H         7.22109105286392    3.48386375377936   19.78259075843320
C         6.57151165406035    3.72484978193272   21.80914346531601
H         7.42603090143971    4.32455066329509   22.08513389176168
C         5.60373172900643    3.44238327648489   22.74975383493703
H         5.68132209338737    3.81003744759216   23.76151033716420
C         4.51481655550041    2.67317864495024   22.36859706416224
C        -0.13367925382458    0.36920225851107   17.68996768217436
C        -1.14155503296089    0.01845429515583   16.80287189964768
H        -1.95389203875069    0.71335474041458   16.65740111983764
C        -1.06339664559902   -1.19619994976718   16.14641766558757
H        -1.82883162162235   -1.50061474835523   15.44844763537334
C         0.02564730950372   -2.01783425302628   16.40559235074180
H         0.13296928547316   -2.97342360234110   15.91665254815717
C         0.98429107126925   -1.59348549216146   17.30768065738637
H         1.84551410112493   -2.20996705534646   17.53105207204065
C        -0.16768886722607    1.71588508248311   18.42482881730091

