60
CSD_code = AMUVAH | q = 0 | S = 0 | Stoichiometry = C32H20IrN3O2S2 | MND = 6
Ir        7.75581117500333    3.63528747122501    9.61322308798804
S        10.80029739562461    0.33128995771582    9.70419367696564
S         3.77005685460641    1.96736701853801   10.80245190151361
O         6.99317946769573    5.60533324825347   10.04293918867173
O         7.27219916322132    7.75109638632115    9.53391028526967
N         9.15172499592590    3.70778298985792   11.07490825274321
N         6.30017901793804    3.61325786102281    8.18211603238356
N         9.08258086123287    4.89699650409411    8.47537906686280
C         9.24202199131563    4.66237256661829   11.99575399751011
H         8.45587337631190    5.40486166239644   11.99528598504072
C        10.27171262262177    4.71100237301211   12.91643552704056
H        10.30251771715198    5.50308123790669   13.64643201255690
C        11.25379445486446    3.72557244339896   12.88331700474944
H        12.06952477649000    3.74131882675318   13.58993440344803
C        11.16439073079275    2.72457228028459   11.93907384093819
H        11.89450681349544    1.93277616849694   11.87731766879776
C        10.09525805560805    2.73101949506594   11.04152405396062
C         9.83190990970143    1.75485625058137   10.03323597394075
C         8.70896665799351    1.88944400463806    9.24628827270009
C         8.60927524538210    0.79398010225364    8.33259221744586
C         7.62474049213437    0.53460189196805    7.37377317395211
H         6.79744390742563    1.21966000633879    7.27461230796964
C         7.71589019649049   -0.58544490374119    6.57981234389732
H         6.95351457938051   -0.78383202684908    5.84109959883520
C         8.78196049112172   -1.47512855564019    6.71660530298702
H         8.83500138334083   -2.34754355719806    6.08281674515954
C         9.76649475300566   -1.25406344561555    7.65695299102504
H        10.59187852753370   -1.93933654053042    7.77431889107398
C         9.67532172454999   -0.12686755163730    8.45911320314620
C         6.38295184305310    4.12172904315231    6.95527456987992
H         7.36598839732631    4.41635931045580    6.61288778582104
C         5.29037316480223    4.26670365660817    6.12346707744697
H         5.41614528408273    4.68662283877991    5.13874965652945
C         4.03791395326149    3.86848181553020    6.58177037566230
H         3.16501068102547    3.97856681563221    5.95681957022973
C         3.93644639150706    3.33090291792598    7.84533599121398
H         2.99162157981222    3.00485195477270    8.25092849378545
C         5.08442720993974    3.21277924560780    8.63334096092032
C         5.12871317941414    2.66748819141863    9.95033020805780
C         6.31904221602763    2.64398343643714   10.63898692090312
C         6.14502821323814    2.03177826015018   11.91909401723673
C         7.08547594902293    1.78921623992664   12.92626525182402
H         8.11246415114562    2.07721926493680   12.77115289256356
C         6.70049284115326    1.18418868069011   14.10037289320000
H         7.43143342815860    1.00260637641488   14.87456960925618
C         5.37587447992377    0.79917062094922   14.30799468987242
H         5.09458026186105    0.32856517999073   15.23809564810674
C         4.42397023474179    1.01152417452720   13.33338668420073
H         3.39710949327659    0.71354280049542   13.47951324287125
C         4.81049729127176    1.62135569754194   12.14956026647711
C        10.12914625603275    4.54824286386999    7.73294490855858
H        10.33172967828646    3.48820971475172    7.65806488812241
C        10.92254226641024    5.47381544561909    7.08044379690380
H        11.76213871666529    5.14142228350107    6.49044327742089
C        10.61613498860114    6.82310956160505    7.20038448280754
H        11.21623105308950    7.57071826169024    6.70314326172186
C         9.52571385660583    7.18357085235003    7.96921394232518
H         9.21858423013497    8.20831135439373    8.11075544241574
C         8.78240727473397    6.19064263206332    8.59370484808611
C         7.56518409743695    6.56890634268151    9.46638733700869

