37
CSD_code = ANAJUW | q = 0 | S = 0 | Stoichiometry = C11H16N2NiO7 | MND = 6
Ni       -1.38667451921928    2.41178691990832    6.84822812769954
N        -0.67508878695592    2.41146883636741    4.60761155910825
N         0.97742219540067    2.41088447364159    3.16819128065228
H         1.91532006474296    2.41078692048332    2.80209884122233
O        -2.76012937171931    3.90616890300598    6.39404345097169
H        -2.87795433740692    4.41117844848995    7.20565117202904
H        -2.22558903633546    4.44433100403518    5.79717948766045
O        -0.15353161694215    1.07567742877328    7.23264832917483
O         1.60625931815698    0.20367974189999    8.20855710364063
O        -1.91403144086154    2.41155255490548    9.24868309467766
C         0.63875299616104    0.94011851472403    8.22930627575931
C         0.25971901036566    1.63861398506200    9.55969896818599
H         0.94130611507826    1.24059911410352   10.31273237957650
C        -1.21845331881455    1.35092805661072    9.89963796226389
H        -1.58238510108241    0.38213104288053    9.55709757942327
C        -1.45969207354825    1.64176962259636   11.38987026685800
H        -0.68101343646404    1.21380516861399   12.01589928482498
H        -2.42267243376718    1.24218420506671   11.70617684156150
C        -1.19031715107196    2.41063760343731    3.34622739078472
H        -2.24861253037860    2.41040212561786    3.17732409630436
C        -0.17459599148935    2.41026463376502    2.43629367119795
H        -0.17722831192717    2.40962868448001    1.36621867373723
C         0.62858214700932    2.41159606019992    4.46912945710623
H         1.32965738552709    2.41218355404071    5.27982473695602
O        -0.15321207513812    3.74759254280200    7.23295127136558
O         1.60590784330550    4.62017751247559    8.20950713100087
C         0.63869562270866    3.88331718379635    8.22985675784211
C         0.25975394992725    3.18426879774831    9.55998448518364
H         0.94136173755679    3.58200171264238   10.31314680878013
C        -1.21840170546694    3.47189143250177    9.90004438234255
H        -1.58228321907368    4.44084321527347    9.55788497140107
C        -1.45964750423404    3.18048392417032   11.39016711838778
H        -0.68093788983821    3.60815828770185   12.01635470587778
H        -2.42260146593638    3.57999689538746   11.70664068287812
O        -2.76072881116545    0.91782183547706    6.39406239220661
H        -2.87626501931332    0.41068946689841    7.20488630012591
H        -2.22729123779603    0.38127959041681    5.79438296122940

