63
CSD_code = ANASUE | q = 0 | S = 0 | Stoichiometry = C27H22BN6O3ReS3 | MND = 6
Re        4.17851161978086    5.93597365447066    8.51957652304909
B         3.61352874900082    9.99692878630445    8.01798898580863
H         3.44890274058332   11.16765240408161    7.87404910152775
S         6.06784512504202    7.65615019087013    7.92411506712653
S         3.25230812448237    7.56732202890659   10.35422079786378
S         2.60398865688261    7.02661449293276    6.72338093685563
N         4.75333967876751    9.78480782890943    9.03558589159032
N         6.48383071356647    9.01215676730018   10.18464456713497
N         2.30008916239610    9.37795137496389    8.53755056449043
N         0.77337324160300    8.10830531613533    9.52164392430390
N         3.99256454384921    9.38456160482637    6.65366346659693
N         4.28098056890312    8.04394767554017    4.91274118962865
O         1.77643574395667    4.14857000688516    9.25964224742004
O         5.24433023450372    4.24979898725068    6.16728330636955
O         6.13584317770224    4.94091686546013   10.68525274992524
C         2.70159596289475    4.76662440162469    8.97920548380120
C         4.85313232493407    4.83043926990218    7.07620385758201
C         5.39189167784674    5.25460376189178    9.87020879445170
C         7.58492968436925    8.18219942965626   10.58029957831305
H         7.35989282844561    7.68986966850396   11.52811148957877
H         8.48790518190277    8.78524834889454   10.68848886458745
H         7.74423820336075    7.42531368333603    9.81214046605982
C         5.72056416680150    8.85116690963844    9.07761550581938
C         5.97042187415211   10.06062904808734   10.90760893828313
C         4.87165271708433   10.54707167847576   10.17859463801616
C         4.11512499678251   11.60317144242044   10.66351437792583
H         3.26064238022426   11.97245536959584   10.12089131184100
C         4.49748089496060   12.15716031785398   11.87073518567199
H         3.92876192799233   12.98069196314479   12.27497407378163
C         5.59325377243495   11.67648122279016   12.58458393403421
H         5.85259155767576   12.13746253829237   13.52528796663090
C         6.34884009571422   10.61775246435829   12.11791260865493
H         7.19090864287740   10.23627084973028   12.67304548948666
C         0.18408349418256    7.08144423954177   10.33169282215322
H         0.96535702421475    6.62618319756274   10.94019657015427
H        -0.26721037098371    6.31591592531321    9.69760555357447
H        -0.57900494957286    7.51212163559890   10.98126467887348
C         2.09588907534981    8.37823818332581    9.41351193323793
C         0.09834500295416    8.92996622112395    8.65275775046617
C         1.06841919135359    9.73340615038932    8.02918283267827
C         0.70279322737585   10.66247842996657    7.06695241301835
H         1.44038848793091   11.27175256178025    6.57124415886024
C        -0.64193496340695   10.76985108208286    6.76587251341467
H        -0.95854881676912   11.48350661410162    6.02053510337878
C        -1.59990713689985    9.97548211874503    7.39241531785166
H        -2.63823851943217   10.08988685638633    7.12138886216675
C        -1.24783478695492    9.03912758333878    8.34577358610269
H        -1.98545244722010    8.41449629937975    8.82379327751375
C         4.20194771751019    6.88935878651596    4.06503432739621
H         3.48493891338569    6.18989109854353    4.49496187595233
H         5.17845055811509    6.40569926794038    3.99858187407908
H         3.87181548346226    7.18184916684368    3.06722801428714
C         3.67074313233753    8.19634356128407    6.11205052241537
C         5.06091724364528    9.15147701340521    4.68746823404200
C         4.87786957033396    9.99918247459740    5.79346603716399
C         5.55878873716964   11.20407517305388    5.87953746196984
H         5.43841004381174   11.85317553394664    6.73111790479615
C         6.40074880248017   11.53418248986912    4.83428238509460
H         6.94555702485512   12.46522491852151    4.87187903664597
C         6.57199743497262   10.69353436718366    3.73641889506887
H         7.24384516907401   10.99008666575944    2.94562567769025
C         5.90741223624528    9.48552354140032    3.64330313395723
H         6.04681344901131    8.82736848946703    2.80059536178072

