58
CSD_code = ANAVES | q = 1 | S = 0 | Stoichiometry = C24H28ClN4Ru(1+) | MND = 9
C         7.80216699487709    8.26458159066167    6.90310767556302
C         6.81570966688609    9.29297014175814    4.83923457089459
H         6.66797290700844    8.81606153417120    3.87057380893299
H         7.15366675033659   10.31889521126754    4.68745214911023
H         5.87381235943255    9.32275522441376    5.38189408604304
C         8.87024839287353    7.96923633155710    4.96652673071771
H         9.05787831444487    8.09088339422079    3.91983993112674
C         9.55438549206284    7.28054136613786    5.90313799634250
H        10.45291170693879    6.70382076436532    5.83480526767911
C         9.22751835650270    6.75008122656198    8.25427316717505
C         9.47004457595364    5.38359208027761    8.12766514168697
H         9.33156771190284    4.91578467996094    7.16477231325790
C         9.88436392738171    4.63253478649581    9.21044245041221
H        10.06755991580317    3.57655022472491    9.09304554877586
C        10.06922396913363    5.24385672860285   10.43996971023229
H        10.40355810010302    4.66960106163383   11.28899260345702
C         9.81786803545855    6.59486637869311   10.58018440755724
H         9.94902970858528    7.07091087207791   11.53946519518880
C         9.38820941779571    7.36043573202812    9.49748249812600
C         9.97844856993734    9.50604593926571   10.48983647856766
H        10.95445756606711    9.18113365211742   10.78392437843068
C         9.32414762616050   10.66275851633237   10.72196316427993
H         9.62256954796758   11.53098814125421   11.27209379536015
C         7.11485990382787   11.60954891652347   10.24827064212196
H         6.13295943155120   11.22458985076521    9.97864879097514
H         7.34585684915044   12.44877321786378    9.59112767308374
H         7.10362255285997   11.95429042090669   11.28242693362872
C         7.98571508682970    9.39851089548913    9.45882622065226
C         5.65056087941362    7.14029019700612    9.75782572729968
C         4.99391954193058    8.37065304570026   10.05848694472312
H         4.96624041092338    8.72524964047338   11.08203108996199
C         4.29469844769704    9.06921773762230    9.07405427032259
H         3.74511669581353    9.96869521958062    9.33242560405567
C         4.17986393336445    8.55826550308993    7.74759291297303
C         4.82739582294237    7.35778305804801    7.44378714537802
H         4.69655392994528    6.90428374988161    6.46648418396166
C         5.57943505129403    6.66540883023810    8.43498309313954
H         6.00368252528410    5.69479812983217    8.19687671270295
C         3.33452857163713    9.28742734293753    6.75084163064671
H         3.29348929488419    8.75978503726701    5.80038977360929
H         3.73243054584741   10.29017765637759    6.58325707816429
H         2.31994428404059    9.39642381442041    7.13340509571567
C         6.23649651792118    6.26082599609572   10.83762429559944
H         7.07004791696173    5.69648562493341   10.40201497486898
C         6.75327609076299    7.03715887268785   12.04828759820399
H         7.37391633408643    7.87639297007584   11.74054969895996
H         7.34803232775349    6.37861819874559   12.67531719777516
H         5.93058679159345    7.41260969327889   12.65200602723096
C         5.15592242480953    5.26272992321803   11.27616341334655
H         5.55133216761218    4.60420710567053   12.04458999405429
H         4.82383238691120    4.65451235707437   10.43808837809034
H         4.29457399838785    5.78847710565921   11.68282300607386
Cl        6.45200283153100   10.91577430187174    7.37445882196067
N         7.79379767181290    8.54579827982489    5.58704653012459
N         8.88678405145383    7.46881653172703    7.09092372394492
N         9.14701117509344    8.73287960118757    9.71247120530625
N         8.10351349958513   10.57200919314960   10.10677102417673
Ru        6.42898044088963    8.75104640219828    8.31743951824679

