60
CSD_code = ANAWIW | q = 0 | S = 0 | Stoichiometry = C24H22BCl3N6O3Zr | MND = 6
Zr        5.92364449666344   10.81959780976882   12.25979587801461
B         4.04826470029786    9.80205347830663    9.13782626643638
H         3.46149760691303    9.48408964629495    8.16142575924417
O         5.53876867088405    8.93490606825846   11.61258682973421
O         6.39828438850603   11.26435648416291   10.33785147008895
O         4.00491694772700   11.26341573963516   11.77514783384148
N         5.32487553482134    8.94327415304555    9.28985250106982
N         7.08363013511173    7.94678206442007   10.21509307744866
N         4.45425052839915   11.29148257953053    9.04837555664353
N         5.52939997590826   13.19879192013359    9.43398322193332
N         3.15242433487398    9.59863509570744   10.38143321328472
N         2.35322273007728    9.80186873524559   12.44597747544633
C         5.94510003637364    8.64392437044603   10.45130256352975
C         7.23577987571021    7.82719703330805    8.84859010954427
C         8.22426403844945    7.23853605835855    8.08019547475194
H         9.07815989062643    6.76208220769750    8.53363747893261
C         8.07384694346206    7.29856909600923    6.70570267651984
H         8.82534895979499    6.85380334153884    6.07205460455971
C         6.97682806981590    7.92637274292290    6.12335949144783
H         6.89918584615869    7.95667324979970    5.04743756916349
C         5.98612025928202    8.51794642794886    6.88844765739618
H         5.14305681101716    9.01072086844032    6.43411239240977
C         6.12228824832546    8.45967329073485    8.26523593045953
C         7.98162338278816    7.48522035037872   11.24304986410325
H         7.49800348457546    7.64113183976841   12.21086346812846
H         8.90837029495021    8.06212231899666   11.22501228584418
H         8.19381706796558    6.42532402130085   11.09671764786658
C         5.51331908780164   11.86246323333089    9.66139024500034
C         4.41661658760445   13.51792513213251    8.68254476690362
C         3.94694274901833   14.72646351975234    8.19990015250410
H         4.46865753154792   15.64924301576599    8.39492623884427
C         2.77383917198579   14.69911715328776    7.46603230936862
H         2.37389227815093   15.62164737192191    7.07478794200749
C         2.09575032317354   13.50752016987620    7.22742493476164
H         1.18119707021223   13.52938653533680    6.65496513928610
C         2.56108249343006   12.29621660642128    7.71012419317224
H         2.02895730162791   11.37709936296356    7.53095528696669
C         3.73725917454394   12.30947414832686    8.44086878009776
C         6.52493800069215   14.09915387557654    9.95795108880576
H         7.32737997466285   13.49959808202965   10.39536918630121
H         6.09597523961059   14.72454238741444   10.74327106776465
H         6.91820003192614   14.72078447629219    9.15254992956961
C         3.23849164167288   10.28577558337833   11.54052544950550
C         1.69697370118733    8.73189731779020   11.87226575520712
C         0.72486312234836    7.87790207029362   12.36198193466144
H         0.34508039865458    7.97697625720627   13.36581806933440
C         0.27023448605019    6.88592279433279   11.51068481413494
H        -0.48564940682399    6.19829451176400   11.85693677144880
C         0.77229513057586    6.75263867992795   10.21969576033911
H         0.39535714376246    5.96237486152874    9.58886419181630
C         1.74629068731642    7.60387164679841    9.72617524099038
H         2.13863447225669    7.49225486406009    8.72939240317144
C         2.20515256611934    8.60452781997256   10.56616728571619
C         2.20355672010401   10.30974762119154   13.78611202103635
H         2.77879685081792   11.23588709674103   13.86407927078275
H         2.60181787458937    9.59578082559598   14.50968069821223
H         1.14987691280006   10.50512813088406   13.98909649879869
Cl        8.21648003424852   10.46185970448307   12.53083502987831
Cl        6.03389192399712   13.03645187606399   12.99400333937249
Cl        5.38707546485485    9.98512227539407   14.37605590639479

