70
CSD_code = ANAXIX | q = 0 | S = 0 | Stoichiometry = C23H40NiO4P2 | MND = 4
Ni       -2.20688225257176    7.60420718882140    3.44514627254930
P        -3.33501188513900    5.74551346347055    3.26575289073110
P        -1.41172840794633    9.61567215574487    3.19726805213153
O        -4.31516417523187    5.97270113739890    1.97018596364115
O        -2.06546097973435   10.15242594783345    1.79162904535177
O        -0.62711678167851    6.84988132685937    4.64428329393688
O        -2.30952861996346    7.68817271783821    5.77919966469669
C        -3.20874382282080    8.07449060723399    1.92056013776961
C        -4.12611650758473    7.19099464049678    1.35577013147387
C        -4.82996724154345    7.50665088095860    0.20332420185128
H        -5.53250839165784    6.79556688445865   -0.20215406685856
C        -4.60999384834132    8.72887896632183   -0.40844645702881
H        -5.15371910661863    8.98299185760363   -1.30500791399281
C        -3.69270588028877    9.62455741863379    0.11385449577450
H        -3.50590024604801   10.57563005244758   -0.35961933606355
C        -2.99995591771148    9.28697514869233    1.26675397899607
C        -2.31097794138342    4.29559052535441    2.63353871815958
C        -3.15613571410955    3.14539758362014    2.09838725801158
H        -2.53646630845919    2.49349066415485    1.48322794751768
H        -3.97296821956820    3.51936073270777    1.48526398519687
H        -3.56587653910510    2.54698877097620    2.90799264391012
C        -1.34272658444496    3.81783787069928    3.71044598079091
H        -0.62731554537797    3.11798101910341    3.27968827170612
H        -1.86081061504065    3.31266595210173    4.52116251935534
H        -0.79248595527188    4.66190190552568    4.12093684373771
C        -1.50861596112899    4.93103577744121    1.49258542782067
H        -2.15826591764220    5.20471249478706    0.66219678619688
H        -0.75168149709816    4.24024995956330    1.12435203107771
H        -1.00474866160259    5.83413640490000    1.85392686987972
C        -4.65735128989941    5.28214361792007    4.52157064121313
C        -4.03358552038711    4.70375929850197    5.78596381357728
H        -3.65636950921788    3.69734685278294    5.61992763335429
H        -4.78192609067182    4.65585523017802    6.57623501466296
H        -3.21858073691776    5.33633949397650    6.12912566355606
C        -5.71145748094380    4.33684331410839    3.95256781335385
H        -6.05649605415736    4.68099512842880    2.98107795711996
H        -6.56645335956412    4.30748843510274    4.62721558941061
H        -5.33149897938972    3.32478650168836    3.85102321135031
C        -5.30017155247230    6.63513260600294    4.84520840523073
H        -6.09361542926945    6.51482940536844    5.58131534206368
H        -5.72862722581897    7.08402969114948    3.94895880643668
H        -4.54969839526739    7.31080519729174    5.25573410037512
C         0.40815690671181    9.77843147432067    2.75042391221237
C         0.63053520565641    8.56187810893896    1.84523099963682
H         1.66719708417646    8.51104918245216    1.51515640968450
H        -0.00869171242167    8.61362017266318    0.96333060307455
H         0.40151233406204    7.64887500954483    2.39896122733769
C         0.73160049659152   11.05733573987334    1.98551644524372
H         0.01486435025674   11.21934659855894    1.18442911329546
H         1.72435601226013   10.97263432749177    1.54456363141767
H         0.72851701707725   11.92548488068435    2.63781898466034
C         1.28082106280337    9.64051077632669    3.99263425378728
H         2.31740938707525    9.47599602296041    3.70024449766546
H         0.95523731996679    8.78957339533096    4.58754268965958
H         1.24481882669855   10.53735799915556    4.60636648805544
C        -2.06760668656838   10.95699830844515    4.34795879826179
C        -3.57212747257714   10.66441849155234    4.37230101134882
H        -3.73882835448870    9.61907633865917    4.64711088297993
H        -4.02438804016057   10.84734627344614    3.39837366550796
H        -4.07056245174745   11.29531556562892    5.10645352708800
C        -1.81253563812723   12.36137544205402    3.81022065395123
H        -2.02852103702513   12.41595717609767    2.74585216434025
H        -0.78299750737000   12.66671502517010    3.97865494570189
H        -2.45905731617525   13.06973780260643    4.32724802406966
C        -1.51599497345898   10.80769618957408    5.76082161678491
H        -2.01285139293602   11.51698616173400    6.42207662222849
H        -0.44761764609363   11.00121009615605    5.80161373154240
H        -1.70820393806771    9.80501153487852    6.13305701926600
C        -1.20269677393148    7.13733843029932    5.71288703704320
H        -0.67633391309473    6.87890864714500    6.65962141414667

