104
CSD_code = ANAZUL | q = 0 | S = 0 | Stoichiometry = C34H67IrP2 | MND = 7
Ir        0.44548213293071    3.89718075705083    9.91175705142887
P         0.85403409841697    2.36178307004403   11.68640999009942
P        -0.13749376313512    5.43596473214193    8.19023036617243
C         2.46296566924246    1.94456935055501   12.56916691196560
H         2.25566766460195    2.09414027430449   13.63176659478698
H         2.62095594696138    0.87307552033872   12.41689356152543
C         3.78200096901495    2.66317727712704   12.25815770569702
C         3.66925434798798    4.15983043708560   12.54608858287814
H         3.40335498341893    4.31200853220853   13.59575378594518
H         2.87549585172445    4.58526254489763   11.93356999608204
C         4.99529877939641    4.85645216484692   12.25146795243534
H         4.89047287079319    5.93051886430688   12.44425920500931
C         6.07928511337978    4.27903059073562   13.16013761865844
H         5.81799189589125    4.45069671038037   14.20741075315687
H         7.03351721071572    4.77528041849573   12.96828137034522
C         6.21113132478897    2.78082255879511   12.89283552945795
H         6.97941541814594    2.35776640666684   13.55143001335210
C         4.87679365363956    2.08611724326215   13.17048446354967
H         4.60291705124074    2.22780239312087   14.21986054967057
H         4.98086838827332    1.01153933206159   12.99590259830879
C         6.61347203595363    2.56455410794357   11.43516563987993
H         6.73872185474734    1.49728936747847   11.23611207828152
H         7.56923955343783    3.05570256181451   11.23774978301992
C         5.52964766098675    3.14025076355082   10.52536581798190
H         5.80802127729202    2.97995886388335    9.47732293411910
C         5.37524200728721    4.63640733354232   10.78875672663677
H         4.59803797976595    5.04616693510285   10.14075722335022
H         6.31080145856489    5.15456251723813   10.56348254073889
C         4.20678750911422    2.43316021683168   10.80842389489085
H         4.32182456157442    1.36041709894837   10.62652409057301
H         3.43062128159352    2.80659248782161   10.14312533093195
C        -0.24031470264455    2.72067996708790   13.17493965852527
H        -1.22229073846677    2.91687406950865   12.72710341674665
C         0.21820502377154    3.99914085828605   13.87183295641097
H        -0.54503752383706    4.33989330283409   14.57026877414758
H         0.39407491276996    4.78839190536918   13.14504092669998
H         1.13728443779745    3.83626865091525   14.43100323972812
C        -0.38398406260691    1.59837687256312   14.20096583140125
H         0.57763977975436    1.30121155103956   14.61424405828245
H        -0.86656921268832    0.71837447776629   13.78591887490594
H        -1.00033894409043    1.95521478876937   15.02593959878224
C         0.34568701472008    0.59714040896807   11.29212410258934
H         0.56057050722031    0.01138303396302   12.19545547246515
C         1.18691947108138    0.05024859008131   10.14341019498661
H         0.96489266718209   -1.00455265717438    9.98434679269176
H         2.25177998384165    0.15143853424316   10.34276280587397
H         0.96394826609619    0.58984848336372    9.22664633598301
C        -1.13430830682848    0.46882302114210   10.95372360348795
H        -1.36745440057054    1.04918931515060   10.06496884971432
H        -1.77068767072394    0.81963187418044   11.76229025342469
H        -1.37785363439004   -0.57445564015137   10.75384073253963
C        -0.32408016548634    7.20620529550018    8.79000578430952
H        -0.61960345074704    7.79390451424741    7.91102607603127
C         1.01236844583210    7.73263847188861    9.30292392852535
H         0.92810803920206    8.78940178800410    9.55465808467540
H         1.79993467268419    7.61749062721510    8.56107896725361
H         1.31017125421613    7.18984437145324   10.19624373435657
C        -1.38665552522324    7.35663518320032    9.87150535584863
H        -1.11498543105203    6.77415000439319   10.74783887063684
H        -2.36432144585530    7.02204790342922    9.53375787101345
H        -1.46573939066162    8.40240807476091   10.16785401392173
C         0.75000559517404    5.83353365024500    6.57894883632478
H         0.00225588586309    5.69007608737468    5.79488265079510
H         0.97934686982464    6.90226183864253    6.61723275377210
C         2.01989326101114    5.09591708245429    6.13590591945528
C         1.74977909095017    3.60229780671421    5.95778621542725
H         1.40317780387601    3.18416494215675    6.90191575168062
H         0.95984797135927    3.45890769794430    5.21543588479069
C         3.01698086335459    2.88702396165145    5.49602508574551
H         2.81029213507157    1.81544944519308    5.39228639831683
C         4.12563564537030    3.09429750415776    6.52567249917008
H         3.81224807197499    2.69110547602300    7.49060220836082
H         5.02869679668230    2.56300821454984    6.21470841009093
C         4.41783759899254    4.58689706508818    6.66130402231300
H         5.21732632959621    4.73800932819983    7.39585243303253
C         4.85196077039332    5.15340370113300    5.31057334016112
H         5.07887429077052    6.21795159224316    5.40870466569462
H         5.75764239265573    4.64912121504724    4.96543809842948
C         3.72738417731913    4.94986882205014    4.29700394125850
H         4.02807240436448    5.36630511089075    3.32789998772853
C         2.46217905377486    5.66325308164682    4.77706184829748
H         1.66604305536088    5.53053233195761    4.03895814724680
H         2.65836683482369    6.73549347262696    4.86563510575240
C         3.45202841784245    3.45494010387960    4.14605386899322
H         2.66722609134715    3.29226434419560    3.40299933624985
H         4.35323617742326    2.94530785681092    3.79712098000216
C         3.15946797884426    5.31238108251945    7.13063707352715
H         3.36905311466913    6.38249967660541    7.21980899418782
H         2.85631552056438    4.94540903319939    8.10940653872464
C        -1.86631288707371    5.10368206054072    7.52489846661216
H        -2.45649463823825    4.91978782985776    8.43109876846225
C        -2.52106216418240    6.23428388679356    6.73375472708716
H        -1.92854570289459    6.51838019397106    5.86655758352681
H        -2.68914637262938    7.11935847360914    7.34035041432582
H        -3.49069844753483    5.89254500442705    6.37202807516996
C        -1.87510267205955    3.82254063055069    6.69483874666494
H        -2.89953176344375    3.49891653112415    6.51518735011475
H        -1.35084948170360    3.02581832785561    7.21683617560524
H        -1.39598569291248    3.97386532000628    5.72971219603744
H         0.25386353690349    5.01433157020490   10.94484451815853
H        -1.03712793306534    3.90937503515360   10.34400204645264
H        -0.28735555815122    2.78719937502784    9.14806814535500
H         1.46968493393745    3.14671888246357    9.05352696350479
H         1.78200398575436    4.62738627862791   10.08156500050851

