103
CSD_code = ANAZAR | q = 0 | S = 0 | Stoichiometry = C34H65IrOP2 | MND = 5
Ir        7.51311497881477    3.44869555691378   -1.92311289113028
P         5.89812562225428    3.61558159148962   -0.21322312436243
P         9.11985085048365    3.03390815069606   -3.55964163213264
O         7.76754986033581    1.58412283753831   -1.11223060015685
C         5.09869513470109    0.08566670240931   -6.43252399616954
H         4.36056180733743   -0.70963447876352   -6.56017290696152
H         4.77127863385798    0.94459379294964   -7.02312374131277
C         8.61827607529503    2.28222301846695   -5.19113093858215
H         8.21337186300092    3.11682002536144   -5.76832139185233
H         9.53990001369054    1.96259060703824   -5.68694053931960
C         7.59433854617125    1.14266908098441   -5.27526358569767
C         7.48656641877995    0.73282890644061   -6.75301374161743
H         7.18688260557772    1.59655509825815   -7.35213902146219
H         8.46186761826210    0.39706540824079   -7.11688954300712
C         6.46541484836928   -0.38995612425617   -6.92203307321587
H         6.40037503513300   -0.66289245567691   -7.98205997820748
C         5.19940433789786    0.47313786324022   -4.95744841457376
H         4.22142199200986    0.81649050449918   -4.60181162342648
C         6.21745340405171    1.60109269281388   -4.79607688267943
H         6.28139382577184    1.90477363489885   -3.74677698698002
H         5.89669173337312    2.47469168220692   -5.36873461351843
C         8.01322492729564   -0.07773398589470   -4.45639704561958
H         9.00846430363187   -0.41362570346421   -4.76252971234208
H         8.04781251594655    0.19917062837849   -3.40054494426301
C         6.91408173710759   -1.60298970362636   -6.10987827084097
H         7.88693770117332   -1.95099326678376   -6.46661828951546
H         6.20078308318736   -2.42116779520358   -6.23334849472519
C         5.63493314500077   -0.74710971496007   -4.14841761271448
H         4.90376067143713   -1.55102591506529   -4.26368125267463
H         5.68709537629551   -0.49466368791916   -3.08906560170485
C         7.00457677729996   -1.21196551156710   -4.63663880278114
H         7.32869566984048   -2.07904981086503   -4.04836335711026
C         9.96030438713794    4.55209320698260   -4.28505314169791
H        10.58762521988845    4.21135095927209   -5.11758951382948
C         8.93177084425929    5.54603531996168   -4.81613094736085
H         8.31068429666225    5.89871281799206   -3.99755567518304
H         8.28227839675009    5.11072462000693   -5.57029671337737
H         9.44174930059267    6.39715737001505   -5.26484810253346
C        10.82066115409457    5.26341066401436   -3.24498248624666
H        11.12336156078172    6.24048188935523   -3.61880041376564
H        11.72264267106795    4.70745506263979   -3.00742186861999
H        10.24368702539809    5.40896065357999   -2.33338418483261
C        10.57331658354598    1.92738604313104   -3.09097711801339
H        10.13597720602976    0.92139989514743   -3.09366328629825
C        11.75990189807985    1.91024538115524   -4.05041073777275
H        12.27426842397485    2.86699852649546   -4.06810718812727
H        11.46556112924165    1.65743772940730   -5.06651129271175
H        12.47242440880234    1.15574397378845   -3.71703206071074
C        11.04155162407106    2.21940075413139   -1.66745511273610
H        11.63825640808605    1.39078032359250   -1.28525016934181
H        10.18397519959154    2.36085372828966   -1.01407927780417
H        11.64580276153363    3.12038694351539   -1.61785296534151
C         6.39217300914654    4.10042736719396    1.51668243469176
H         6.48238660142306    5.18900761654842    1.50250075033897
H         5.54244010436892    3.84957328936748    2.15975663456965
C         7.67294236632602    3.54779005204578    2.15667304038768
C         8.91209150440509    4.09116608072455    1.44653599587219
H         8.89897280425004    5.18408039297086    1.45664303629676
H         8.88894679606799    3.77360824071749    0.40131705782247
C        10.18070425956338    3.58301129495664    2.12897676954328
H        11.05753502182608    3.97558284257225    1.60058605144043
C        10.21215519669883    2.05625958760498    2.10476321010641
H        11.12308810861889    1.69363942327793    2.58831528629831
H        10.21568186377743    1.69770448772727    1.07537498322258
C         8.98143817748660    1.51632373762361    2.82746446534814
H         8.99387307099766    0.41989299666468    2.80214319293182
C         7.72133570482572    2.02072776367247    2.12569687324417
H         7.72246425820869    1.68905413180398    1.08335476878749
H         6.83941172973230    1.60979807309866    2.62599654587538
C         7.70614666027027    4.01733933708095    3.61960842837119
H         7.67256777885482    5.10958658573489    3.65742105869174
H         6.82898383058664    3.63822694019868    4.15178434274740
C        10.20209278833259    4.06271192055701    3.57992432808452
H        10.19822076442269    5.15495717489759    3.61197700633725
H        11.11251849241165    3.71629130669107    4.07512664201585
C         8.99546774553715    1.99006098053057    4.27944976270307
H         8.12521690672775    1.59601283744469    4.81066247691359
H         9.89094539436710    1.61899224522664    4.78415013419875
C         8.97484326929693    3.51699486024908    4.30796613811317
H         8.98265469468078    3.86396481819668    5.34848990963362
C         4.87143844778822    2.08579011098993    0.15368178474045
H         5.52345232159829    1.49210583576299    0.80108950691345
C         4.64753188180172    1.26943095220733   -1.11345180528652
H         4.12324970561267    0.34195856895016   -0.88279426400529
H         5.61931107662122    1.02295166412345   -1.53123693855053
H         4.07431536344924    1.81432210821976   -1.85935589059859
C         3.56048770430103    2.32170491934122    0.89929567077532
H         2.82063122316323    2.80987809466549    0.27078750955674
H         3.69940537607017    2.92042956340290    1.79723258354519
H         3.15108452393014    1.35910557424290    1.20587809371879
C         4.60323166556098    4.95406367077841   -0.47036562719611
H         3.95451656430347    4.96729522268094    0.41283378033454
C         3.77018680720170    4.67196809886179   -1.71682889301529
H         3.09981913383540    5.50729809109730   -1.91596625789882
H         3.16450414304087    3.77670919586747   -1.61191462071750
H         4.43040956187736    4.54873333845799   -2.57332318650981
C         5.25575960194802    6.32451292364424   -0.62597544534146
H         5.96123583930459    6.30133561266180   -1.45272903262981
H         5.78677648917800    6.63407554909288    0.26983971496025
H         4.49355724955595    7.07356599750574   -0.83570245841051
H         6.71807938129980    4.30031504689640   -2.92205592654340
H         8.02471799364009    4.86872560349584   -1.65829926986791
H         8.45019742867229    0.96445238046011   -1.36432548556553

