113
CSD_code = ANEBEB | q = 0 | S = 0 | Stoichiometry = C40H64F5IrOP2 | MND = 5
C        -1.65229159811834    1.87969044177702    8.23276922704771
H        -2.35998981290730    2.61297916817100    8.63403862333431
H        -1.09371913359665    2.36746448030808    7.42916901230656
C        -2.46337746577603    0.71411141546563    7.65314113304153
C        -3.38392488521716    0.11223711077798    8.71232235155686
H        -2.77640912104476   -0.29464645151678    9.54206945872801
H        -4.03318458151620    0.88826980266671    9.12160357507011
C        -4.22541526335190   -1.00809428368304    8.10881860107920
H        -4.88236267315754   -1.43226268256039    8.87821227374353
C        -3.31396575180413   -2.10129714388829    7.55307602797485
H        -2.69696840942039   -2.52260972658390    8.35050602839220
H        -3.91601132941865   -2.90958427934798    7.13104242828735
C        -2.41294618777424   -1.50149217634228    6.47608250502984
H        -1.75098042456416   -2.27945633903486    6.07875074293363
C        -1.56522788601791   -0.38990772406849    7.09419523338518
H        -0.89153510587421    0.01980532849994    6.33806721834555
H        -0.96135111185015   -0.80740450327248    7.90376424950066
C        -5.08863120594077   -0.44007299361345    6.98264049036929
H        -5.70937193169186   -1.23102651181565    6.55525884084937
H        -5.75328929833694    0.33163491638392    7.37746857489298
C        -3.26898221247613   -0.93383253695285    5.34558842964102
H        -2.62781303883405   -0.51662202314681    4.56541314998753
H        -3.86718097679657   -1.72933458289989    4.89579906797493
C        -3.33573261188894    1.26880575816966    6.51572678750805
H        -3.98643870512313    2.05649387847357    6.90309944909353
H        -2.69918396816324    1.71011400795357    5.74380682296136
C        -4.18335690672449    0.15388721365109    5.90622179758574
H        -4.79777046057321    0.56836192992417    5.09925783630870
C         1.11254965676828    0.93678690788207    8.85099725164129
H         0.89645961768654   -0.11519247619126    8.63538343481867
C         1.57199315063052    1.59189618257969    7.55334591023849
H         1.85633882712861    2.62863278437423    7.69955073519910
H         0.80891217351137    1.54560847997335    6.78126295995968
H         2.44629329639388    1.05693593793528    7.18435480922871
C         2.22467257892177    0.95286281764204    9.89576478772650
H         3.04389164014942    0.31115791742964    9.57732596163279
H         1.84569765597820    0.58349957319828   10.84767285444126
H         2.61951502753265    1.95558917757178   10.03080123123054
C        -0.24806012936425    3.29359190828675   10.23662352851911
H        -1.28141196092838    3.60211626864541   10.44062748991616
C         0.33646401685642    4.28771187934040    9.23696944503192
H         0.18909517592705    5.29753148687819    9.61856769117744
H        -0.14308743237086    4.22724566076431    8.26338242476609
H         1.40618716915821    4.13668135745671    9.11834762612691
C         0.51976188656565    3.36107879584588   11.55437675391798
H         1.59129716871838    3.29080697196135   11.39307646132877
H         0.22288298976809    2.55433198563284   12.21974934084716
H         0.31836971593348    4.30951209335496   12.05015315553457
C        -2.15759216388670   -2.41987111092513   14.04606731938815
H        -2.94550655787723   -2.28134655599136   14.79106593308670
H        -2.13694582599585   -3.47967656278889   13.78430433748239
C        -0.80940850404969   -2.07719232180001   14.69152565896185
C         0.33532129428895   -2.39882311733911   13.73071951629149
H         0.21048010801642   -1.81778026288024   12.81594746489873
H         0.30619122542391   -3.45969805466732   13.47092536076840
C         1.67699853466393   -2.06972459717232   14.38013573358844
H         2.48380566610755   -2.29100866247188   13.67331589546552
C         1.85193496958538   -2.92000945675354   15.63751308286454
H         2.81188238473797   -2.69944500828478   16.10904180987470
H         1.84437762515312   -3.98046987269922   15.37451154154007
C         0.71568037484880   -2.61436506262258   16.61138010915975
H         0.82928080075806   -3.23047579909300   17.51118955170898
C        -0.62879015045967   -2.93346910631764   15.95447466216201
H        -0.66668675724687   -3.99524939468869   15.69635310791501
H        -1.43725502479268   -2.73308385562018   16.66246106484863
C        -0.75771347001834   -0.60796821377269   15.10346972167016
H        -1.55034104653700   -0.39957383688687   15.82523693692467
H        -0.92097515041250    0.02144814699895   14.22705901999705
C         1.71142959016276   -0.58798242923249   14.74603606161512
H         1.57443662630522    0.01344412277144   13.84539435956742
H         2.67816104447301   -0.33362360832669   15.18551727160284
C         0.76836582615493   -1.13671079684645   16.99499810926517
H        -0.02191529689595   -0.90864869894158   17.71387056657009
H         1.72595496147010   -0.91197172536179   17.46935911166324
C         0.59166039960761   -0.28506528076763   15.73827602105313
H         0.61709598072442    0.77574407266644   16.00619700395548
C        -3.22576586607045   -2.96396042291637   11.43572785543803
H        -3.60586938315069   -2.50935389236279   10.51430757069533
C        -2.01437796475411   -3.81726864387322   11.06435754921078
H        -1.67919062103658   -4.41293582627233   11.90963163942355
H        -1.18528248531274   -3.19276889800325   10.74023153078267
H        -2.27346501778932   -4.50139721373129   10.25749526942263
C        -4.32660177883586   -3.85225370473920   12.01242600014078
H        -4.46601154525075   -4.71297008609879   11.35900415293406
H        -5.27927521311257   -3.33369157330745   12.07757379673492
H        -4.06603526952983   -4.22519841017039   13.00032731723669
C        -4.37308829083208   -0.90051613999789   13.10982438587816
H        -4.87313968275629   -1.75975130612304   13.57482951165559
C        -5.22585995964725   -0.38225162866670   11.95723254545455
H        -6.19244954065649   -0.04421433291679   12.32974296162347
H        -5.40550447161771   -1.15031268615534   11.20732633915861
H        -4.73826391297148    0.46273134586116   11.47989425129005
C        -4.19907672288313    0.18581698198822   14.16462130367130
H        -3.61277612625591    1.00591521892421   13.76859587865061
H        -3.69575796492158   -0.19094844721669   15.05102515889886
H        -5.17143829449408    0.57437565239643   14.46501211378033
C        -3.09704857455406    2.80347888500620   11.90253862804330
C        -3.98789115719801    3.71961982869669   11.28010064557774
C        -4.28090592578049    4.96635449752515   11.79118010515505
C        -3.69004678310402    5.38999547372831   12.97667182685375
C        -2.80713115407584    4.53531806659806   13.62805194367743
C        -2.52581421193952    3.28785245300491   13.10915124806364
O        -2.86825102235000    1.66398191578355   11.39603190466145
F        -3.96499732625448    6.60764138512546   13.48243122767053
F        -1.65971565233947    2.48374182542394   13.77241663117404
F        -4.55846349173439    3.33252327420165   10.10859397000947
F        -2.22297857709578    4.93030137332018   14.77181938276366
F        -5.13074558135963    5.77787824734468   11.13913026594483
P        -0.48839723302974    1.53565209370543    9.63020204745667
P        -2.70690816329706   -1.50577346272440   12.50923278751205
Ir       -1.45622827329227    0.05155308738021   11.15014495109282
H        -0.39123109118004    0.32699351281727   12.18487089706488
H        -0.57615330064523   -1.08975859790890   10.64385428090782

