52
CSD_code = ANEGOR | q = 0 | S = 0 | Stoichiometry = C16H28CuIN6 | MND = 3
I         7.20165040331627    3.46361376366983   16.48409316537623
Cu        6.78528939175139    4.16464356499735   14.15389614812201
N         7.22721277801237    5.74898737351607   13.01727741471424
N         7.16871531142257    8.00279565187482   13.74507541243678
N         8.98163636108795    6.63393737297381   14.22596481955939
N         5.40823576840997    3.78935163560424   12.75362689655060
N         3.08078264307834    3.59749422248441   13.15222790106243
N         4.52038634291281    1.82652457997567   13.57913127388134
C         7.75941004918608    6.76858144432249   13.62919098929194
C         7.93121695946809    9.22659717118133   13.69602958179597
H         8.99156147729733    8.99983088120939   13.62861510023625
H         7.74851962844044    9.83920952849143   14.58382187980109
H         7.63806437225495    9.80822678328360   12.81469355959924
C         5.74401526025955    8.16475253857849   13.62193804687204
H         5.43782178889838    8.45826674801654   12.61045417061058
H         5.41822323869077    8.93469897180153   14.32544174940641
H         5.24671425896570    7.23098738315070   13.87730102174653
C         9.77791812673869    5.47434245357059   13.89420216360615
H         9.49890959523451    4.59986255338030   14.49069630803282
H        10.82484239834227    5.71016054176714   14.08658561785689
H         9.64633069050673    5.23417096769841   12.84142547785966
C         9.20421382960826    7.12087886859875   15.57335932796220
H         8.42603465733331    7.82196887695838   15.85865806283871
H        10.17678510022392    7.61322552670342   15.63608785908606
H         9.18950873922919    6.28532171941774   16.27940343089368
C         4.36457374383276    3.11037784449299   13.13690862404879
C         2.81776085815915    5.01162269662210   13.19858936715335
H         3.66461669341542    5.52613982258225   13.64860891077658
H         1.93701945676110    5.18256687331207   13.82226530983008
H         2.63596192217830    5.44053116570045   12.20563106955295
C         1.94275870302249    2.77235454067692   12.82716492986338
H         1.46026475730754    3.15144176481412   11.91916241466586
H         1.20487626704792    2.78452949459567   13.63480614561869
H         2.26504855107707    1.74986904338419   12.65119390703542
C         5.77582508331433    1.16180149759976   13.31308353987346
H         6.14131679221663    1.45804654640395   12.33229496470183
H         5.60448101281853    0.08518068711613   13.32870191787841
H         6.53748339955822    1.40768483466033   14.05989503181691
C         3.87989515891048    1.38330543099574   14.80197813276079
H         3.08546019669004    2.06679078079864   15.08527888076784
H         4.61080289960550    1.35006669402220   15.61532358993464
H         3.46550024641186    0.38250748628234   14.66452870542137
C         6.36578706473793    5.81998895873196   11.93568008759152
C         6.48936364405031    6.77360322564439   10.93018353689378
H         7.25320487873482    7.53451630986046   11.01862072538433
C         5.67329137905309    6.72938458951090    9.81398856369519
H         5.78092506101774    7.47769662076228    9.04236777925650
C         4.73611907489019    5.71972062071603    9.67816391725490
H         4.10859685137891    5.67591694269495    8.79996738612550
C         4.61207452468227    4.75117757840262   10.65813148763261
H         3.91246269170506    3.93539007722544   10.53450854332244
C         5.41002991675443    4.79035674917017   11.79717515194212

