69
CSD_code = ANEPAM | q = 0 | S = 0 | Stoichiometry = C18H40N10Ni | MND = 6
Ni        3.26878635726827    0.00006561544856    8.53317571592856
N         3.82808541161283   -2.24797340631039    8.12949899985595
H         3.15770086916476   -2.94901728774591    8.44208707197798
C         5.04296419837201   -2.39355090022109    8.92988754404660
H         5.86358723976027   -1.91480139424273    8.38329806507999
C         5.39836617353233   -3.85127710831790    9.24859105201310
H         4.58016427166399   -4.31925456759207    9.79346398667635
H         6.29060936955261   -3.89539417852109    9.86907548214061
H         5.58546159586632   -4.42926484560226    8.35053564823116
C         4.85158426800909   -1.66908056447232   10.28678846108675
H         3.98336738768209   -2.10605189030024   10.78321732752370
H         5.74120867108848   -1.86867562083048   10.89923857328537
N         4.63199636943434   -0.23172632212399   10.12196351044816
H         5.46780957371783    0.13625895965650    9.66264370663152
C         4.46273422059532    0.57482662365664   11.34995499830054
C         5.81342808220365    0.67580541237420   12.08335168794072
H         6.18667350620640   -0.30887976266465   12.35419877299179
H         5.70337257219560    1.25070470712119   12.99900021666723
H         6.55630491799506    1.16922945053234   11.45864255853445
C         3.43164164329677   -0.04522598364373   12.29250304261673
H         2.55054566894308   -0.35561801875272   11.73982366814966
H         3.13475290676837    0.68402920770495   13.04148092200554
H         3.84555121877566   -0.90959256848979   12.80588463115081
C         4.06069100594632    2.02062909679564   10.96495259960505
H         4.79095042901996    2.39692687597343   10.24376658749586
H         4.17649219090938    2.61877727988684   11.86979259712919
C         2.64376118993036    2.28113762193583   10.40203224949848
H         1.96527151051113    1.48219428556412   10.70889967653287
C         2.11439204053418    3.60417812849586   10.97292641582069
H         2.70707588894834    4.44440958418722   10.61510338483368
H         2.16378110168198    3.58556209620679   12.05906258569993
H         1.07424189350479    3.75756459594925   10.69835116197916
N         5.19751163067468    1.66073416382803    7.48718073367452
N         4.68432945979232    0.61219239993212    7.50610545427091
N         5.77754048592755    2.63871617721884    7.38609708301490
N         2.70940449073487    2.24805919559536    8.93692139440446
H         3.37975006461279    2.94915129205433    8.62436207814561
C         1.49452820924664    2.39355982829393    8.13651352263917
H         0.67393465533598    1.91474433789652    8.68308305916649
C         1.13899221042747    3.85126990831959    7.81785440624180
H         1.95711868545367    4.31932516592490    7.27293611966956
H         0.24670906810482    3.89531701752987    7.19742268926358
H         0.95189636210273    4.42922724110510    8.71593006774692
C         1.68591988417936    1.66911158529646    6.77959893064092
H         2.55410749066486    2.10613480512103    6.28316246495261
H         0.79628742264647    1.86867148607146    6.16715094460251
N         1.90558727324575    0.23176551355490    6.94439994677389
H         1.06984603713904   -0.13625770089241    7.40382979069262
C         2.07481833102652   -0.57480404460166    5.71642717036375
C         0.72413431745049   -0.67574778442996    4.98301034149021
H         0.35088701997754    0.30893605965414    4.71216660219316
H         0.83422742937280   -1.25062067269626    4.06734954059711
H        -0.01876413324827   -1.16919729131517    5.60767443922993
C         3.10597248535120    0.04522425091994    4.77392976654179
H         3.98698482606778    0.35570289206180    5.32670348970272
H         3.40297266025196   -0.68408392384258    4.02505109782721
H         2.69207917232048    0.90952434503969    4.26041959826619
C         2.47677288620810   -2.02061159816113    6.10149927750975
H         1.74652580200813   -2.39680735854799    6.82275478599019
H         2.36090205112279   -2.61882880827357    5.19671202382308
C         3.89370893988140   -2.28111659801314    6.66438524395123
H         4.57220766295191   -1.48219796835862    6.35747221760719
C         4.42300887032729   -3.60419730568891    6.09354199430596
H         3.83029128185052   -4.44439125283314    6.45140293623120
H         4.37363462540106   -3.58563254425367    5.00740338741560
H         5.46314780176875   -3.75761006076306    6.36813716947584
N         1.34086708434508   -1.66097180573595    9.58055289390756
N         1.85309288174954   -0.61198668597282    9.56023611209873
N         0.76141082883457   -2.63921938269571    9.68232832369344

