120
CSD_code = ANIHUB | q = 1 | S = 0 | Stoichiometry = C56H59FNP2Pt(1+) | MND = 4
Pt        9.86568811231997    4.37506498660690    2.30006531634010
P        11.21717930744505    4.94304961831231    0.52775667245318
P         8.50939516116342    3.61322010142798    4.02716621907629
C         7.48073832798346    4.83147043157524    4.91360876898374
C         6.14498427063902    5.03426250782501    4.58151477993729
H         5.67770367578868    4.41636860164844    3.82713589108050
C         5.41198726476337    6.01590537336108    5.22469679626712
H         4.37294707932060    6.16092960249854    4.97038397646579
C         6.00639856335600    6.80755920507790    6.19329117334239
H         5.43203168713541    7.57145034450280    6.69422267271113
C         7.33820611482696    6.61287217554942    6.52522742629512
H         7.80247319833835    7.22407096725095    7.28459966528413
C         8.07364391748697    5.63212975032732    5.88837112504271
H         9.11242646884375    5.47633234838771    6.15016836084769
C         7.27371419703786    2.40142796849483    3.47259523770177
C         6.75631760734055    1.38254764623446    4.26065292447278
H         7.10299691952732    1.24407162695316    5.27387443821005
C         5.80565511208523    0.52621875698719    3.73216212893940
H         5.40603741773037   -0.26963580887101    4.34212520445156
C         5.36978255833021    0.68341908301410    2.42682964501523
H         4.62953010142623    0.01055953508852    2.02221833618021
C         5.89029176866558    1.69590206792537    1.63582136397253
H         5.55775825663747    1.81138482587669    0.61534129661331
C         6.84254176324319    2.54990000983014    2.15646660873179
H         7.28240792164403    3.33250450051919    1.54204169974392
C         9.47974555966702    2.91758572670973    5.39381371899419
C         8.92622649208830    2.59173473577329    6.62843951171086
H         7.87258174001066    2.75224704596320    6.81141418943665
C         9.73637535977081    2.08710444345060    7.62971001990945
H         9.30696535481273    1.82695522780270    8.58530513277417
C        11.09576038458821    1.92239797234210    7.41308315546747
H        11.72088337801498    1.52864271828475    8.19958105320811
C        11.65540041322433    2.27444951584924    6.19499129063160
H        12.71688580084433    2.15996184469887    6.03424417351789
C        10.84921598242527    2.77260977315518    5.18892803538122
H        11.26580392098327    3.05582669624094    4.22395849992990
C        13.02242035491842    4.70282895577767    1.00371715788345
C        13.20771039889574    5.42927555750441    2.34040167206513
H        13.03227793005644    6.50050432225286    2.22064281562749
H        12.47020907496582    5.03193407413804    3.05342060707642
C        14.04579593162222    5.20466013600409   -0.01194225143277
H        13.92385906966599    4.67862801684345   -0.96199831284393
H        13.92236933806798    6.27420079439254   -0.18886715094344
C        13.25105048176152    3.20553079463157    1.24197781518745
H        12.51695616287412    2.82999128835604    1.96148552220648
H        13.12622092141448    2.64593357437240    0.31384438233482
C        15.45876251307312    4.96486030758329    0.53149550328672
H        16.18499826532294    5.33598030940836   -0.19901038664346
C        14.62202979781660    5.20050647271377    2.87159570717722
H        14.74689013891417    5.74219667102222    3.81586362317358
C        14.66255596415028    2.96746167047665    1.77956859853429
H        14.80246628930487    1.89340694086517    1.93898799035097
C        14.84331455564158    3.70784478675272    3.10257930873719
H        15.84800594964501    3.53630051743872    3.49193452826824
H        14.12902262158239    3.33319741202525    3.83953392306835
C        15.68187105870472    3.47239165771958    0.76104834107839
H        16.69483535807957    3.30102464902860    1.12848000472020
H        15.57116318548183    2.92840691424542   -0.17935866552307
C        15.63439739934537    5.71808398431339    1.84987039761507
H        15.49182866893882    6.78978936292742    1.69147700809938
H        16.64761479362814    5.57073653725977    2.22663716621720
C        10.87811866869407    6.52416836585599   -0.43682515831847
C        11.38870719962593    7.74536459122506    0.33047158941085
H        10.98488627301610    7.74322496189077    1.34729169353513
H        12.47780122707471    7.72354881003679    0.39843792576071
C         9.34795947375261    6.60412924592640   -0.52683590970273
H         8.92203334725563    6.58779513739336    0.47875419240903
H         8.95124365457471    5.74641508870262   -1.07526521569153
C        11.02918397866650    7.81678648668962   -2.56739788091615
H        11.45124372157775    7.81467656287826   -3.57733354371209
C        10.96646658784423    9.02721714159494   -0.38926857341127
H        11.34545414631123    9.89074427799403    0.16814719537430
C         8.92480946247923    7.88764620558042   -1.23988683087667
H         7.83122036761112    7.92652104393661   -1.29189112924741
C        11.45117554232418    6.52593230646439   -1.85548971489985
H        11.07883116118342    5.66875518036582   -2.41971260182643
H        12.53877658730253    6.47045339082136   -1.83914162407368
C        11.55471818216690    9.02828947427159   -1.79911919428457
H        12.64535675528795    8.99648608259870   -1.74891258993573
H        11.27306289823741    9.94596044353363   -2.31764103297021
C         9.50615287710562    7.89132988635964   -2.65225817500416
H         9.11981280850943    7.04083721546425   -3.21816659166897
H         9.20800515856019    8.80146492280625   -3.17480303869441
C         9.44303032566707    9.09700786428924   -0.46461568407832
H         9.01850185873387    9.10785755259678    0.54363751038996
H         9.13807953912599   10.01748381238560   -0.96458116569136
C        10.83004485537493    3.61302925025729   -0.67555650925421
H         9.96399159670615    3.92900121603567   -1.26351905610334
H        11.65539397213793    3.42952330491521   -1.36955570289254
C        10.48747770149083    2.38433644592484    0.12645754206656
C        10.08787605954203    2.51796373010872    1.46434267533882
C         9.88505693411634    1.35226201111190    2.19704302942568
H         9.61515696201536    1.39444882575449    3.24462679620076
C        10.04224194486892    0.09891618283223    1.62945640773055
H         9.87807976472344   -0.78339485898131    2.22904886141558
C        10.41203137844420   -0.01910040757251    0.30593678065888
H        10.52985657736611   -0.99025307234611   -0.14977328073958
C        10.63862667794157    1.12270245989099   -0.45291333886632
C        11.07071006580000    0.97132787738464   -1.85828652938332
C        10.30030706943164    1.46837600865545   -2.90556262995401
H         9.36584743618769    1.96482613715620   -2.69036558275863
C        10.70190386893842    1.30493334391927   -4.21781163150775
H        10.10958246557338    1.67626943837358   -5.03894936057733
C        11.88933192357237    0.64153100287222   -4.47285079138291
C        12.67295273417924    0.13079444948660   -3.45353665387584
H        13.58829724750534   -0.38800213647408   -3.68951565565007
C        12.25268919633575    0.29500425940260   -2.14673212137050
H        12.84894395164410   -0.09854273422411   -1.33672164649773
F        12.29147344563446    0.49000183394848   -5.74780273908623
N         9.49566371957243    6.36589207321666    3.12863753302864
C        10.29516889885106    7.09485818828508    3.90003185596584
H        11.27285890790682    6.68380932753350    4.11150799368424
C         9.92036285827107    8.32303650964943    4.41753672942025
H        10.60631734010077    8.87699237180803    5.03773182149918
C         8.66128924734045    8.81941412753019    4.12065101535579
H         8.34029126500760    9.77660775209932    4.50038636496995
C         7.82101009419164    8.05272205680097    3.32816639821028
H         6.82847791946489    8.38918396194481    3.07651547241975
C         8.27582370946354    6.83237549820246    2.86490097419054
H         7.63162302438120    6.20017987811168    2.26278871176069

