113
CSD_code = ANISUM | q = 0 | S = 0 | Stoichiometry = C50H40F6O10S6Zn | MND = 6
Zn       10.87044624209131   11.41590002155089   14.67876369287529
S        13.34477907698142   12.91989147951968   13.08702834071636
S         8.25213706033588   10.97419949969808   15.84428740813912
S        10.30398083786428   14.16808801498526   15.60500175308644
S        11.71530201513774    8.50338607441540   14.29697947742174
S         8.53466492735365   10.97162962201291   12.99973458583535
C         7.57506131634791   14.72132909561479   15.53188818303114
H         7.51983839670601   13.89330240818144   14.84052001096532
C        13.04195872470159   10.44071847457579   11.84045883523118
H        11.98462081193770   10.64969188852056   11.83057978807485
O        14.09214522404620   11.81213098095453   15.21853614551295
O         9.60467975377640   10.35170326491323   15.72650806438560
O        12.03022807633570    9.95134128622962   14.43575419387411
O        12.03351987702971   12.64855144632231   13.74288208447291
O         9.71282377590136   12.90142614207748   15.05710875917192
O         9.99139064284041   11.03240647232845   13.00789053837181
O        11.86665239984965   11.84854403755627   16.30194996085143
C        12.85736428860043   13.54602628186940   11.45114475693443
O        13.04644314623628   13.94544171100645   15.81817418561246
C        13.38347361826576    7.75361137771639   14.32001696499967
C        13.92603363796543   11.35700182248346   12.38049699764961
C        10.59606241998042   15.16431416502659   14.12804787504419
C        11.36353463706685    7.90351707268266   15.97272397953624
C         7.88167573234805    8.71603011849955   17.41922872900795
H         8.92999480221577    8.82635010492724   17.64533001458629
C         7.14122090724755   12.59998233540877   17.75960803642389
H         6.25071142819065   12.50415890599522   17.15703010885215
C         9.43319871860988   11.99749964480440   18.16385867463545
H        10.31084095665981   11.45173939787982   17.86082490979291
C         7.13413606000167    7.67827915159184   17.94796974002523
H         7.60128045978297    6.96254790220116   18.60774735387664
C         8.28182693235551   11.89463914752494   17.40719442668640
C         5.79053875832673    7.56062844959380   17.62955902301928
H         5.20794692764139    6.74979863765795   18.04164870889040
C         7.27995511150515    9.62870437780880   16.57308764362875
C        10.65360123144226    6.72648923138099   16.14213892654109
H        10.29431113343388    6.18528844615907   15.28075575341699
C         8.80287779982351   15.08839100817275   16.05463649584120
C        13.76850586446302   14.30284565268359   10.73176104391135
H        14.73893727961780   14.51036256049284   11.15644795319679
C        14.46359828679116    8.53303726177551   14.69323281324086
H        14.31253511618966    9.57107582753432   14.95047890876668
C         5.19395011453731    8.47684499342562   16.77808653219132
H         4.14909157232703    8.37726276933925   16.52448515009269
C         8.31589227095242   13.53779232067103   19.62716763292050
H         8.33182094873539   14.18798487694107   20.48915593314851
C         9.45069468091398   12.82697280445960   19.27391144172261
H        10.35600121521468   12.92196772156770   19.85381708778948
C        15.72949203654007    7.97119520138968   14.70447372738206
H        16.57495763842974    8.57441762233206   14.99717375125073
C        10.40857386606869    6.26107960437508   17.42343370896389
H         9.86052026348232    5.34174548802972   17.56565810734092
C        14.88655499676739    8.97392577884561   11.37278679826112
H        15.26012309542720    8.03728951218725   10.98631652666294
C        15.76580824027694    9.90171658342810   11.90693420742556
H        16.82413632521709    9.69001907835846   11.93399276333728
C        13.55157382935140    6.42893626858326   13.94936755667789
H        12.69618728977455    5.84052607919329   13.65537167396189
C        11.81510910179691    8.62927952529716   17.05948795398724
H        12.34626270895452    9.55386385032009   16.89837067368539
C        15.28521705311877   11.09642046668875   12.41667525817683
H        15.94959425772619   11.82019259830226   12.86113494097281
C         5.94049169877069    9.51447210851675   16.24489539935615
H         5.50245324085995   10.22473083499976   15.56153863008849
C        11.55461937062760    8.16583163567252   18.33824412216249
H        11.89973217645150    8.73108177781668   19.19073350788456
C         7.15708292918710   13.41680371979014   18.87601136023686
H         6.27104884175270   13.96823160378841   19.15323287341829
C        10.86045332500307    6.97943969158793   18.51941148764921
H        10.66543068612973    6.61776387752141   19.51835113228531
C        11.66622172151760   16.04147084026265   14.11074798345807
H        12.30789768914408   16.10560927554194   14.97437348000116
C        11.91375825956505   16.78135451031225   12.96570412166811
H        12.75114663876213   17.46219696706690   12.93534501075733
C        11.08864340588342   16.64689731251899   11.86073295369096
H        11.28148634460761   17.22630964651222   10.96997899063017
C         8.90726371869073   16.12450377584825   16.96809082896217
H         9.87575361552899   16.38182348390693   17.36891631292393
C         9.77936409930583   15.00229354528810   13.02317659577063
H         8.98182730021032   14.27502930125386   13.04678861972364
C        13.52765431121997    9.24169970918635   11.34408024113531
H        12.84021097404806    8.51873666200566   10.93093460043534
C        10.02666862547691   15.75740401254624   11.88866930053250
H         9.39052733413120   15.64608866681849   11.02391720852254
F         9.02999181159978    9.62832889321390   10.73554742069173
F         8.65104780505153   11.72212263081284   10.41071514116264
O         7.95615542011080    9.79666597986220   13.58758899785712
F         7.01552413513976   10.38787936069828   10.82513309037129
O         7.83729339417257   12.20168050256732   13.22250865389079
C        15.90795963742607    6.64683101569805   14.34064826982567
H        16.89683093973229    6.21296605934501   14.34898782836631
C        12.17418655287698   14.49337947335689    8.95021354361319
H        11.90904818604018   14.86006521010956    7.96959678199350
C        11.60317675256918   13.27435696538655   10.93649453197702
H        10.89931814607626   12.70867355903152   11.52606046575422
C         6.53760741946012   16.45987147544650   16.82481235964852
H         5.65031383465999   16.99742751644583   17.12509165449879
C        11.26556494218391   13.74266696149575    9.67738579455624
H        10.29163911007378   13.51684172145194    9.27152723045672
C         6.44146870760637   15.41794487577932   15.91685041917583
H         5.48065837937367   15.14353348563553   15.50804859755750
C         8.28360688825484   10.66199169772599   11.14422555822762
F        14.01177705916438   11.13342167050411   18.13135443706912
F        13.09070361139772   13.01078635061600   18.64207776431310
F        15.08805272512134   12.97397147959125   17.83379274355590
C        13.42358616622493   14.77910561787404    9.47869650589946
H        14.12831199701996   15.37053443754029    8.91338240816988
C         7.76934792017069   16.81277910383085   17.35281877496127
H         7.84193582983936   17.62130910185458   18.06454417145568
C        13.87896645074674   12.40941397486678   17.73807247803845
S        13.11681952139213   12.52459716028122   15.99823915899531
C        14.82035707316390    5.87551686027073   13.96147061597762
H        14.96161735585362    4.84452995447023   13.67362256894710

