104
CSD_code = ANOKEU | q = 1 | S = 0 | Stoichiometry = C48H49IrNP2S3(1+) | MND = 6
C         5.46181052570875    4.66926692452459   11.05360020722688
C         5.74205910961965    3.42045855629810   11.59039224358028
H         5.97465215179242    3.33878553870105   12.64464893099612
C         5.74882663618499    2.23029700237222   10.88528886456417
C         5.49647382885451    2.14807681814181    9.49191094103392
H         5.57309593336218    1.15334694431932    9.06328513879652
C         5.18386496620799    3.19094195480593    8.68687599001424
H         5.04060738143550    2.92732037438043    7.63832603959562
C         6.18262580399535    5.55018252208777   13.69050433459941
H         5.46521075509560    4.89750211562891   14.17753317042932
H         6.28392947202965    6.47153260180422   14.25472060106019
H         7.15149993306982    5.07383580422683   13.57948952627948
C         6.07934224867507    0.96301354621244   11.59620895784603
H         7.08831872392926    0.64873089353329   11.32638454600838
H         5.40324936872739    0.16636925137233   11.29285611367159
H         6.03445213008633    1.07915030924458   12.67536745329837
C         3.94350381352180    7.54818759323069    7.73808977745484
C         3.14734554744040    9.83147839531566    7.81297988396958
H         2.93918308274720    9.60271758696126    8.86210840848543
H         2.25545485910221   10.28504312731972    7.37519590273808
C         4.33383667101164   10.78506862738236    7.71735885316035
H         5.20976938967417   10.34108930497858    8.18459708559346
H         4.09932765714197   11.71512131186395    8.22652045622905
H         4.56967708392797   11.00537651285157    6.67865494558533
C         3.02610128472390    8.51456312612166    5.71511396651956
H         3.73103308259562    7.85761195740904    5.19797695862533
H         3.11394126803243    9.51757004338970    5.29297252494415
C         1.60585531250519    7.98689753265747    5.53667160073010
H         1.53045124541588    6.97271052190761    5.92132131662900
H         1.34895081793477    7.97880734598826    4.48157661892634
H         0.89318166707912    8.61456412603575    6.06668799059209
C         1.66811786062260    3.65038242963477    8.48553712739752
C         2.08598251139306    3.34958400939169    7.19641866757396
H         3.02025476123595    3.74390674692721    6.82802354055566
C         1.29508270014367    2.56352476841382    6.37486273028907
H         1.62626964852946    2.33562150176243    5.37298773892606
C         0.08421587854960    2.07561126863145    6.83413892597008
H        -0.53069206951342    1.46269538445048    6.19312085190157
C        -0.34231020531043    2.38057722750953    8.11830758239031
H        -1.28965545886172    2.00778017826135    8.47725360765175
C         0.44192671008603    3.16425913600770    8.94163410954499
H         0.10678888014706    3.40603121779088    9.94121755205371
C         1.58815771242333    6.17862295616075    9.76457064480460
C         0.58585992293751    6.43211204634478    8.83311758574778
H         0.38177401725636    5.71906649497454    8.04724362374174
C        -0.15416423658161    7.59932598916703    8.90821443506493
H        -0.93256454023243    7.78327407363719    8.18276639080812
C         0.10253499664418    8.52607551714996    9.90412447377461
H        -0.47591884353280    9.43577313623865    9.95990029657163
C         1.11468430553434    8.29047665215418   10.82111194031727
H         1.33284322963909    9.01944090391196   11.58738998582053
C         1.86523153382932    7.13211965326744   10.74505645736549
H         2.69209218914440    6.98542416714535   11.42605751733075
C         2.41242523739276    3.76085135314230   11.16754228026639
C         2.08052219016006    4.32695503051734   12.39166798687223
H         1.85757262348761    5.37909651673491   12.46965495150265
C         2.00094081813970    3.53516422630846   13.52552567912786
H         1.73500327950778    3.98498727713065   14.47066585477640
C         2.24893629172499    2.17607584717203   13.44993483086052
H         2.18346278340448    1.56333696801327   14.33601810138835
C         2.56516959827107    1.60276572702716   12.22823453589922
H         2.73833749395210    0.53941452249142   12.16008865133527
C         2.65109909349109    2.38843301418438   11.09601188822385
H         2.88783882138547    1.94287861096118   10.14028712630386
C         8.33893168121897    5.05863418661621    9.82771290573580
C         8.50596549630434    3.67584314048647    9.90072747101607
H         7.97136042786884    3.04608251676622    9.20335035506979
C         9.35387714158775    3.12161269366982   10.83842784690592
H         9.48633380979120    2.05090985119052   10.88023008478064
C        10.04336834533003    3.94000977889789   11.72044018391887
H        10.70370600352922    3.50846322473319   12.45712625531013
C         9.89468693082160    5.31330171685131   11.64113181909504
H        10.44466477458463    5.95644469655397   12.31196783556522
C         9.04951222397398    5.87516439765721   10.69728356543820
H         8.96868457941039    6.94922479198815   10.63493937195296
C         7.50712881746638    7.40198287904027    8.33319688133893
C         7.37967549311966    8.28595061447238    9.40521865415210
H         7.05136008187347    7.92269510812038   10.36940107106301
C         7.63436514498754    9.63272658740839    9.22676379341916
H         7.54332496709599   10.31008353554895   10.06292669549435
C         7.98713871402564   10.11477539765997    7.97534666077560
H         8.17988534008801   11.16785863130919    7.83745068476663
C         8.07070652944787    9.24715646586106    6.89952266791134
H         8.32268880586059    9.62254120818829    5.91914403025558
C         7.82974285609162    7.89517838209721    7.07291717152741
H         7.89041537872806    7.22497127060331    6.22737396425700
C         7.86856291388334    4.88355311865512    7.08353551114893
C         9.25807436669253    4.86830591845224    6.96317906326885
H         9.87145345104125    5.27942178589015    7.75317759388844
C         9.84942662065973    4.33373676549067    5.83502489661922
H        10.92528131971621    4.32618612786877    5.74700677933023
C         9.06474793044233    3.81185900766870    4.81770301919079
H         9.53021411057081    3.39373436652737    3.93835016681414
C         7.68522940006013    3.83546375236871    4.92843315228444
H         7.07125649370340    3.43946956670682    4.13365889936717
C         7.08679250083110    4.37149282952292    6.05614988602514
H         6.01079754836753    4.41047343971649    6.12959137029021
N         3.40104379707676    8.58853235397493    7.11351219409649
P         2.63807290133287    4.69952712774970    9.61676347521371
P         7.14236001781156    5.63848430025476    8.57434391773643
S         4.43882117798621    7.62527542385264    9.35629763674193
S         4.17199877863913    6.06300717006117    6.93905343496596
S         5.55715709891155    6.06077037370707   12.05223764255939
Ir        4.91363454210115    5.12833267231171    9.15077436935448

