82
CSD_code = ANOXOR | q = 1 | S = 0 | Stoichiometry = C31H45IrN5(1+) | MND = 6
Ir        5.89138077590052    8.18761974990388    9.61217819325095
N        10.35875651298769    7.49515966178620   10.87733326602617
N         6.53048209317951    6.03765332188522   11.64621675063032
N         4.41681206948327    6.02691727092727   11.25184263869492
N         6.80143198448395    9.18556386444658   12.30602079224022
N         4.72173963820722    9.67770285904477   12.07126031935912
C         6.79368657378775    6.99225636749736    8.05763117829004
C         5.47462721467225    7.21860592990439    7.69874336802424
C         5.04558018077579    8.18769733760581    6.62014382065731
C         4.71682673203041    9.58351771658462    7.17937342076927
C         5.52244274627724    9.94452301728801    8.40328499540725
C         6.89396772926567    9.78882222464066    8.52908388276056
C         7.78921970091756    9.25875746933166    7.43391055945975
C         7.99106671735039    7.73428496415784    7.51962936566368
C         8.20541554709412    7.08850588229004   13.90567377042898
C         8.55646311617084    7.35305210351502   12.44554825864950
C        10.05343973750539    7.28485263439636   12.15619160500402
C        11.02664623211023    7.03271359609633   13.11142005905539
C        12.35625240058838    6.99981043894821   12.71313802367360
C        12.66912506510713    7.21908724713850   11.38333722759089
C        11.62381323383461    7.46351254623419   10.50493198911946
C         7.94485854410562    6.26927289880773   11.52362777371246
C         5.58049246875457    6.58005542072502   10.84831781780191
C         5.96426960541551    5.14926997027375   12.52330016470746
C         4.63519771379708    5.14304376995482   12.27549150414499
C         8.15502086723866    8.78911952130449   12.02423039752684
C         5.78328044075974    9.16344900383046   11.41413206375400
C         6.38139008860464    9.72346466389502   13.49457744345634
C         5.07322751564190   10.03142784269651   13.34726495879173
C         3.13492209693436    6.24438528849619   10.62969348368541
C         2.68833767565291    5.02805170075121    9.81525076491915
C         1.39576708653998    5.31351910992847    9.05430937177607
C         0.94802433997215    4.10526413896898    8.24186325637008
C         3.41896629788357    9.90980243053893   11.49908534209377
C         3.14329262724757   11.40580882176582   11.31669218830250
C         1.93309802389266   11.66544392080779   10.42028083484326
C         0.62746371997913   11.14751680894252   11.01160919264898
H         7.04178576664127    6.00405555344463    8.44190966337720
H         4.77545222885833    6.40244107711440    7.86468203666390
H         5.83039314423093    8.25408396596298    5.86708862201319
H         4.15829770585035    7.79387598477164    6.12217281076535
H         4.87613625847827   10.34208770298089    6.40704438542012
H         3.65812229016241    9.62023392337468    7.44627308949167
H         5.05412112099377   10.72123426099032    9.00456779177637
H         7.39793639038619   10.42863922587404    9.24998602821625
H         8.76524474774630    9.74002048097958    7.51039561566635
H         7.37142390012564    9.53413826115123    6.46566017376417
H         8.83965517548626    7.52722487777487    8.17639240788693
H         8.24662065108324    7.33839923649217    6.53194585505173
H         7.12807318564821    7.14190433597540   14.05055352347638
H         8.67291284053012    7.82416335391502   14.55539030517694
H         8.54037967872235    6.09945133336632   14.20858305837314
H        10.77373973106321    6.86351152730085   14.14462437684885
H        13.13271088337746    6.80455563779586   13.43726499390896
H        13.68925396018059    7.20127580658746   11.03653428110808
H        11.80326949210507    7.64276502072762    9.45320424202494
H         8.45833785160542    5.32702230097808   11.73675818944589
H         8.16232373086079    6.55838064891005   10.49423497626131
H         6.53849246185078    4.58993950736405   13.23173137658355
H         3.84445043864061    4.59144640330654   12.73915204599526
H         8.82323210441428    9.48424095625293   12.54118363570215
H         8.32563747808779    8.87589928044802   10.94916509042813
H         7.03319243866669    9.85830664052373   14.33196930503420
H         4.37954819280637   10.46486389409400   14.03664481420880
H         2.39303422314639    6.46789342265047   11.40178314542598
H         3.23716300497799    7.10996509225579    9.96993825061698
H         2.53857023545406    4.17370554079224   10.47793523841470
H         3.47760226854028    4.76364282727061    9.10809550865411
H         0.61089348615448    5.58536725984594    9.76299103050724
H         1.55001813974415    6.16384514358394    8.38662117917698
H         0.02920245646284    4.32784740719612    7.70666673914048
H         0.76689815701734    3.25231106742659    8.89131111460028
H         1.70877542058298    3.82773453097318    7.51604695664395
H         2.66196045538598    9.46253751354563   12.14783323206621
H         3.39926779135306    9.41136652620198   10.52675507277228
H         2.98113863158311   11.87378962293058   12.28910833326744
H         4.02502464747390   11.87005879586340   10.86869035749508
H         1.84872564345677   12.74213021524105   10.26570161337515
H         2.10024425041502   11.20480965141844    9.44428331029088
H        -0.20976374813467   11.45590401589015   10.39164766809044
H         0.47428171405647   11.54951063461173   12.01025740156300
H         0.62093425957398   10.06180801853684   11.06800110993315

