53
CSD_code = ANTPZN | q = 0 | S = 0 | Stoichiometry = C22H22Cl2N4O2Zn | MND = 4
Cl        2.86210334975337    3.65469330788754    1.90002165643321
Cl        1.72968212497234    2.34501827862596    5.12580587855456
C        -0.18255705034639    0.93570362731898    3.80113658567706
C        -1.59369168551250    4.10999720698271    3.10055240403238
C        -2.03525015523164    3.73917129523816    1.87202462982728
C        -3.45783615513803    3.93634521071691    1.80996394397993
C        -2.61763648068171    5.45888827480144    4.90953983918253
C        -3.53429038801140    6.50931706781368    4.99123320377570
C        -3.49255223970848    7.38416649182957    6.05866693400328
C        -2.54052581944186    7.23581486952510    7.05385648512874
C        -1.62150898179577    6.20218479960799    6.96795792002599
C        -1.66020984908779    5.31090822581604    5.91415020396602
C        -2.11024956813667   -1.09420869234198    6.07703160397927
C         0.45367661944550    1.21581786132835    5.04283882961921
C         0.11121806934558    0.42974917275077    7.47822250689826
C        -4.99855099617913    3.96459923792006    3.70456159725766
C        -4.30560506694483    3.61931176892921    0.82153549087315
C        -0.17441426138939    0.48964304362154    6.02591482603232
C        -2.12887000332351   -0.46028945656650    3.17835609304220
C        -2.32541198552896   -1.82706822864613    3.01806539996191
C        -3.26480319543534   -2.27229090469446    2.10485169936224
C        -3.99217399701017   -1.36489774552776    1.35098606750821
C        -3.77774443946238   -0.00494133033605    1.50330308106228
C        -2.84824064775514    0.45333969443988    2.41950831197025
H        -2.50882145618543    7.92563251725341    7.88397243731668
H        -0.86924852291222    6.08540553505212    7.73505503195157
H        -0.93985722882581    4.51198260996413    5.84406395931886
H        -3.02328598002320   -1.12695225029045    5.48363401640889
H        -1.71912195102379   -2.11018528605973    6.18181422797364
H        -2.34546087957612   -0.70351588417531    7.06579313945520
H        -0.71709288955296    0.84252451749090    8.05292151683863
H         1.00243684428153    1.01439731868437    7.68371792429961
H         0.27467846359571   -0.59775188819112    7.79806079144840
H        -5.87942092285124    4.21431618606840    3.11734973442934
H        -1.73861971557879   -2.53251455995337    3.58679155437866
H        -4.94303154049933    2.87194949211025    3.81090203460571
H        -5.09607135838026    4.41340761468359    4.69190058483521
H        -3.92585526637891    3.21642484758165   -0.09848638685441
H        -5.36145291806732    3.80541791904002    0.88030672340054
H        -4.32920028221158    0.71205817222053    0.91505586419886
H        -3.42006108742231   -3.33259848525119    1.97545555584223
H        -4.71889869360542   -1.72114476149284    0.63713752403234
H        -2.66121228023296    1.51106566471675    2.52685667522392
H        -1.41884417398443    3.35054490259943    1.08130292551302
H        -4.25392200544108    6.64663645493746    4.19884621262579
H        -4.20193515795816    8.19804765050218    6.10587747197027
N        -1.16007043981313   -0.22965324549271    5.44171403978685
N        -1.16512385298701    0.03239374929917    4.09054822635880
N        -3.83608178939924    4.51690081408633    3.04249797513922
N        -2.67972373286740    4.53881056279959    3.86946341311873
O         0.07795140523203    1.35779171140033    2.65803680240117
O        -0.39549559477910    4.10223810223956    3.61507877311081
Zn        0.96258581006107    3.20629694114139    2.74754605872296

