55
CSD_code = APABID | q = 0 | S = 0 | Stoichiometry = C28H25OY | MND = 16
Y         1.74690398956028    6.86925066753301    7.23997305245818
O         2.21966604678419    4.98632767848051    8.44637117813921
C         2.48940980586918    3.95907054238762    9.09120650883889
C         3.81000169360310    3.32661959863905    8.99788605758795
C         4.88461443474966    4.07144767648672    8.49964011007203
H         4.72441799319189    5.10845918180703    8.24248175567646
C         6.12965000515832    3.49198602525957    8.36079901906280
H         6.95522391372533    4.07579218863465    7.98304139298694
C         6.31775866178142    2.16025483396184    8.69821240130782
H         7.29012936740380    1.70526360525869    8.58298420539448
C         5.25348635696349    1.40691566733437    9.17171006415790
H         5.39779039049746    0.36545222027320    9.41750308002426
C         4.00617379858944    1.98046919605193    9.32311815099666
H         3.17566181582370    1.38176880461217    9.66548122784696
C         1.46246784702416    3.33930303203585    9.95044389720539
C         0.15097915387839    3.25579317005346    9.48247146183596
H        -0.06850997422531    3.59707251124479    8.48123900096878
C        -0.83906222964756    2.71479798526894   10.28003314750746
H        -1.85019855590824    2.64486031084575    9.90858401855325
C        -0.53557619902954    2.27422889358450   11.55874598126560
H        -1.31150620781485    1.86143231507034   12.18563694192733
C         0.76247506445518    2.36862404530265   12.03635427776255
H         0.99540356497598    2.03499487016246   13.03641509228966
C         1.76204716218717    2.89146967988206   11.23738319133279
H         2.76911242172204    2.98529126297716   11.61611527257458
C        -0.69422119700506    8.01133972998639    9.14172575986697
H        -0.76137133313742    8.47270646827515   10.11303150905262
C        -0.66434359925543    6.63972546211722    8.89554117539471
H        -0.75342451418917    5.86312952677594    9.64144060149631
C        -0.58919613653861    6.43727423678430    7.49390269770216
H        -0.87492435267116    5.52422709728089    6.97664492525714
C        -0.58383859742582    7.74767382837722    6.88445143042177
H        -0.79601089933393    7.95143778152087    5.83980262522677
C        -0.65758280573125    8.69175694968071    7.92103207765903
H        -0.71487038694792    9.76115603679313    7.79302319356144
C         1.60558891240937    4.67321141632352    5.16253879719138
H         0.96494140872099    3.80764517948542    5.09563681348521
C         1.30438752668323    5.95141120779469    4.68630333156281
H         0.41818497213500    6.22738418806532    4.13226779787002
C         2.42786275229782    6.79437903584873    4.92247135065716
H         2.60613744353763    7.74954748947550    4.43619270912910
C         3.43526623960055    5.97983443322156    5.53242413497588
H         4.47060124976798    6.26397598996948    5.66861033503750
C         2.91463513499541    4.68308105573736    5.67183325823914
H         3.45483737956031    3.82281136028391    6.03731733700927
C         2.78189063604253    8.91775977784395    7.99345261932697
H         2.16187150678598    9.78732703261316    7.79216986569579
C         4.07890144578734    8.71020384013035    7.46191280246710
H         4.50041150223030    9.23377896450182    6.61711706069961
C         4.73860374558353    7.77428681969611    8.25690678175204
H         5.74879538092160    7.42858663166625    8.10765456838651
C         3.89328094925965    7.39505069114275    9.30498410858550
H         4.14910882356324    6.73888025756487   10.12365165603696
C         2.67358347717633    8.08736878794929    9.16739769085988
H         1.92797301358576    8.20030276009995    9.94693049742521

