48
CSD_code = APACUQ | q = 0 | S = 0 | Stoichiometry = C23H17N3O4Pd | MND = 6
Pd        8.47941388622102    2.09518910137349   11.42765795011637
C         6.25843145970092    0.94149458620126   12.38364713296739
O         6.42076840603379    2.16056501160462   11.84810873989423
O         4.89773628703732    0.67613427355661   12.65371363286640
H         4.41634009706011    1.44874273829438   12.33172356924286
N         8.32734235805176    1.24500571284695   13.59905740864442
C         7.08875694640846    0.76275358146019   13.67623901800391
C         6.59825292498951    0.15219380439409   14.82044889213983
H         5.58423954153530   -0.21283899327825   14.83208041303587
C         7.43675463511045    0.04974060185445   15.91781759903269
H         7.08809734193307   -0.41359749121154   16.82898920219476
C         8.72922313751854    0.54868897297514   15.83043014240562
H         9.40882763444784    0.48015783927621   16.66490160986302
C         9.13567559202120    1.14189789244364   14.64651043776767
H        10.13261667714892    1.54430360882590   14.51543204999060
N         7.95649043953222    0.22665909372203   10.84979690988402
C         6.83949045255359   -0.15293621725707   11.46838628401910
C         6.29565055924266   -1.41523873132993   11.29707148759257
H         5.38239264363901   -1.66989742727809   11.81011366846797
C         6.94592459923639   -2.29943932201080   10.45162727037360
H         6.54794146738672   -3.28949061755024   10.28770097747962
C         8.11611126831347   -1.89559990021884    9.81954596421577
H         8.64811325619097   -2.56294889664009    9.16080864800947
C         8.59469830060313   -0.61628844586164   10.04172158061623
H         9.50418180879762   -0.24196024057652    9.58488198049864
C        10.89393050778944    3.08331153533131   10.60043641300090
O        10.42972155128739    1.88702833671395   11.18082541901435
O        12.14577488100062    3.14276848009564   10.41497542346343
C         8.66429220646415    2.82033970531490    9.51556321586245
C         9.94391419517661    3.29326702412381    9.34228041034872
C        10.33742188369343    3.81458089819979    8.12356327454303
H        11.35656409627870    4.14956208374371    8.00339014835854
C         9.40867237074588    3.85827747087323    7.09457781416091
H         9.69220951594692    4.26345617779373    6.13394155273543
C         8.12121894170284    3.37941248985195    7.27947235591169
H         7.40856054081317    3.42057896961296    6.46818546007501
C         7.73027052682632    2.83654383739466    8.50227511623669
H         6.72376038970847    2.45757127761667    8.64174737839603
N         9.06169525755686    3.92243113235611   11.99300021414948
C        10.26499269510813    4.20999746861634   11.51154909704657
C        10.92134337458187    5.38769774170625   11.84661691349740
H        11.91062233950657    5.54175011059240   11.44477358189431
C        10.28485476235092    6.28071503447348   12.68365155209291
H        10.75679555830531    7.21184737440057   12.96100803853147
C         9.02128015188663    5.96287435937513   13.18013507564143
H         8.49912631374248    6.63756286999450   13.84006133387781
C         8.44020728881083    4.76329969760218   12.81787910012616
H         7.45859893000257    4.46453538860066   13.17297854171098

