99
CSD_code = APAGEE | q = 0 | S = 0 | Stoichiometry = C34H62NiP2 | MND = 6
Ni        3.11236233479117    4.05561712970463   15.21538989741367
P         4.26886142647553    2.54878837353558   14.07929973880210
P         2.88002088554034    5.94117568063682   14.04395005723528
C         1.45793126669626    2.86407193008094   16.38544777207017
H         0.66659437926170    2.21673361895904   16.04717334891338
C         1.38953611529050    4.23111528575855   16.52602675175031
H         0.52434307847236    4.84976855478911   16.33418791739787
C         2.61473025233033    4.69455811971564   17.16588172344190
H         2.77393231956118    5.69802568265967   17.53324724120683
C         3.41553197946139    3.59701418945236   17.40597493476781
H         4.32382315709786    3.58640620842211   17.98528288052851
C         2.69876577951602    2.40111020176362   16.98484264614364
C         3.05740037801774    1.08965713390092   17.22640903424145
C         4.24199228240019    0.62745278996146   17.90851738672189
H         4.99103385828480    1.26743148808979   18.33812925986739
C         4.21815554891751   -0.72880499004240   17.93016561862908
H         4.95319727345301   -1.37984714771902   18.37060107745238
C         3.02554419302239   -1.17865762389067   17.26233698449956
H         2.75039476929807   -2.21113862457292   17.13489313085000
C         2.32894396334256   -0.09392671216812   16.84006338371490
H         1.38658391234308   -0.09609805086214   16.32262071016331
C         5.64585162902570    1.63705155379586   14.89814386682409
H         5.19825014449558    1.08594942969394   15.73079241105583
H         6.07451651201523    0.90774084487423   14.20713488352920
C         6.71501479121563    2.58082153186838   15.43645994800928
H         7.21253346226496    3.09521959142855   14.60990174938475
H         6.22657103187833    3.33901720727612   16.05676190579375
C         7.75833870686756    1.83924340879233   16.26807334778621
H         8.24731825438374    1.08615374562481   15.64498559410255
H         7.25779239271142    1.31443064189661   17.08412169314578
C         8.80899409508498    2.78430811330074   16.83868162957531
H         9.34159295087662    3.29501880864029   16.03843266923852
H         9.53403637711486    2.23607530827309   17.43560806855630
H         8.34218401056059    3.53533617955334   17.47288035990519
C         5.04640682211261    3.11115135731235   12.49035961466319
H         4.26891477274077    3.65512357393112   11.94623730116241
H         5.80696462551795    3.84342185915616   12.77412181280280
C         5.66775489335512    2.05982162734068   11.57861777855640
H         4.90221929973720    1.36577371854405   11.22879432275417
H         6.42082980671753    1.48638704960934   12.12095039779389
C         6.32937465680235    2.71319589318490   10.36508743873321
H         5.58504972781911    3.29634966657113    9.81708359031398
H         7.10535233005184    3.40395700762276   10.70399741319153
C         6.94726969578690    1.67794279252174    9.43317604793373
H         7.70634217950688    1.09956400384116    9.95532469401296
H         7.41295631761456    2.16173197981306    8.57786012398533
H         6.18676191841176    0.99167830705035    9.06698453565796
C         3.23572993880045    1.11653230682019   13.55332250556949
H         3.82321142924912    0.41270119482344   12.96000616385298
H         2.93150954208754    0.60837657717013   14.47341130503172
C         2.00137434928912    1.59698525352738   12.79840755976581
H         2.29434495854581    2.01178160864852   11.83023039878760
H         1.54244625849762    2.40721086172619   13.37850853824116
C         0.98495990626980    0.48008218296455   12.58245232781892
H         1.45296303735665   -0.32989679321743   12.01706146525083
H         0.68706701294235    0.07358383692737   13.55118932730112
C        -0.24958262933118    0.97253188307765   11.83758293923510
H        -0.73723064613601    1.76790548284246   12.39629312182885
H        -0.96315363668493    0.16388953627862   11.69764556007876
H         0.02316873272064    1.36133205026073   10.85836572624346
C         4.47642013142093    6.61110457699546   13.39260977388674
H         4.74579622605642    6.02713000738617   12.51030738008172
H         4.37231822255875    7.65456435319877   13.08980161000698
C         5.55216048896354    6.45514855284829   14.46447063445012
H         5.47263052882639    5.44027991889791   14.88169565952354
H         5.36280350228159    7.15745555791888   15.27935605135260
C         6.96015394878664    6.68297542169023   13.92402253934184
H         7.15973226241713    5.96976005292439   13.11999380134466
H         7.02540772177997    7.68637118519556   13.49507755545779
C         8.01463303557001    6.52634402168728   15.01266562809561
H         7.85645894249676    7.25546492994572   15.80418658328413
H         9.01254211840843    6.67395808294213   14.60594693154461
H         7.96267693781177    5.53225757648552   15.44977281554258
C         2.19606242507981    7.43287232748674   14.91092023498513
H         1.31324579555471    7.10662095665849   15.46593765096483
H         2.95289913668476    7.70709795656129   15.65252352093343
C         1.84322401424190    8.65003059457646   14.06242755803505
H         2.68003938687784    8.92361416844950   13.41682857617876
H         0.98873217924223    8.42536139047933   13.42232626583043
C         1.49292488004778    9.84798369040163   14.94503739209439
H         2.35097524738796   10.09811308123672   15.57345794405466
H         0.66597322224790    9.57983797949990   15.60677873301029
C         1.10242768432946   11.06505949790586   14.11535522193207
H         1.91933057040527   11.35892775724651   13.45937325205812
H         0.86191495862324   11.90647554827580   14.76065877668401
H         0.23236546800085   10.84547408978630   13.50012725574205
C         1.86215547702883    5.86711405699852   12.50309934585656
H         1.89558859064735    6.81888878523596   11.96901063772433
H         2.31324623155926    5.10207572554711   11.86544564340778
C         0.43098559580041    5.46003635199393   12.83982545771082
H         0.46717410651921    4.58820697967467   13.50153540262900
H        -0.06370147346939    6.26651834905777   13.38553883678062
C        -0.38511277471826    5.12075343192030   11.59579453196687
H         0.06843963192354    4.26493374627419   11.09122487938770
H        -0.35921976447367    5.96652823111757   10.90375256804102
C        -1.83308319360604    4.79636835009286   11.94235647821120
H        -1.88019909813333    3.96768346226059   12.64529857971637
H        -2.38954283718852    4.52057562857513   11.04980639825661
H        -2.31965833978161    5.65609920292298   12.39826026071771

