85
CSD_code = APAGOP | q = -1 | S = 0 | Stoichiometry = C40H32CoN8O4(1-) | MND = 6
C         3.09362672298611    4.12395736587782    2.52776429801279
H         2.44825069539160    4.21415337865815    1.66589165829208
C         4.43740504870612    3.80325090298214    2.37729006949940
C         4.67992317125500    3.88345320589622    4.67094437764700
C         3.33750061877997    4.22578147914902    4.78119493207312
H         2.89162200796441    4.40408787951481    5.74909703907785
C         8.94534277356098    1.56866721979878    3.14309994900069
C        10.29403906176187    1.25428505445841    3.02692768886366
H        10.62365659211150    0.22539079001156    3.04221566059328
C         9.48893242322611    3.80753215893251    3.00913518276053
C        10.82601567029842    3.45440418514637    2.87125122504017
H        11.58720632943475    4.21228201188572    2.75432874732814
C         5.22037034375302    3.63167515242903    1.11803730874976
C         5.66682328835874    3.61595720591834    5.75841213767670
C         7.77436134137398    0.64510952327144    3.20594789472880
C         8.89082514559225    5.17059662845227    3.12011169027146
C         6.88138535694693    6.29191965710067    3.67393507672490
H         7.63610155073108    7.09225401291166    3.68997022527394
H         6.44211699204825    6.20699222278842    4.67679347658961
C         5.41102740787986    0.60906378889497    3.07635247341292
H         5.69099079137376   -0.44706244603570    2.94802827806507
H         4.87606187445474    0.94056252035966    2.17655021454505
C         7.82703243129264    2.72915286410395    6.14757054821005
H         8.08154389560048    1.68973242307404    5.90166945930893
H         7.37476720246850    2.75115705789021    7.15016889937148
C         7.43422937433319    3.43521319054850    0.30350697909859
H         8.16982248466687    4.23851447883426    0.44294397157131
H         6.84611873938192    3.65230323297794   -0.60049669365955
C         5.80131730654269    6.64220258963760    2.68791178218441
C         4.52744916275742    6.98550774213625    3.12021344613399
H         4.30985862768801    7.00844495823667    4.17990528037809
C         3.53110431865103    7.28214047215213    2.20677407130931
H         2.54029465251364    7.53353216268836    2.55812287965059
C         3.79969295404643    7.24052350712456    0.84982433014407
H         3.01795074952471    7.45623799287776    0.13573879628792
C         5.07323561452525    6.92088568339824    0.41023145421988
H         5.28720466866666    6.88799260488731   -0.64768453308729
C         6.06831459211782    6.63093678774220    1.32421629809406
H         7.06522689414089    6.38813229382648    0.98870639762098
C         4.50727266719158    0.74600031201236    4.27073762972894
C         3.16365833996294    1.05873372857592    4.11604923980652
C         2.34579252991202    1.21209876664763    5.22193981244329
C         2.86375565432167    1.05197475286550    6.49512393716419
H         2.22996317460608    1.18887008168581    7.35948009418836
C         4.19748191748266    0.71731324539472    6.65787423111405
H         4.60533236234320    0.58965878242043    7.64958798810597
C         5.01091669339347    0.55839673864075    5.55224575863584
H         6.04967891462224    0.28964851060472    5.67128564783194
C         9.07968763298789    3.56174125953594    6.14553447967582
C         8.99898599668660    4.94420698872640    6.26060390917034
H         8.02851698512393    5.40316626029707    6.37453641985290
C        10.14136649773036    5.72081299751558    6.22581300103681
H        10.06450889512416    6.79574821394134    6.29521289346982
C        11.38259151208989    5.12251039412734    6.08948377983533
H        12.27553802238507    5.72961096330517    6.05020380044540
C        11.47556847914281    3.74452489910958    6.00270513302018
H        12.44094294218641    3.26943130025696    5.89912640728010
C        10.32978019089309    2.96891763026795    6.03189738493935
H        10.40677334560247    1.89247288657256    5.95288650020007
C         8.15478608150025    2.12659038981582    0.12977847354453
C         7.44190755414949    0.93388223173799    0.11045989185031
H         6.36643164095866    0.96634678422255    0.19788418193804
C         8.09819182650019   -0.27588556748928   -0.01276959953904
H         7.53549769008168   -1.19751479697927   -0.00402001305510
C         9.47726479618789   -0.30743205191500   -0.13317255953113
H         9.99254682538947   -1.25352789300360   -0.21664729084933
C        10.19350791759354    0.87660214682091   -0.14481665189863
H        11.26994628117422    0.86077105937855   -0.24159464352829
C         9.53486049537453    2.08680739477943   -0.01522334279619
H        10.10022925712077    3.00941989488361   -0.01340206315314
N         2.55245351717736    4.33855502621567    3.71890715174124
N         5.19776161837217    3.68579390189424    3.46209982669354
N         8.57806502953721    2.84686374653559    3.13588802420114
N        11.22306446423563    2.18962328478461    2.88611407326664
N         6.81921974255543    3.20507430652629    5.22104956579525
N         7.57951292731161    5.06274269048545    3.35393245215350
N         6.50803758702538    3.43838701219187    1.41843417210754
N         6.64489959202556    1.35912757381187    3.20093417729600
O         4.71408632881677    3.70199613947730   -0.00124124890504
O         5.39775818971952    3.73672577594803    6.95297190912711
O         9.55510205125644    6.20299662125019    3.03736626262363
O         7.88672260974935   -0.58009101502091    3.22234713332372
Co        6.88790531394383    3.26665880782817    3.29820871505356
H         2.75681086595319    1.19668455066593    3.12288931828482
H         1.30536816558908    1.47113933211348    5.08599106524410

