44
CSD_code = APAREQ | q = 0 | S = 0 | Stoichiometry = C19H18Cl2N2NiS2 | MND = 6
Ni        7.07131232310298    3.27607166500169    2.10474946631763
Cl        7.24657400996805    5.33065029960738    1.76338487766646
Cl        6.34716915285433    2.94452169398413    0.17509983229160
S         6.91050178784819    0.99738562550334    2.53236573473494
S         7.84097916330170    3.59516365865207    4.27741548766630
N         9.27283565967709    2.66485516532233    1.64213830055248
N         5.02999364407104    3.42855557384238    3.22340855436588
C        10.26208637534602    3.54638605002472    1.66710557737666
H         9.96615612792971    4.58153804617885    1.55317233433355
C        11.58697951302988    3.17589048652879    1.83397124202237
H        12.36392286054163    3.92324817911672    1.84766823595578
C        11.88352189751432    1.83149970116151    1.98805964324620
H        12.90222948865113    1.50212289545795    2.13213672963421
C        10.85064293541054    0.90928707117049    1.95084272636605
H        11.04437184453337   -0.14765036641688    2.05657106119868
C         9.55380134792130    1.36981240061294    1.76119343391392
C         8.40111732327899    0.42019939859653    1.64949499342236
H         8.65390488037174   -0.57827061104503    2.00544954027872
H         8.06235563799398    0.37672878467319    0.61106008788743
C         7.45178275574120    0.84649837247283    4.22976139956695
C         7.47866974335108   -0.41329462169972    4.81402860228223
H         7.22377131702347   -1.27532602171150    4.21594089674479
C         7.81418332407521   -0.55742695516104    6.14453151292312
H         7.83405047652644   -1.54194212502662    6.58812685620023
C         8.11731092387540    0.55377163556706    6.92871775606998
C         8.09273102804366    1.80726015132566    6.33749913314645
H         8.34587970295797    2.68439875504737    6.91513867845698
C         7.75898421617052    1.96035559827559    4.99912496631462
C         6.35575267990663    4.36185000535555    5.00822756292546
H         6.43319458253832    4.31687298571268    6.09436538076908
H         6.43127126589889    5.39837211583770    4.66769847022417
C         5.07471084328113    3.76688572559675    4.50860463847068
C         3.97987904139830    3.61502639293878    5.35062932342880
H         4.05109648511047    3.88860481183390    6.39262834210306
C         2.79958725443580    3.11988061902884    4.82178184037876
H         1.93152455013518    2.99391573135520    5.45228615213496
C         2.75269072763805    2.79522512176969    3.47570111365631
H         1.84985321356195    2.41572363201656    3.02492771286071
C         3.89840280279700    2.96291511791619    2.71471611711862
H         3.92789926192087    2.71900809415823    1.66027555074136
C         8.46934553228158    0.38446783375645    8.37324713667935
H         8.69112978168505    1.34145625287834    8.83744765399618
H         9.33872052889229   -0.26320962450294    8.47616585031470
H         7.64402198740809   -0.08188532271129    8.90963949326225

