55
CSD_code = APAYAS | q = 0 | S = 0 | Stoichiometry = C23H20N4NiO7 | MND = 6
Ni        9.19002750379774    8.99455316206962   10.06341677299006
C        11.55703778012337   10.83858479134969   12.20805638435359
O        10.49466906375874   10.97106312611516   12.85773226288485
C         7.21768102796728    4.59655146500103    4.44375199649263
H         7.16471976738134    4.29826513839364    3.40538555011258
O         9.09340887327539    8.97805932935804   12.23815249423012
O        11.19278502435093    7.87440971722501   10.61946250370395
O         7.27650013039923   10.30009347305478   10.06826100111557
O        10.25618259661768   10.48241470991740   10.08227143817444
N         8.23568868763602    7.42148056545853    9.93832606515793
C        10.04185115572859   11.73377402462215   10.02003903335437
O        12.21583030163700    9.79721395799934   12.05186895778246
C        12.02157441987464   12.10480124722656   11.49873723567326
N         9.28898068654659    8.89033427095406    8.00435197205738
C         9.11942857895397    8.21041347189052    5.31063741132250
H         9.04604814386056    7.92886326501753    4.27178564569968
C        11.24385855677957   12.54604068003357   10.42804993969085
N         7.82463105604374    5.73047790739767    4.69365750932026
C         7.66730824749740    6.73881615850772   10.91679332457865
H         7.75822998242484    7.15479534524542   11.91083092459284
N         6.73315068110609    4.18344544178465    6.72146762983534
C         6.85628623620849    5.04474735805414    9.42969753166101
H         6.33604675685631    4.12530044643061    9.21348920728653
C         8.10824409440454    6.95710864879036    8.67952620590799
C         8.57233786311560    7.36550657613289    6.28280973009410
C         8.67798549410640    7.75497725165922    7.62770886231320
C         7.90664476354277    6.12471082762535    5.97159754338263
C         7.34830076772787    5.33792544089420    6.99994907172239
C         7.43006786445660    5.76543351763234    8.37760491685401
C        13.44512079605388   14.01484397556968   11.22022947810676
H        14.30681496343314   14.59038805691407   11.52754923274838
C         9.72933245207786    9.37701833665749    5.71694056412473
H        10.15636686610605   10.05901513446707    4.99923358083758
C         6.97104974207486    5.54945735126925   10.70633037826907
H         6.53210570847160    5.03719256082828   11.54743315388134
C        13.12286846502214   12.84679887259197   11.89183401034075
H        13.72308699371660   12.50737746933243   12.72320834132923
O         8.99923639537108   12.27726871211724    9.65313198891888
C         9.79510801564009    9.67972484124169    7.07887350033808
H        10.27099249920124   10.58766440368912    7.42223221114747
C        11.56186500869056   13.72063882032606    9.76223723790855
H        10.93872314355251   14.05105629873326    8.94404444615245
C        12.66591938302879   14.45309375962067   10.16129232629744
H        12.91768903702092   15.36927399084130    9.64658459334860
C         6.66167643521973    3.79845104353258    5.46275518375977
C         5.98401025943055    2.50578208624273    5.16325138523058
H         5.62082532728805    2.05952520479991    6.08416138720911
H         6.67999057636533    1.82176907896337    4.68020495052555
H         5.14863354320845    2.66772400313735    4.48422839127874
H        11.78623554629450    7.90766497706532    9.86567029650394
H        11.58778627414244    8.55420353784701   11.24620794272941
H         7.10129674364583   10.40742616165762   11.00953662887802
H         9.73563097296613    8.29269712841154   12.46141479283300
H         9.57930784371614    9.82655627947468   12.57714391635964
H         7.76732090209062   11.12842659884356    9.81045095860344

