49
CSD_code = APEBAA | q = 0 | S = 0 | Stoichiometry = C14H24IO6PSi2W | MND = 6
W         1.38228312983698    2.45962684324304    2.33501509740326
I         6.35340934942134    2.40834383980058    5.81117842682110
P         1.57012358937004    0.45920907451541    3.73154093383054
H         0.70890475526113    0.52746686571912    4.85545883282050
Si        2.78486145832109   -1.95925530155559    2.32600219971242
Si        0.18589691944128   -2.18696951753773    4.37836402310376
O         4.46045292518297    3.05880397711583    2.18269767350143
O         0.92052489044378    5.03336086206745    0.61099889402430
O         2.94623280166728    0.11122496388691    4.52068800129926
O         1.39905198292351    0.64964256430823   -0.22889813369939
O         1.15781353607355    4.13419949122609    4.98280768076691
O        -1.68877805254255    1.82941424498791    2.52236347755448
C         3.69277668970040    1.12653687242631    5.16766000644155
H         3.35822267667476    2.12182438802335    4.84197357900295
H         3.53797063347719    1.04818814793103    6.25064821870254
C        -0.57773019253477    2.08243608018170    2.44418219886424
C         3.93181486912172   -0.66500214027738    1.51532116868145
H         3.72050361131472    0.33621351286442    1.88136119797493
H         3.80972019828842   -0.64826973217470    0.43639090722182
H         4.97654863996778   -0.88219429465174    1.71822315286957
C         5.15601349063627    0.92811595712486    4.82549196017140
H         5.32411913924426    1.03515750642512    3.75744987782640
H         5.50492546135693   -0.04739574325550    5.15436757546843
C        -1.54097619915730   -1.37611940799286    4.47977701059537
H        -2.08830623507039   -1.50645384023057    3.55020792052347
H        -1.48131661551231   -0.30816137012700    4.67137503977251
H        -2.13851833139417   -1.81729771529770    5.27168294082222
C        -0.04436766816247   -3.98506570244438    3.79586362449141
H        -0.68189375068303   -4.51870162247966    4.49225897963939
H         0.89473834343118   -4.52297046716741    3.73404496728673
H        -0.51856711292796   -4.03067223090621    2.82143469630094
C         3.76334463570328   -2.91930424985833    3.65285060744469
H         4.69933980910143   -3.28399864135922    3.24113604316101
H         3.20938840134317   -3.78064467515869    4.01019563072781
H         3.99527017127343   -2.29505509348038    4.50849969479075
C         1.04101488926326   -2.16622606228057    6.08111726229316
H         1.31833954382520   -1.15791992646276    6.37370595002282
H         1.94382346396609   -2.76764028825462    6.08360733987827
H         0.38194235669921   -2.56076954301508    6.84866647007039
C         1.25822291580590    3.54167334779504    4.01046953960829
C         1.19320681698038   -1.18077296514047    3.08383672757361
H         0.51576403075741   -0.98356069569017    2.24738766946449
C         1.09404903613812    4.09111927004033    1.23138071186936
C         2.21377136645934   -3.15028080024303    0.95106120809348
H         1.66215626761300   -2.62865990598793    0.17501078641924
H         1.57832117751516   -3.94103718575037    1.33213531279695
H         3.07214872305373   -3.61816356472098    0.48132607472575
C         1.43308724642402    1.32754458462324    0.69021997062098
C         3.34135421489157    2.82476028918909    2.23506087063443

