85
CSD_code = APECUV | q = 0 | S = 0 | Stoichiometry = C29H50IrO2P3 | MND = 6
Ir        6.12976357968442    5.74345157356956    4.15959812182477
H         3.74649912213939    3.77042521216727    5.12117906794713
C         7.15846225125559    7.46565750636979    3.86924883669947
O         5.57412601927070    8.67262666078095    5.18358844395813
P         4.81213703470657    7.25444776840963    5.35313500093633
P         7.82085593813890    5.00934977102717    2.72972850768383
H         4.55261509169100    2.99807546467191    3.45746611976072
C         6.73367587929133    8.67043372835394    4.41860386535051
O         8.82310327443949    6.27827275432121    2.63943248553553
P         5.00931204155373    3.77695292192393    4.52127152202368
C         7.43989341622237    9.84867924722013    4.24344140009761
H         7.07496591158756   10.76447135793621    4.68267536710009
C         2.25409825898129    8.64010450529737    5.45178552236141
H         2.81362698056792    9.52541389404492    5.74046547338548
H         1.86488063089776    8.14637362446563    6.33807761393576
H         1.40046399052209    8.96196101216481    4.85425478916435
C         3.40774070160809    8.39493360732244    3.28186412792931
H         4.10021999691788    7.80687884010526    2.68492421114030
H         3.84608828777648    9.37683863954817    3.44791884880496
H         2.48635426686869    8.51963358030652    2.71462508904364
C         3.11320189906865    7.70019557933093    4.61220787809283
C         8.35120047788332    7.47871211788550    3.15395219434673
C         9.08137185140411    8.63996482682814    2.96321150673280
H        10.00141896122717    8.60984411710727    2.39974629013891
C         8.61383980864039    9.82518494926679    3.50776103590251
H         9.17266266829633   10.73682814980395    3.36363286391956
C         2.35373487790777    6.40236749782712    4.35250263888648
H         1.40989980290438    6.61375793866670    3.85083605942941
H         2.13662043670848    5.87769742312874    5.28118391052846
H         2.94221931833142    5.74594914729293    3.71350094875561
H         5.22030956903084    6.00478707818618    2.91410691670719
H         7.05998162243418    5.51722796847392    5.37686619451878
C         4.71080186271494    7.22366304589079    7.25284448328522
C         4.24894532391529    8.54134048284460    7.87680064637717
H         4.67236360806338    9.38586299379276    7.33832750353539
H         4.60134118792667    8.59168160872753    8.90682306818315
H         3.16917987744128    8.63561381937248    7.89850169952722
C         3.82771333965224    6.05655051982286    7.67958014252322
H         2.78127164189889    6.24147903859613    7.44503474495080
H         3.90916374344431    5.89261934512264    8.75387035388029
H         4.14171172811752    5.14497958909103    7.16817997363641
C         6.14300743249010    6.97985138321402    7.73092581142442
H         6.54047951986198    6.05374775184349    7.32818941363204
H         6.17078903264123    6.92259293161134    8.81876030193768
H         6.79398736500952    7.79189115690155    7.41051448662802
C         9.09241352885707    3.68655623755672    3.21878520819868
C         8.50315073607955    2.30112619144278    2.97635579073866
H         8.48365881691784    2.04720188420061    1.91909179436027
H         7.48626231281426    2.25728520047940    3.36833789937192
H         9.09599944900087    1.54644399784482    3.49281642120076
C         9.30515304387960    3.87029789878898    4.72191636796789
H        10.08280360396127    3.19466582770845    5.07750199978850
H         8.39186883559270    3.65434189243011    5.27009476252027
H         9.60682834582035    4.89296739917575    4.94260336245194
C        10.44866772844067    3.85138182177834    2.53330157057304
H        10.44895018317258    3.47504522435865    1.51671661661861
H        11.19991651277841    3.29209267468206    3.09057205144660
H        10.74620233886327    4.89687502951108    2.52430780938784
C         7.37503828557402    4.81141195779645    0.88653066053267
C         6.20874088590556    3.83586219056007    0.76819510110001
H         5.87874853794533    3.76899738885321   -0.26815357865251
H         5.37374729567704    4.18592497616928    1.37164778564274
H         6.48517284697089    2.83919665225447    1.10441663704762
C         8.53360142042141    4.37148591100456   -0.00281691084803
H         8.23939513690743    4.48147289347919   -1.04717035740056
H         8.79524937386149    3.32880004009074    0.15517549773440
H         9.40583485298544    4.99765909322872    0.16794646753215
C         6.92749642215790    6.19633459746117    0.41382446334774
H         7.76965201156476    6.88456366963068    0.37548493879115
H         6.17739371107790    6.61086023453749    1.08255047832314
H         6.49549744308282    6.12704428320331   -0.58377184399890
C         5.68233539446100    2.39093250274991    5.49382459763111
C         6.24371974795930    2.65018698965082    6.73831787053445
H         6.26609074574649    3.66681162897139    7.10610133642895
C         6.78020202288024    1.62572309771427    7.49436265822228
H         7.21070916286830    1.84356181864683    8.46157236916653
C         6.78071167210724    0.31977860244484    7.02059049301729
C         6.22443169978654    0.06537357371744    5.77133659530685
H         6.22085959080791   -0.94542594248655    5.38791578443750
C         5.67976137261545    1.08483170799776    5.01569060763129
H         5.25210200864468    0.86905368952226    4.04505381071841
C         7.35756910686530   -0.79971409184449    7.83128930258686
H         8.03366997500140   -1.40201282465676    7.22680922777136
H         6.56103364554754   -1.45256828380030    8.18860936625125
H         7.90096056326608   -0.41839976747752    8.69201950436438

