82
CSD_code = APECOP | q = 0 | S = 0 | Stoichiometry = C28H48IrO2P3 | MND = 6
Ir        1.80319988752117    1.87085738934698    6.16632645117110
H         1.78009402788509   -0.11279830389114    8.72884018500386
C         2.00212918335883    3.57620391322586    5.08450224683404
P         0.83907849759672    1.22682338343662    4.13972334199523
P         2.70559388187323    3.31659655706979    7.76945519357772
H         0.39779115455264   -0.74229982373719    7.42771801581741
P         1.62827469643991   -0.08901725835131    7.33761001901940
O         1.15603522005033    2.46635173290173    3.14783633244638
O         2.94032874541603    4.70285798132651    6.96774546153178
C         1.66153948917669    3.61808942966281    3.73636738972293
C         1.83192318143596    4.75813410985011    2.96873609723969
H         1.55009840337264    4.75088309534642    1.92692470077365
C         2.37006285451861    5.89112562351221    3.55716963859872
H         2.50645036855073    6.78573020865053    2.96965870333750
C         2.74224453492409    5.88233679119408    4.89167004653967
H         3.17358862103352    6.75550291616738    5.35670519630033
C         2.55895239501999    4.72669480414020    5.63245405326995
C        -1.06537511174717    1.21920178249792    4.06050223039611
C        -1.50075750504953    2.65915538592701    4.34144244725180
H        -1.24545608228050    3.31037722797835    3.50770278280527
H        -1.01809659215431    3.04428970117055    5.23651365054977
H        -2.57913440225514    2.69881227027625    4.48995535440750
C         3.90904492516982   -1.51305155975144    6.57070092256072
H         4.33848398764047   -0.53899474612744    6.38166311137081
C         4.65392096457089   -2.65611189091732    6.34240478881763
H         5.66959920122232   -2.57355068911311    5.98394444338553
C        -1.64209234784173    0.81451360446417    2.70769099316801
H        -1.17415114927361    1.37980555123747    1.90579220817278
H        -2.70958911654265    1.03726481669036    2.69802163184100
H        -1.52816546358921   -0.24987416386356    2.52068144393571
C        -1.59846872524596    0.30397303391457    5.15781812587867
H        -2.68757007753956    0.33344277232169    5.17443585544585
H        -1.23228628508483    0.63688037845706    6.12652900244035
H        -1.28580852418946   -0.72666185791819    5.00494259032106
H         3.23077804182688    1.52356528668094    5.65296955543114
H         0.37846018181826    2.24803132819172    6.66279703127349
C         1.52771444055825   -0.17295818386947    3.05793217714098
C         3.04522893358723   -0.08909962827296    3.22380557825442
H         3.53611441106472   -0.82543801222341    2.58787298213033
H         3.32863583658280   -0.28681603277571    4.25285657344555
H         3.40487961734334    0.90149923645131    2.94927460112693
C         1.04532366490609   -1.51262736859614    3.60404009606311
H        -0.00254798679875   -1.68942340388031    3.37218588421352
H         1.17420932054758   -1.54155879295915    4.68775021184175
H         1.62789676617518   -2.32661624454996    3.17334921625876
C         1.21645783303764   -0.02174106827712    1.56886328320494
H         1.32543273108527    1.01515774969866    1.26076198431281
H         0.21996730155218   -0.36492256637084    1.31512596589023
H         1.92429848107397   -0.61891274345604    0.99435465448011
C         4.47616381709769    2.96785949861357    8.37952572803827
C         5.36760614782222    3.07505659148670    7.14135849641199
H         4.96401892978995    2.48762155218340    6.32047280444194
H         6.36870229855616    2.71019973791346    7.36783433747221
H         5.44373573686076    4.10975213251418    6.81334588202001
C         4.50820368746383    1.53929534524628    8.91539063649302
H         4.09774085184041    0.85191945142369    8.17650380165771
H         3.92511373406100    1.44415437021449    9.82926317604704
H         5.53277315525055    1.23864841455117    9.13236399507975
C         5.02122397517444    3.92713164161658    9.43262894283671
H         6.09028136986835    3.74699922711928    9.55096885080919
H         4.55451458764478    3.76981654674962   10.40121198426318
H         4.88718596406676    4.96027793870506    9.12451210109830
C         1.65156601428766    4.01584227353675    9.19356410967383
C         2.21791263263354    5.30080659807655    9.80010643578396
H         2.63097237544781    5.94009664928406    9.02364815869326
H         2.97963774316234    5.10678103731269   10.54648964623464
H         1.41406906420963    5.84906249845260   10.29070590862598
C         1.45168230317851    2.93678163771241   10.25079185445849
H         1.10448703672982    2.01681614107578    9.77996201907664
H         0.70288054847511    3.25463309302508   10.97568354893044
H         2.37416349639435    2.72774084926142   10.78861296134656
C         0.29896612821378    4.36961052816840    8.57262833198573
H         0.42530218024109    5.08283214730479    7.75908303591952
H        -0.35177271595194    4.81540662051422    9.32411714505443
H        -0.19376378443042    3.48632882810815    8.17917953187748
C         2.60177009440167   -1.60527226521098    7.03216919264998
C         2.04678731416336   -2.86190828319074    7.25470029305715
H         1.02646570376320   -2.94149742709358    7.60645670259149
C         2.79081091657794   -4.00352040507016    7.02337244619714
H         2.35176681995266   -4.97538371336112    7.19701827785955
C         4.09575895488590   -3.90289963230035    6.56817621378830
H         4.67444050526375   -4.79657334682219    6.38652899852891

