41
CSD_code = APIBAE | q = 0 | S = 0 | Stoichiometry = C13H19FeN2O5P | MND = 7
Fe        1.04144177586854   -2.17163789726305   -6.28844744827660
P         2.81251628842071   -4.66847083537197   -9.46802864545536
O         1.43351807217258   -4.30889573384655   -8.68080740065520
O         3.74261018396760   -5.51018913496578   -8.71153369704693
O         1.98075658371497   -0.29946341822337   -8.30551134993096
O         2.40343524438167   -1.02559411197844   -3.96743052434836
O        -1.42781330277129   -0.64288589901585   -6.16222958911759
N         2.08448038810581   -5.32006920879089  -10.85418787820490
N         3.41683605027961   -3.18424161908781   -9.90429439471228
C         1.43543508236734   -4.07141077983337   -7.33505816117017
C         1.18589748843327   -6.43472664346457  -10.62408054063334
H         0.63277135085953   -6.63126796986908  -11.54459703516264
H         0.48332075897369   -6.16965729349462   -9.83811382554312
H         1.72041128490910   -7.34625404156536  -10.33098943759571
C         3.06560615248852   -5.61836828420146  -11.87929839146046
H         3.64262128782171   -6.52313712583456  -11.65238258600647
H         3.76000718008463   -4.78473395322742  -11.97000195083418
H         2.55244029522990   -5.75827949676715  -12.83285972417904
C         2.63207657395209   -2.32502297053514  -10.75987883456415
H         2.71960374819856   -1.29105692042617  -10.42086104048986
H         1.59175504500831   -2.63702286499366  -10.70220831661958
H         2.96115198754515   -2.37758901110544  -11.80330157493716
C         4.83802114217293   -2.93641934243174   -9.88415002969226
H         5.26649188228328   -2.92596679190551  -10.89299722850525
H         5.31451743183052   -3.72429122692182   -9.30412794133489
H         5.04009642017333   -1.96991190597365   -9.41398489315510
C         0.24020312788550   -4.14587483465433   -6.60659039365333
H        -0.69803119033870   -4.40921046066115   -7.07871332939220
C         0.39589214333513   -3.85705890679505   -5.20641699326289
H        -0.52529134101309   -3.86638638941659   -4.62622230150493
C         1.53568297348175   -4.56882872433675   -4.49055155465788
H         1.27285564152266   -5.62625901428714   -4.38762474557002
H         1.64177831070052   -4.16000879655115   -3.48504426849679
C         2.83751596001955   -4.41030304478608   -5.28562861910785
H         3.59103280454337   -3.88144676359807   -4.70124225082116
H         3.25437081747333   -5.38451869994491   -5.55670438869712
C         2.56691540432507   -3.63837736093631   -6.56863697425296
H         3.46754886577524   -3.46043691011110   -7.15307295257384
C         1.60018522357243   -1.07561545551199   -7.55116313038076
C         1.86949285431839   -1.48458102971953   -4.86740257938162
C        -0.47225799207381   -1.27312912759459   -6.21672307861557

