41
CSD_code = APIBIM | q = 0 | S = 0 | Stoichiometry = C13H19FeN2O5P | MND = 7
Fe        5.84699062532029   -1.50714050495966   -3.61674379979385
P         8.69894250237743   -2.23695299507688   -1.26372994767555
O         7.73227056184782   -0.95905061796849   -1.14100774057023
O         8.39349259188079   -3.10425708880108   -2.40908008883050
O         8.48374237835429   -1.14886634809865   -4.78272513449401
O         5.86713756353787   -4.39783669194161   -3.14166627024514
O         4.80212543459018   -1.56405290337482   -6.32929010982178
N        10.18924883795045   -1.43422185212863   -1.21890569274898
N         8.55218348592169   -3.01981504130180    0.19945215844564
C         6.40327657313061   -1.06150355783825   -1.57830492900157
C        10.37800073141103   -0.32037050233104   -2.12686433122185
H        11.25888996641021    0.24084324091190   -1.80713904398993
H         9.50741138162222    0.32863500642091   -2.07864134315535
H        10.52263396841148   -0.64495351190244   -3.16325748101799
C        11.29442638835841   -2.37110262969728   -1.26479357216295
H        11.46532073037882   -2.76217272795043   -2.27455045662885
H        11.08097165629030   -3.21089786030592   -0.60501542387416
H        12.20211058364296   -1.87012302406949   -0.92145983729413
C         8.86207018485512   -2.30386355678668    1.41293287077350
H         8.12231883937689   -2.54362830631779    2.18178919167895
H         8.82883031361596   -1.23811899921524    1.19936731191677
H         9.85651080425107   -2.55772915242823    1.79569284577484
C         8.61340447243146   -4.45847002770956    0.27260960815179
H         9.57934413550640   -4.81201291487089    0.65191764687357
H         8.45456287535227   -4.85509288054335   -0.72780431542910
H         7.82783501993042   -4.83180569669547    0.93601414567845
C         5.89160311978742    0.12196264771123   -2.19483231682688
H         6.48244006068256    1.02563861509602   -2.27803589372320
C         4.60533415401841   -0.01526257956373   -2.73311529216345
H         4.11398358249435    0.79366657438385   -3.26017812748722
C         4.02422845879899   -1.31159440098669   -2.55127918303528
H         3.04684956358208   -1.45689856217365   -3.00848163319349
C         4.09362179684090   -1.91430979992447   -1.15504999263348
H         3.77081086402768   -2.95504616641710   -1.19368024745222
H         3.38999739725969   -1.37792647569121   -0.50944798279489
C         5.51638902910790   -1.81061139269189   -0.59658402637727
H         5.53400043934678   -1.27612700466083    0.35925213432616
H         5.95725057105242   -2.79558132388359   -0.43087197858700
C         7.44880118090652   -1.27817185660271   -4.31294913781145
C         5.89532274335004   -3.27173596293868   -3.30873687903736
C         5.18881443198705   -1.50054116667578   -5.25100570454080

