32
CSD_code = APICUY | q = 0 | S = 0 | Stoichiometry = C11H12Cl2N4O2Pd | MND = 4
Pd        6.02986601326560    8.36157618278936    7.00820127533734
Cl        7.34784961602575    8.50963581752351    5.24201757930361
Cl        6.66631186652395   10.37514573740057    7.67331063248708
O         2.57424536245303   10.10000565023711   11.43356466144981
O         3.85650702310000   11.91823508765448   11.19353751338202
N         5.31410259642954    6.51774908700963    6.49781248478477
N         4.74089112996134    8.08764666853883    8.57955581641947
N         3.25070118997022    7.86832562963757   10.12366777987916
N         3.10887311754981    6.78662423479570    9.35742135863481
C         5.67343483367806    5.77326335092585    5.45442336179576
C         5.08715365624367    4.54858058998458    5.18239572834963
C         4.08670311856100    4.07083207791511    6.01995551180300
C         3.70900696682725    4.83838760942086    7.10692383949331
C         4.34549642057113    6.05714824174044    7.31689297660602
C         4.02872215438250    6.93193260189537    8.42528745957210
C         4.23198331589801    8.66223505500887    9.65705484383359
C         4.67567077119499    9.94131228394727   10.25388888035893
C         3.57170405487469   10.64494618502216   11.01883491977856
C         2.91554686349366   12.71510185173229   11.92466900198992
C         3.56541121857856   14.04924268263698   12.23477459752154
H         2.61982949480335    8.09196541409526   10.88558442631300
H         6.45357190886340    6.18865307509550    4.82562280592892
H         5.41100278095384    3.98059200802578    4.32531921777209
H         3.61261474422052    3.12073706507660    5.82831298628984
H         2.94034161803471    4.52784564410677    7.79555598531838
H         5.50173746073490    9.75805792366732   10.94991002845212
H         5.09663607309838   10.57721905331536    9.45948228645673
H         2.63292218002651   12.17942624710584   12.83750922697741
H         2.01797113978833   12.84244270846351   11.30995206383357
H         2.86419822672604   14.67959090069029   12.77329587213196
H         4.45308554412010   13.90276921383866   12.84375306484785
H         3.85580753904625   14.54437412069348   11.31271181290112

