70
CSD_code = APICUZ | q = 0 | S = 0 | Stoichiometry = C31H37NRu | MND = 9
Ru        1.24068886282434    5.43127884991486    3.43250285081129
N         2.10362675888360    2.76600518869687    4.66213997289530
C         0.03149586888420    4.56341610143089    1.81483295016860
H        -0.96312961314461    4.99128478305620    1.65422131425552
C         1.12249320382427    5.33812193602325    1.33722690080132
H         0.99877973072969    6.29813786147849    0.83212265246304
C         2.40315067643192    4.79331866734526    1.60730721104172
H         3.28540699298695    5.35583795555735    1.29576217411864
C         2.56442579829037    3.33788457664332    1.60495380234022
C         1.44050810226474    2.49128114684819    1.58893145777253
C         0.03306724456109    3.06255068546683    1.55527764007505
C         1.64372643376494    1.12082461277610    1.55630933095080
H         0.79510364032162    0.45384311983057    1.50590497335962
C         2.91553908592646    0.57249156531711    1.59171429065228
H         3.04075574047825   -0.50023726825532    1.59210848547708
C         4.01933944690809    1.40443782287671    1.62582397790897
H         5.01531846167594    0.98748182222639    1.65582335674260
C         3.84051680551438    2.77301928645224    1.61421870874036
H         4.70115327535637    3.42739013250537    1.62318284800033
C        -0.52774054158147    2.83273848707168    0.13575982978039
H        -0.56089875342534    1.77044235605781   -0.09398500741313
H         0.10633311015480    3.32415249321240   -0.59939019247331
H        -1.53516619081911    3.23608539297661    0.05338615595584
C        -0.89245930509764    2.38594562335573    2.57411007815475
H        -0.99324708958328    1.32116311079540    2.38400851787496
H        -1.88246128851716    2.83384210986862    2.51719303093643
H        -0.50334852037006    2.53809894997569    3.57849303424354
C         1.41325215568814    7.67796063764068    3.40879770510375
C         2.25859871260905    7.16211171984283    4.43988083056458
C         1.42422975035752    6.45837173128460    5.36516481851163
C         0.05272429642807    6.57256258300998    4.91830617619045
C         0.06351666449897    7.33865604997006    3.71567421784142
C         1.85618016432837    8.66760685755675    2.37034280644240
H         1.98892137082707    9.64822665220282    2.83401523198705
H         1.12021164469796    8.77225753576477    1.57483150018883
H         2.80755896524880    8.37996155071911    1.92288195521901
C         3.69968980730246    7.52374001937727    4.64305746742569
H         4.21927745064409    7.62850662430766    3.69232678706822
H         4.21709405425737    6.77023228238507    5.23291203128851
H         3.76972954533708    8.47792661895446    5.17200801359814
C         1.83910794616666    5.97046887172324    6.72490564479397
H         2.88789963507853    5.68110301996308    6.73604157232555
H         1.24628335140833    5.11014057561145    7.03120510878855
H         1.69455464983133    6.76657510102509    7.45894104296186
C        -1.15634425177429    6.23933784248836    5.74294907042126
H        -1.40523229864207    7.08147054371012    6.39408964810804
H        -0.97421371267896    5.36741678581866    6.36795635469468
H        -2.01883068555919    6.03180397761309    5.11282806764013
C        -1.15268861376120    7.86765240075200    3.01557612878475
H        -1.99914417618720    7.19386013553277    3.13569842252155
H        -0.97684456836393    8.00684440721864    1.94957854068753
H        -1.42929017854409    8.83606731535421    3.43979297587145
C         1.71048017300128    3.76619632038164    4.15760864848662
C         3.02912444557644    1.82440575985262    4.99502959700007
C         4.38236114416558    2.17667106166613    5.09809893665941
C         5.29670957586295    1.17940008352324    5.39895070973081
H         6.34444273594179    1.43340634854232    5.47454391866092
C         4.88965695526834   -0.12740544668832    5.59931338715669
H         5.61896152704188   -0.89019384562625    5.82849085091437
C         3.54847754444160   -0.45686832254248    5.50753660341643
H         3.23229734795325   -1.47753032189387    5.66794303474968
C         2.60213226169531    0.50800893756603    5.20829650145445
C         4.82927495220388    3.59320449493317    4.90995064167111
H         4.80061426962027    4.11780275921910    5.86672208500577
H         4.17555823492663    4.12020750874655    4.21502487192839
H         5.85045303263534    3.62500034776924    4.53771627094950
C         1.14811666034749    0.17530549119180    5.08913596669869
H         0.96212471056478   -0.85716706139484    5.37321437761818
H         0.82160821347546    0.32620961732223    4.06160216445590
H         0.55318659883675    0.83164705808373    5.72301896878926

