71
CSD_code = APIFAI | q = 0 | S = 0 | Stoichiometry = C22H40F6P2Pt | MND = 4
Pt        3.76981761940740   -0.44364508321715    8.71529085288276
P         2.16186507987896   -1.78074498060096    9.69604196492657
P         2.13120388141175    0.39131190547946    7.31767464523889
C         5.67764939676815   -0.62645767077294    9.39741683850058
C         5.63993851018652    0.32442862079789    8.50418676771059
C         6.70463421526492   -1.23329410366365   10.26697777915045
F         6.91760649263504   -0.50632609890917   11.38475587305217
F         6.37970209039528   -2.47196216714416   10.70229043496635
F         7.90129221291084   -1.36680063715310    9.66339060832473
C         6.60801720932338    1.24009467666068    7.86972086028649
F         7.64564030382163    1.56037902061052    8.66595357313970
F         6.06339007147274    2.41856382223112    7.49130365497350
F         7.13952981992836    0.71428961840947    6.74420083068009
C         2.18607250129434   -3.64850582206934    9.38830966723365
C         1.77453904986253   -3.86844970822108    7.93201698869368
H         1.96336826214794   -4.90337053708840    7.64984274189335
H         2.37046424527957   -3.22944531304346    7.28546247954649
H         0.71699972053725   -3.66939677348961    7.77313632449521
C         1.27200584704035   -4.47236221841641   10.28876587766097
H         1.24812318591891   -5.50001220587929    9.92693074439452
H         0.25291273932496   -4.09025130508325   10.27575799447932
H         1.63053904302791   -4.49553745167905   11.31344590315893
C         3.64233424980243   -4.09450795973263    9.52605062112869
H         3.74928230881864   -5.13253079466270    9.21542920091724
H         4.00593777887572   -4.00774070715108   10.54443944049845
H         4.27851550278561   -3.47822642027858    8.88868826955712
C         2.00583581752664   -1.40955495471945   11.54551025470019
C         3.15695037943024   -2.09559122420855   12.27986826941388
H         3.21595374017794   -1.72666379548448   13.30287839488777
H         4.10220834763721   -1.87671226909913   11.78810576068404
H         3.02504366605566   -3.17284958572277   12.32590487079250
C         2.21583880353866    0.10593028354054   11.66011974538751
H         2.49106492489306    0.37152288251023   12.67909887096499
H         1.30724709810747    0.65025381364099   11.41338310313794
H         3.02820746447500    0.43259793877238   10.99625661611383
C         0.67290503542820   -1.77596728285643   12.19667390590495
H         0.65000821258323   -1.35783182708432   13.20258551575602
H         0.54294204679839   -2.84916314770913   12.28376873565977
H        -0.17349062114261   -1.36809117771569   11.64928796730897
C         2.56288503576621    0.06416848433925    5.50404086858277
C         3.23875360581194   -1.31316816691466    5.50322736896624
H         3.82595948531376   -1.44336962585641    4.59613886196902
H         2.50347155357880   -2.11382469776331    5.53589784639246
H         3.91945581829989   -1.40793680397198    6.36052282807084
C         3.60132349396803    1.09220169313622    5.05686058219333
H         4.02391203865254    0.79880757308867    4.09695877420463
H         4.41354246941917    1.14656644052435    5.77855532946137
H         3.16854185743606    2.08140062124428    4.93740662164952
C         1.38943942558530    0.04035865026365    4.52553683194071
H         1.74624151460557   -0.32315775061675    3.56232308442775
H         0.96851647759089    1.02751704067805    4.36891378087334
H         0.59633676868949   -0.62537376989456    4.85753218707527
C         1.51581070439305    2.16673020054412    7.54880131081662
C         0.65079626066971    2.71239519248037    6.41783497790148
H         0.23089607162494    3.67091802467876    6.72192188496197
H        -0.17657977057630    2.04213560936269    6.19213115793436
H         1.22877914635394    2.88144669398751    5.51426454654813
C         0.70826236347838    2.19530405733238    8.84705166993444
H         0.50002892588538    3.22716486621610    9.12672198078615
H         1.28850413023480    1.74084138397729    9.64591499314214
H        -0.24474027960170    1.68082135015280    8.74532852407030
C         2.75647703157146    3.03520989450903    7.76090425875141
H         2.46535563612613    4.04261319894623    8.05368966152584
H         3.36746017748097    3.10749693086375    6.86745361720420
H         3.37256826011613    2.61164375973884    8.55566598658676
C         0.52003396452225   -1.20605785432647    9.01882973712825
H        -0.21899820762748   -2.01019154649185    9.07221161345263
H         0.18524010838821   -0.40237924799725    9.67537829100561
C         0.62349967465469   -0.67626497934935    7.58403393687995
H        -0.28512551252491   -0.12992662136612    7.31648122769040
H         0.72095551639858   -1.51696996137422    6.89644270966438

