65
CSD_code = APIKUH | q = 0 | S = 0 | Stoichiometry = C22H36Cl2FeNP3 | MND = 6
C         3.55279722309295    2.04457919117158    0.75567778336660
H         3.59038126755261    2.27425629909998    1.81693237693141
C         3.45678018159800    0.70861103692484    0.27555505436966
C         3.38002904188305   -0.43007258166921    1.07892865796518
C         3.28545056639579   -1.68368095111129    0.51652752939476
H         3.22453191764325   -2.56149276642551    1.14043334396033
C         3.26683068659410   -1.78924433617168   -0.86991768676555
H         3.18848904494809   -2.76992004882202   -1.31954435552992
C         3.34668693627623   -0.66552523865136   -1.66962904856023
H         3.33047031334574   -0.78821839549361   -2.73901980057537
C         3.45010111781674    0.61810025695039   -1.13833104497782
C         3.74467816850510    4.30101126572639    0.27914536291179
C         4.77549165342702    5.09869002967203   -0.20842441283653
H         5.47927581348749    4.67067623517088   -0.90247891302916
C         4.88781229085779    6.41533869103487    0.19037071496208
H         5.68947024390303    7.02389200798386   -0.20067591545524
C         3.97404503363693    6.95746291989823    1.07901213658520
H         4.05615388764313    7.99088110334192    1.38131188680222
C         2.95394375371691    6.16702949627258    1.57863391193301
H         2.23835714705644    6.57906185473038    2.27558300778547
C         2.84224186635120    4.84537657971406    1.18900658074254
H         2.04010593668546    4.23573360035788    1.58100644792588
C         0.62834084909630    1.95679161487117   -0.10511133781685
H         0.88890146069772    2.75634683664359    0.58325056127092
H         0.94682673067484    1.00455789906393    0.31256762409875
H        -0.45431278807920    1.94678633738938   -0.23722225803657
C         0.45074482259354    3.74490522060915   -2.19375737075027
H         0.68979849659900    4.06823261409743   -3.20246846117543
H         0.77559733684665    4.53173658114549   -1.51142375177210
H        -0.62220479060526    3.58147643402001   -2.09128707210789
C         0.49384467187287    0.89286431858371   -2.61546416359606
H        -0.58144672997540    1.05448528013029   -2.53849266483404
H         0.75831688799297   -0.04367006992741   -2.12615499384493
H         0.77818663555116    0.82757496575290   -3.66090711515052
C         6.46785526094378    1.81438268206814   -0.19121333060296
H         6.01648812151583    0.96982355360736    0.32549094750194
H         6.33019646735638    2.71369736171567    0.40697831578317
H         7.53465728583892    1.62726823936316   -0.32018126529783
C         6.34932267051897    0.43630840381583   -2.55699606914249
H         6.07908386758603    0.34011041393820   -3.60492752171031
H         5.89981981750205   -0.38702351636609   -2.00540664034284
H         7.43382196138092    0.39797351208078   -2.45411076383757
C         6.89848145980990    3.23758598646650   -2.56566005012610
H         7.54660602690823    2.77008023747317   -3.30518130736463
H         7.51294691816696    3.65978660940321   -1.77149326538868
H         6.33730969413377    4.04077424043058   -3.03987312763292
C         4.90607050481549    2.60641774613564   -5.14269085759267
H         5.83631706627630    2.12691456074517   -4.85121888286987
H         4.97493311523083    3.67452311006393   -4.95160632205559
H         4.73167562549410    2.43955618519409   -6.20588711249520
C         3.38518870855216    0.29140294035848   -5.01457990267769
H         3.39765610587624    0.42954767730511   -6.09563409358649
H         2.46832343236652   -0.22386282903034   -4.73735086291177
H         4.23244290136740   -0.32908020470827   -4.73150166972072
C         2.18140312772053    2.79449062691994   -5.15982988729093
H         2.30202044301855    3.86602495813364   -5.01667111382836
H         1.18194732265447    2.50188492901946   -4.84911526795823
H         2.31279484734237    2.55292839915941   -6.21489963553710
N         3.63753520451992    2.97017945227994   -0.14227270342602
P         1.40005263991534    2.23807581142599   -1.75181455224511
P         5.70351525745643    2.00816713740277   -1.85561996889754
P         3.48804360625465    1.94372060013324   -4.18019207584643
Cl        3.57405716515502    4.37846080086644   -2.77425214568886
Cl        3.39410876372305   -0.27495213906548    2.81477817546468
Fe        3.55810693491456    2.33809823157671   -1.98379965686824

