32
CSD_code = APIMNI | q = 0 | S = 0 | Stoichiometry = C10H13NNiO7 | MND = 6
Ni        3.30366922326246    6.96343037233725    3.65358705398888
O         4.34064550362135    8.08330899517300    2.62998834244346
O         2.42451604944333    5.80947435108840    4.78097990384226
O         6.18053405237309    9.31234144140927    2.72023289324492
O         2.52011833645449    4.97316828086004    6.82916242902480
O         4.57804951636874    5.13353100137395    2.85674496703805
O         1.81337772860532    6.82295652761720    2.18698779330641
O         2.07228009718057    8.82907838316788    4.51653221634730
N         4.75290941293261    6.97687380983965    4.95871886514244
C         5.33613407785569    8.61778939830298    3.23871131354995
C         5.35686822854890    8.31364196963250    4.76699184416413
C         2.90296004842315    5.73385620911734    5.96951204925066
C         4.04316151336177    6.76123025048567    6.23873980444918
C         5.75011045205952    5.94596954672498    4.76199579251772
C         5.64180014116715    5.03727084846070    3.70676997678187
C         6.60837800030707    4.05406216920155    3.53474448439433
C         7.68068957622121    3.96610423286963    4.40098683923647
C         7.79474642997906    4.86332797164976    5.44820223298859
C         6.83541911906109    5.84289921169417    5.62314684024712
H         4.72565117964222    9.06652414542284    5.24619443668935
H         6.37212584516157    8.38199326119329    5.16769790146721
H         4.70468597485595    6.41447500630097    7.03755352410210
H         3.56077912925418    7.69316788922988    6.54492409692898
H         6.51233156574663    3.35653368535299    2.71376612906549
H         8.42447005376759    3.19824116320280    4.25711531013123
H         8.62879724888805    4.80216955712951    6.12917322622278
H         6.93324515515988    6.53830659479693    6.44333987655268
H         4.63802947537018    4.44632778573704    2.18184121662137
H         1.49939562928858    5.91750761406076    2.30477130891069
H         2.32294731216748    6.87484219957338    1.36866101259700
H         1.20659552982546    8.41849974039901    4.61723187538942
H         2.04087839364615    9.37729638659604    3.72489444336166

