81
CSD_code = APINUJ | q = 0 | S = 0 | Stoichiometry = C38H32FeN6O4 | MND = 6
Fe        0.00001347669621   16.51599434073988    8.82847367496135
N         1.50164140988941   15.75419363792618    9.71010650572612
N        -0.61395698503025   14.74084489699765    8.94285888018889
O         2.58404848081792   16.46224481414239   10.12081100991307
H         2.35865377501856   17.43519474677990    9.80266843385746
O        -1.73062197005906   14.37200530824236    8.40217657514072
C         1.37215203677823   14.52034069490378   10.06603050459275
C         2.30760235227550   13.80442543203767   10.94607300809383
C         3.68215093035849   13.86231892384363   10.73566932527089
H         4.06987293081119   14.42708340997932    9.90214159752798
C         4.54449918121273   13.19307994773815   11.58441703092721
H         5.60958216899776   13.23878040265038   11.41047239775509
C         4.04789381307083   12.46799047906966   12.65413161255835
H         4.72345689497550   11.94618154524859   13.31592451941741
C         2.68125022461334   12.41768371615349   12.87700656278718
H         2.28964064721358   11.85949479123984   13.71481524481003
C         1.81429742750810   13.08016491093127   12.03017834639427
H         0.74984201404559   13.04867407617641   12.21031283599596
C         0.16093452300146   13.90374300406837    9.56989310103920
C        -0.11071009719019   12.46806538432989    9.72354140983059
C        -1.38543264243951   12.02388633780565   10.06754298800148
H        -2.17436505925901   12.74354725157972   10.22167183977473
C        -1.63985172623457   10.67298247237640   10.21179671999757
H        -2.63164446600661   10.34077623887245   10.48260162267299
C        -0.62961108526079    9.74747078343984   10.01302602289717
H        -0.82913924949498    8.69221324571663   10.12953122059372
C         0.63742327696699   10.18000979886731    9.65618844759401
H         1.42703883560516    9.46152265301619    9.48951494388764
C         0.89693104469339   11.52846910605048    9.50824846057762
H         1.88233395110862   11.85920058657624    9.21454232789426
N        -0.80277162492830   16.88000512271892   10.56200490019274
C        -2.02641422367304   16.43595713418684   10.84822201342858
H        -2.55974203409961   15.94190027856207   10.05084691109192
C        -2.60928409622694   16.57497009819497   12.09389588600959
H        -3.60077053855913   16.18812474824901   12.26906237208302
C        -1.89989866911105   17.21042981998594   13.10169378884057
H        -2.32096897600117   17.32894367265308   14.08839381701840
C        -0.63627512472753   17.69302681365046   12.80085791759926
H        -0.04289129731486   18.20472309546520   13.54165870074778
C        -0.13214599787051   17.50800825066634   11.52618962575507
H         0.84442221624694   17.88832744880689   11.26902202925516
N        -1.50159169047773   17.27778751953012    7.94680049075812
N         0.61390018332218   18.29117338016392    8.71424432495273
O        -2.58392212749529   16.56970791389510    7.53593268550875
H        -2.35837617656204   15.59669064273837    7.85373216078004
O         1.73045618516304   18.66004160163421    9.25513929299835
C        -1.37214039942986   18.51167213542134    7.59096053771968
C        -2.30754686687052   19.22757257228859    6.71085900140240
C        -3.68211027940930   19.16959772628683    6.92114472231736
H        -4.06987329698876   18.60478109382224    7.75461663288130
C        -4.54442360684536   19.83884205959495    6.07236563196405
H        -5.60951702033982   19.79308295113371    6.24622759120276
C        -4.04777182430096   20.56401182663306    5.00272799961997
H        -4.72330987639444   21.08581796399043    4.34090737292989
C        -2.68111269068534   20.61439544192990    4.77996292790630
H        -2.28946653283280   21.17264563992415    3.94221137326373
C        -1.81419458939928   19.95191027597041    5.62682465819366
H        -0.74972714329549   19.98346184297951    5.44677227642634
C        -0.16098017821786   19.12828936375305    8.08721515042371
C         0.11063414929365   20.56397941106279    7.93363190986300
C         1.38537120244579   21.00821431230690    7.58975092069335
H         2.17434774290359   20.28858894661745    7.43567650564344
C         1.63975068123704   22.35912974493457    7.44553415876523
H         2.63155338676602   22.69137895883194    7.17481739349097
C         0.62945435799619   23.28459948994890    7.64422076253710
H         0.82894824809823   24.33986617714366    7.52773758909123
C        -0.63759367021860   22.85200472525561    8.00093960433270
H        -1.42725228980973   23.57045747445474    8.16755346978114
C        -0.89706282433455   21.50353348543765    8.14883708370710
H        -1.88247895674648   21.17276087053820    8.44245053953026
N         0.80280373984416   16.15196500807020    7.09494202902314
C         2.02635805399234   16.59620573828703    6.80863262975220
H         2.55963007358718   17.09042165059885    7.60594584162520
C         2.60920200931447   16.45718253168709    5.56295043902083
H         3.60061448633895   16.84418030982943    5.38771090096715
C         1.89988886501406   15.82150073693202    4.55523953750487
H         2.32094596381972   15.70295668044829    3.56853957772630
C         0.63636290649304   15.33870161775233    4.85617129957939
H         0.04304147717138   14.82683099850864    4.11544320639473
C         0.13225281491892   15.52374923025993    6.13083986931354
H        -0.84425023548212   15.14331052876409    6.38807476770772

