46
CSD_code = APINOE | q = 0 | S = 0 | Stoichiometry = C18H24ClN2Rh | MND = 8
Rh        7.05849072661607    5.42649773809133    5.58494794617097
Cl        8.45341929198132    5.33311550999584    7.42618277943658
N         8.72221986832598    5.76119662025937    4.45957679064783
N         9.33383832834124    3.63970985827673    3.81192817979394
C         7.44267731714761    3.45591344312986    5.38625993443585
C         6.66911857014746    2.57863490755845    6.14314763254082
H         5.97329177289579    2.97851902482614    6.86829267750218
C         6.78429076602367    1.20322691998027    6.03157436883616
H         6.16614371423292    0.55975567218002    6.64047744519280
C         7.69617412780002    0.65751948571424    5.14626302157517
H         7.79071294777550   -0.41287148209040    5.04006712998558
C         8.50876989905368    1.49983523348292    4.41529335242392
H         9.24950658800240    1.08748923794982    3.74145463622983
C         8.40085136075970    2.88331936490276    4.54464225998136
C         9.53123716375194    4.96542137124649    3.85490962697715
C        10.75298208098386    5.45488812073851    3.12492455255032
H        10.78692100126755    5.04652473037074    2.11641494974236
H        11.64727764352081    5.13290714049849    3.65697184714136
H        10.76207543861714    6.53983236187433    3.06501378538204
C         5.44011244741409    6.18525963046396    4.29603610403569
C         5.93384963197119    7.34590581605705    5.01755475643094
C         5.74041364035909    7.11821913789578    6.38350660251271
C         5.12216776139163    5.80961136775085    6.54019486439667
C         4.83431797812537    5.30418432020107    5.23966640656544
C         5.25384192491820    6.11440616985648    2.81121493662424
H         5.18122409906342    5.08120378280713    2.47909313148817
H         6.07905128303965    6.58852351727245    2.28334175814979
H         4.33224403655751    6.62925020324802    2.53037876599268
C         6.42509204251965    8.60647707971293    4.37194358204487
H         7.11732198367798    9.14004370490115    5.02051094565277
H         5.57924469773743    9.26480038084209    4.16204055724084
H         6.92572831093593    8.39698753017786    3.42796865668983
C         6.00064074929918    8.05185529895738    7.52255815752502
H         6.46042000326851    8.97476945438348    7.17788946933647
H         6.66215343725366    7.58704177361568    8.25312967646297
H         5.06110835922287    8.29497279609093    8.02145361569704
C         4.56649550578053    5.32795689945661    7.84663117704314
H         3.75100054870992    5.98218852675162    8.16220918331569
H         5.33404754942077    5.34587127073034    8.61855357349882
H         4.17829356591290    4.31520274841974    7.76661597734696
C         3.96867479193275    4.13436616612869    4.88689066571326
H         3.78487423025024    3.50106655325888    5.75002522983779
H         4.42078442563556    3.52344692049144    4.10775901276895
H         3.00756968036446    4.49987185270960    4.51963610670798
H         9.01341052841132    6.73632888865559    4.45718648111359
H        10.01771817958553    3.09005295018674    3.31006768924130

