81
CSD_code = APIPIZ | q = 0 | S = 0 | Stoichiometry = C38H32FeN6O4 | MND = 6
Fe        3.46501934607108    2.50072337267454    0.00001541015109
O         0.93252408682011    2.96173406956797    1.30871613125178
H         0.78878667364459    2.41604832650719    0.42318181379244
O         5.99138669987659    3.32386278678185    0.84776659186771
N         2.28034550410894    3.10825340499959    1.35299917746972
N         4.72498480147694    3.34455143586478    1.11622170801925
C         2.81860731314065    3.78550420068184    2.31009706409244
C         2.06634459336424    4.44861732121136    3.38621298024989
C         1.08469948834496    3.76235327786662    4.09526895205701
H         0.87780181690452    2.73082102954365    3.85500613978389
C         0.38700303797889    4.39507235032323    5.10729138403853
H        -0.36844186382868    3.85308002038037    5.65710387208041
C         0.65422558845508    5.71779011826061    5.41713283971704
H         0.10782955198462    6.21015101309355    6.20811214616355
C         1.61896098930585    6.41099801297193    4.70414868497903
H         1.82537886231048    7.44527457299760    4.93756809619303
C         2.32285210612719    5.78299407284393    3.69489919794967
H         3.07124100633306    6.32548047937250    3.13630246552070
C         4.25756462755288    3.88912355137141    2.20204066281526
C         5.08335618418859    4.50965942302168    3.24685713505543
C         4.84698495221450    4.23468807100821    4.59330762659381
H         4.05598823711233    3.55275359080422    4.86903762610359
C         5.62660405147099    4.81882872462145    5.57237400992484
H         5.43209430865078    4.60045808773774    6.61253493253772
C         6.65678818235858    5.67777330028288    5.22507430460571
H         7.26392746552617    6.13424310832336    5.99315473404404
C         6.90919185894658    5.94187919393747    3.88973337739159
H         7.71600977908846    6.60501961249974    3.61307940814713
C         6.13050329460525    5.36243899765404    2.90564828694769
H         6.32923507960162    5.56826624232175    1.86538579897325
N         3.21814777504971    4.16611973515625   -0.96996727132278
C         2.00663208001288    4.63116861173332   -1.26969729629449
H         1.16600879801467    4.02716660806027   -0.96525063715182
C         1.79884395228059    5.81900035249664   -1.94724800807835
H         0.79314072238969    6.14423813452887   -2.16059341064203
C         2.89456026630751    6.57095142105604   -2.33991077220713
H         2.76944754325661    7.50352789633468   -2.86869032847290
C         4.15740463480818    6.08713694670595   -2.03385174674415
H         5.04568542938313    6.62953660393932   -2.31702962211520
C         4.27018969668834    4.88920852934667   -1.35342773352324
H         5.24345615870386    4.49881700191560   -1.09878405103006
O         5.99755055939903    2.03935111012618   -1.30848371295468
H         6.14117346259904    2.58618195683037   -0.42361856941197
O         0.93866345862496    1.67740042926735   -0.84763062996267
N         4.64971086056861    1.89302764241956   -1.35288415732926
N         2.20505288807897    1.65683512517687   -1.11615590209738
C         4.11143638592922    1.21574751709438   -2.30995347462949
C         4.86366973340206    0.55241188430918   -3.38594472213713
C         5.84556843120183    1.23837802431338   -4.09494046645912
H         6.05269103789317    2.26988146770830   -3.85474358903588
C         6.54326844752845    0.60537734302213   -5.10678620564559
H         7.29893057286216    1.14712624597577   -5.65654304026327
C         6.27577885676712   -0.71731520294074   -5.41651380954655
H         6.82217344788018   -1.20989632617151   -6.20735671782524
C         5.31076564545053   -1.41021400954641   -4.70360278622618
H         5.10414525631780   -2.44447223151363   -4.93692215186291
C         4.60687988714181   -0.78193373938149   -3.69452661966743
H         3.85828384775346   -1.32417882181084   -3.13597046585402
C         2.67245360258058    1.11240068475476   -2.20205358058612
C         1.84663538826622    0.49228754761446   -3.24710840549140
C         2.08325495646549    0.76747340986857   -4.59347933492918
H         2.87447562288536    1.44925404546274   -4.86897098799904
C         1.30361649313439    0.18372256081578   -5.57277122922876
H         1.49833768113327    0.40223236699541   -6.61286666465458
C         0.27314947062484   -0.67501853909382   -5.22577770381818
H        -0.33401095838614   -1.13117908103566   -5.99403014373522
C         0.02048650356094   -0.93931056537844   -3.89051939543769
H        -0.78655981343224   -1.60228200019798   -3.61410350990008
C         0.79919984947357   -0.36027028299580   -2.90621212998497
H         0.60025049864667   -0.56623126248803   -1.86601540957059
N         3.71186841519767    0.83531394639894    0.96999487942313
C         4.92337817857813    0.37031282718403    1.26983701519858
H         5.76399956433673    0.97437220177329    0.96550890574746
C         5.13116664805489   -0.81752438278286    1.94737864200944
H         6.13686626613227   -1.14271308133681    2.16081752380207
C         4.03545477539926   -1.56954242821384    2.33992112710574
H         4.16056789302607   -2.50212497713073    2.86868938330441
C         2.77261467441851   -1.08578546430100    2.03375195677171
H         1.88433802113941   -1.62824548797704    2.31682500662003
C         2.65983123363270    0.11215274802076    1.35334196816133
H         1.68656757510452    0.50248318836362    1.09859742717280

