31
CSD_code = APIRAU | q = 1 | S = 0 | Stoichiometry = C10H16AgN4(1+) | MND = 2
Ag       12.08278034276552    6.54718504406001    7.30645657900596
N        13.72941326067575    7.74794818787835    7.99651779625953
C        14.53985874868673    8.55680420848519    7.33371461355276
H        14.49755332924767    8.73822711206997    6.27643414697649
N        15.42492089005374    9.13657644962309    8.15087255132358
C        15.17845045726011    8.67125931922957    9.40609191742667
H        15.74899922493600    8.98085479727693   10.25676222402810
C        14.12506803103898    7.81350763296746    9.30357969129081
H        13.63430864322598    7.24941750804400   10.07299402430472
C        16.49458357853545   10.03083638952366    7.77550118607795
H        16.60474091421392   10.78390231614141    8.55950864692981
H        16.21547042991677   10.53098588788321    6.84556773838252
C        17.80421747266366    9.26873511474528    7.59305130915559
H        18.08204892021072    8.75660014217279    8.51100935638822
H        18.59652581689216    9.96400997828686    7.33275773131305
H        17.71355499598940    8.53296248772383    6.79751226806797
N        10.42030349364691    5.32487692149155    6.69777837707654
C         9.72801714687141    4.46504672933673    7.42749883161419
H         9.91035785377734    4.24990150862649    8.46344375510682
N         8.76463113460865    3.88021598150629    6.70862138441836
C         8.83294397525508    4.39564174533231    5.45075128043582
H         8.16797824726157    4.09475585476616    4.66837919576664
C         9.86279811775223    5.28791009103399    5.45058422629672
H        10.23374535385213    5.89339430443373    4.64680192157663
C         7.78532166051212    2.93459746572381    7.18963956036014
H         8.22579728477757    2.37342023059747    8.01680789470883
H         7.55130270998026    2.23984905339619    6.37987935232242
C         6.51782900796615    3.64756336427356    7.65242325964150
H         6.73705599342685    4.33001795813946    8.47019264197051
H         5.79410148644254    2.91545685155357    7.99759293682972
H         6.07512147755708    4.21293936367658    6.83607360139183

