47
CSD_code = APIYEE | q = 0 | S = 0 | Stoichiometry = C16H24Br2N2O2Zn | MND = 4
Zn       -0.26317196711407    3.71955704821459    6.58570778836431
Br       -2.34548273104533    4.24496260967407    5.57641038692119
Br        0.36742666864349    5.52736868863974    8.05029940328964
O         0.90477319452088    2.63465936180896    5.70036416671322
O         2.19071325150734    1.51749892953867    3.76922229886936
N        -0.81344206819315    2.31527071512858    8.02059460543874
N        -2.57409662781527    4.87327541930658    9.27504678584454
C         0.17175215638452    0.55916932535573    6.64419225785922
C         0.85786153605532    1.35535970064766    5.68533613831939
C         1.57309930987564    0.67343829629660    4.63675128478475
C         1.58422020038065   -0.69514185462888    4.56630645847200
H         2.11434191533036   -1.20378872617583    3.77631370378733
C         0.90510085435323   -1.46310388846426    5.52533797814154
H         0.93192518030367   -2.53911655791407    5.45036247708377
C         0.22566598273934   -0.85383558315511    6.53450129800843
H        -0.29809191072228   -1.44400301851664    7.27329353846988
C        -0.54805059702593    1.08068023220858    7.74591641809226
H        -0.90740552044023    0.31962910306764    8.45068914862969
C        -1.49012533062618    2.59170714224955    9.26927653750013
H        -0.78803813415969    3.13492097317661    9.91223190219143
H        -1.74620803501327    1.64912173922583    9.77335187276790
C        -2.77303999036288    3.41947206719808    9.08306930900374
H        -3.15123743694620    3.25818989619405    8.07081984138027
H        -3.53562721316697    3.08924596473306    9.79187333212819
C        -2.44839141193937    5.24659636801269   10.69821270982169
H        -3.40939027789410    5.05825530186307   11.18591503716899
H        -1.68732300787848    4.62163505679925   11.16545052990210
C        -2.05892134153134    6.71383703624990   10.82359056128105
H        -1.96378162237539    6.96517821425773   11.87940555261478
H        -1.09075430458641    6.86698840419538   10.34475215175779
C        -3.10751243529870    7.59439912254686   10.15385267084081
H        -2.79583004736175    8.63632193771076   10.19561280539028
H        -4.06124646482950    7.50639052781552   10.67919520280022
C        -3.27044526836229    7.15569883865682    8.70368238605470
H        -4.04951626582431    7.73349749017466    8.20914637623696
H        -2.33599313150400    7.31983025375647    8.16667602350715
C        -3.63484578461428    5.68012488232710    8.63027691081102
H        -4.57803176524648    5.48332265013707    9.14584191677331
H        -3.72270193585156    5.37328905244018    7.58590506256471
C         2.90597040874891    0.97273870569691    2.68319080538379
H         2.23743623458583    0.36239484815805    2.05815804347972
H         3.72122561687612    0.33209345312249    3.05114546722953
C         3.46995767890114    2.13064840867787    1.87459523225611
H         2.65957829933000    2.75735668913374    1.51227527397209
H         4.03667137573600    1.75164744604452    1.02856165964987
H         4.11991900523714    2.73596110009885    2.50066595676099
H        -1.66413624201642    5.15355662838020    8.82192273158619

