38
CSD_code = APIZIJ | q = 0 | S = 0 | Stoichiometry = C15H16NO5Re | MND = 5
Re        1.77994580899685    7.01844365000076    3.20636325416405
O         2.45467976585304    7.81476333733785    1.90374131313925
O         1.46720101003587    8.05069545166648    4.47821734337248
O         2.90625823901228    5.19170517067811    1.73236375212967
O         2.31034956417395    3.63632930931953    3.77991118949912
N         2.67210386936030    5.81116820661749   -0.76252069707713
H         2.89678527857887    6.03155665084042    0.22991308655525
O         0.62729342227734    5.81890958056397    3.10689611995620
C         2.91043764896910    6.78607835240303   -1.72257904160980
C         3.48876567490356    9.07624653897919   -2.17647327310783
H         3.73003606437866   10.06589465163889   -1.81978208976342
C         3.12776747168375    7.54993998927203   -3.99000532651129
H         3.09381238273656    7.34610461737665   -5.04985197481077
C         1.23495744570740    2.05547108508321    2.28247314812831
H         0.94724916580827    1.38583418352257    3.07805764806050
C         1.21913438110169    2.51904597777702   -0.07808222214884
H         0.95616276689576    2.25626355817281   -1.09207783845102
C         1.88889566051668    3.75021937778109    0.14883107560620
C         2.86504303545659    6.53143552007974   -3.09299053491117
H         2.64305001465363    5.54201066801481   -3.46227309006926
C         2.10659180415559    4.63315225334328   -0.91166942491684
H         1.76297222924121    4.34545064632736   -1.89983766715110
C         0.90008448784575    1.70199034468305    0.95976897565112
H         0.37909348876234    0.77279888032357    0.78831143712429
C         2.27985526403525    4.11750899344290    1.48622403164344
C         3.43758140359269    8.82240213017717   -3.53866559994883
H         3.64118565844421    9.61151046327017   -4.24623477620595
C         3.23215141735382    8.06689135793026   -1.27009175557633
H         3.25473005875131    8.25583942076875   -0.20728148526938
C         1.91354376034589    3.21307118121216    2.55198162739522
C         1.81231591705002    2.95730807084418    4.90653517331134
H         0.71852725699622    2.94783279449522    4.91142053568908
H         2.17114079494422    3.51149449601423    5.77193581884715
H         2.18915573444093    1.92936688017860    4.95378354203009
C         3.54065340728293    6.37472580860927    4.36782361947832
H         4.20297814713945    7.23441223448770    4.46211739273658
H         4.05029287253901    5.56182096940778    3.85862863929134
H         3.22071762598806    6.05080719736856    5.35611807371581

