89
CSD_code = APOFOC | q = 0 | S = 0 | Stoichiometry = C40H44Cl2N2Pd | MND = 4
Pd        8.68215815307811    0.48313363861076    3.35972468178467
C         7.11003275876480    2.67666813624269    7.48998474624097
C         7.52922590353137    2.54814853919649    8.79889653485468
H         7.28938185296380    1.65960244516835    9.36341753581078
C         7.41648519075408    3.82625457227747    6.75984792274325
C         8.14221541443959    4.84795065363979    7.33860313792278
H         8.37643695149329    5.73799887887086    6.77414753717327
C         4.40054530636391    4.31329836394012    4.92636561052441
H         4.63854853998598    5.20548964304026    4.36608422806722
C         5.10255045824455    2.38510686398529    6.18832005647819
C         5.40844096835327    3.53486615397912    5.45926623072026
C         7.46764385786745    2.55307104235778    4.73946065372984
C         6.89031256304221    3.81114391988610    5.34122217531449
H         7.12452015574083    4.71118688827803    4.77268579575941
C         7.35693331621352   -0.99086454422409    5.62290243675344
C         8.07965242637082   -1.35815815187235    6.76854946070158
C         8.56731728071401    4.71396139042403    8.65279251913178
H         9.13844831906833    5.50673934586430    9.11136072665264
C         6.46428469969059   -1.86984239584601    4.99433881764920
N         8.15148339675265    2.39021797815158    3.65854980208254
C         9.56802193923780    4.29582869760434    3.16150367487227
C         8.52145994074612    3.43353228140861    2.80017125192618
C        10.32366841365803    4.06127959654006    4.45300195261761
H         9.61184525748908    3.77639188982312    5.23633281151706
C         8.26353194695862    3.57420354722048    9.37654820332078
H         8.59825652167337    3.47986393712000   10.39832335789782
C         6.92164757831607   -3.47073631388108    6.73246807902333
H         6.74536108815468   -4.43997965346310    7.17457316369732
C         9.14404314111523   -0.42975149794992    7.31597825823211
H         8.77528798021656    0.60155533691853    7.26992676826475
C         9.50821915017744   -0.71457623795851    8.77255318108343
H         8.61646644046463   -0.77930408101891    9.39279069591794
H        10.13313093159693    0.09036467773449    9.15420422193787
H        10.06643454433072   -1.64287864912661    8.86171606844412
C         7.84576892059687   -2.61484395539964    7.30404977737189
H         8.39170809104236   -2.93857589463468    8.17499357240888
C         6.24516762671759   -3.10518824286912    5.58460898557014
H         5.55057786614527   -3.79731811332299    5.13741327911290
C         9.27253520461460    5.42088617213867    1.05172969047257
H         9.56314746778031    6.20627824524161    0.37006724742669
C         8.26664571058664    4.54173949961171    0.69898897517138
H         7.78567955982966    4.64664457953268   -0.25967897098008
C         9.93073280927629    5.28448454161414    2.26053075490198
H        10.73989523047494    5.95618487867751    2.49619259430588
C         3.08006524557685    3.93372587890226    5.12143539223519
H         2.28610329883926    4.53543236664054    4.70645792049807
C         5.76236848259041   -1.45886744323403    3.71757864386487
H         6.39878614667627   -0.71536328469658    3.19270419737985
C        10.39729530085317   -0.52067397079069    6.43515657974390
H        10.76482767669716   -1.54384668101834    6.41005154057596
H        11.17896822073856    0.12608650420754    6.82882816070344
H        10.18165443603586   -0.21495343441562    5.39955619989677
C         3.78803800167258    2.01203769148334    6.38503610948485
H         3.55182486539814    1.12446800351339    6.95338291144532
C         5.57649514732432   -2.63074126167268    2.75518247323869
H         6.52609332790456   -3.13936890761958    2.60982483522842
H         5.23374571601452   -2.25992380675783    1.79154912603535
H         4.84018034078478   -3.34126698462511    3.12314241556806
C        11.07289764887514    5.29648902257198    4.95137221153001
H        11.93252853914321    5.51315281311614    4.32262833816909
H        11.43344852676270    5.11882628251675    5.96257083480890
H        10.42116644956590    6.16780706471622    4.96805024114522
C         7.15537373086416    1.37241245054537    5.49075779278962
C         6.80993407468551    2.52159268075082    1.17897662091183
H         7.01189513304819    1.57197981644054    1.71842656144820
C         7.88546890611549    3.51882066129882    1.55377752840656
C         6.31507868707788    1.64990318641683    6.71337521221901
H         6.07138251054574    0.75420175902576    7.28479452370030
C         2.77659406898826    2.79327549155043    5.84412445548368
H         1.74640845747783    2.50750316885159    5.99139389590894
C        11.30125912535709    2.89433587445715    4.26027474410610
H        10.76869403022591    1.96672293305447    3.99915338749306
H        11.86398596153100    2.72235839201314    5.17575435569714
H        11.99695321534689    3.11668695089489    3.45450201759662
Cl        9.87224999817835    0.86471662813906    1.50965707923441
N         7.59037107502332    0.25293092614339    5.02189540225404
Cl        9.20541438096868   -1.67492103574141    3.13034029148517
C         4.41861184435943   -0.79760719723861    4.03793934691093
H         3.77905011619232   -1.49032686424827    4.58229145600003
H         3.91216408361591   -0.51090166479514    3.11879058280277
H         4.55422899740859    0.09615426535416    4.64449454252303
C         6.81944598606321    2.18741926636672   -0.31155792239350
H         6.15743444300120    1.34507794054185   -0.50017442775574
H         7.82432931612554    1.91017501079014   -0.61911506814424
H         6.47664556799004    3.02514440868537   -0.91401480853388
C         5.43357242444681    3.03491743235330    1.61254954177589
H         5.38850285677101    3.18048245534388    2.69029552659039
H         4.66110136815994    2.32156181578810    1.33367954431210
H         5.21681139433431    3.98480479082067    1.12700148096509

