64
CSD_code = APOTOO | q = 0 | S = 0 | Stoichiometry = C33H27ClNNiP | MND = 7
Ni        7.68067635817937    7.73366537653350    9.77538352452771
Cl        6.81645606795170    8.49454011074685   11.51676619389215
P         7.20133895999316    9.48009478683649    8.62629030881430
N        10.14658335881041    3.93441476915935   11.77539988991777
C         8.12053377504125    5.88056508593620   10.53851234110992
C         9.20502773462734    6.32448584533515    9.74357076521576
C         8.72907892268668    6.56413302232653    8.44375335607324
C         7.39753869685466    5.98705903574092    8.33192843199644
C         6.54745122793749    5.79386629306207    7.24880565626153
C         5.33016629973325    5.17281697926535    7.46968482016881
C         4.95104667966227    4.76109441361885    8.74435725973463
C         5.77723419962698    4.95203042145334    9.83883534604833
C         7.01367979614988    5.55758267506598    9.64093400600613
C         8.24503423467610    5.39756985560450   11.95401845253113
C         8.82759416128161    4.00963266403809   11.89407554487671
C         8.02025682219131    2.87608312225895   11.91280078083362
C         8.61702656303443    1.63168732524928   11.80987215793976
C         9.99595735227961    1.55774644566573   11.68897079714817
C        10.71093556276079    2.74503851501800   11.67814335582533
C         8.06587406913649   11.03854272093029    8.98239051298354
C         8.09388714229284   12.08679427627959    8.06595701052323
C         8.74294487577091   13.26427767296574    8.38869646208900
C         9.36795441992954   13.40176383838490    9.61847332077834
C         9.35019443210250   12.35680392002444   10.52734072413927
C         8.70306425217559   11.17578187308061   10.21051330493809
C         7.39130993782845    9.33778624896543    6.81813520813912
C         6.32273998179845    9.05350715624660    5.97699752575046
C         6.53970063016218    8.86957706663708    4.62189690878960
C         7.81962205118453    8.95786320995939    4.10121093644733
C         8.89107378830668    9.22867276402760    4.93915172799527
C         8.67922022868097    9.41048983061840    6.29178229217288
C         5.43316188299711    9.88299897420316    8.80153309566423
C         4.57258122788941    8.80685737668428    9.00363973804790
C         3.21186927673201    9.01555103631920    9.11606079398438
C         2.70370200289173   10.30260331873344    9.03590932043610
C         3.55835141672070   11.37589098367508    8.84810759830814
C         4.92252692822851   11.17183789784041    8.72971466226511
H        10.21525070481444    6.46063921593631   10.09732100605737
H         9.33220244794461    6.84274686316830    7.59122140928999
H         6.83600270101867    6.11897561932596    6.25889556653205
H         4.66095362104469    5.00352676356783    6.63873385598315
H         3.99256787753028    4.28176805450341    8.88071569928400
H         5.46184095843832    4.64272418649636   10.82453604074328
H         7.27195803309408    5.39303296971779   12.44537272984390
H         8.92513774746022    6.04785247873670   12.50587990033728
H         6.94975212929919    2.96833015150310   12.01160433952091
H         8.01639584213062    0.73307856213579   11.82446935569057
H        10.50055843309140    0.60757469680265   11.60727137047282
H        11.79014906557649    2.74879291839883   11.58969023562882
H         7.61711666476707   11.97469887891653    7.10150728158670
H         8.76186084273379   14.07827215648427    7.67848372191766
H         9.87264490244833   14.32451276283600    9.86435460109600
H         9.84224036797355   12.46141285321212   11.48263232467966
H         8.67838801985909   10.34943293351172   10.91038885107216
H         5.32420480078451    8.97735420144530    6.38338479612267
H         5.70537688891992    8.65218377305963    3.97086249265387
H         7.98487086490675    8.81135485985867    3.04401607984170
H         9.89110308791973    9.29214494527750    4.53526389313075
H         9.50940896780217    9.61582050567827    6.95597666738147
H         4.98774212646482    7.80640589734174    9.08785057811375
H         2.54867937650635    8.17818057915904    9.27434592705477
H         1.64089183408245   10.47018527150112    9.13021277345660
H         3.16178788422519   12.37949466018966    8.79826841992558
H         5.58641849083143   12.01329633272079    8.59612595021636

