90
CSD_code = APOTAA | q = 1 | S = 0 | Stoichiometry = C42H35F5N3O2P2Ru(1+) | MND = 8
Ru        6.14309529049891    8.68051608463348    3.39800654218238
P         4.09437257073458    9.63803294960578    3.19446374444165
P         5.96239573123249    9.32193888488453    5.58351479263800
F         0.90533344427836    7.77066401850180    6.27087211776129
F        -1.30345728849704    8.30791917517321    4.78830468772604
F        -1.94782951258813    6.70403957204117    2.68062674310796
F        -0.33566867132594    4.60651794199741    2.02987730512117
F         1.88514231154777    4.09803593216592    3.51547338813008
O         4.01701387216905    2.98519322435385    5.69406288272961
O         5.63268537331870    2.84883330258975    4.13658232654296
N         5.25606669005110    6.99166370016762    3.95500511892532
N         4.13899401872666    7.04409575776244    4.61771220667964
N         3.82638104554137    5.82043655344254    5.01107504383248
C         4.75668602761518    4.93950834282342    4.57625724057422
C         5.67657892608416    5.71045931494416    3.89111855927357
C         4.74077015690052    3.48932221833554    4.87255606341508
C         5.71001931476497    1.43611026898810    4.32719100557884
C         2.62999605450963    5.58057449243970    5.77557956075061
C         1.40817296518908    5.89233771868853    4.95180139454370
C         0.58751082440685    6.97361294745767    5.24645625917049
C        -0.54789541259504    7.25490442611319    4.49368926439853
C        -0.87391546953564    6.44019782965501    3.41275828278637
C        -0.05113873154281    5.36513765084956    3.08268675322481
C         1.07882940277910    5.10916647867721    3.85006314872398
C         3.38228555707868   10.10830628096978    4.84303264872925
C         4.49583740449994   10.42582698736969    5.83468131718662
C         2.72903320775393    8.75516456631425    2.38346114409572
C         2.99910789443650    7.60175487788135    1.65643331944859
C         1.99920456172909    6.98979302538598    0.92056348577505
C         0.72735486243515    7.53886528793817    0.89640418791179
C         0.45165964280810    8.68846756263040    1.62276728945532
C         1.44601325284985    9.29634818876752    2.36671606948722
C         4.11867455638782   11.17421464823129    2.22329728502119
C         3.89307884721651   11.10700335458229    0.84961926479894
C         3.99188139826443   12.24506521290331    0.07120255325243
C         4.32500551989047   13.45826853974142    0.65215208121104
C         4.55998630859095   13.52985079101367    2.01547986998462
C         4.46414524500693   12.39372029884584    2.79850999107344
C         7.26792179452708   10.33690113152947    6.33102873035431
C         7.64196640055775   11.48091084212972    5.62705480601452
C         8.61760625234481   12.31897296390771    6.12931279248050
C         9.23069489590134   12.01725136441828    7.33655435985483
C         8.86392594860744   10.88029858298008    8.03664112250976
C         7.88475266048957   10.03651127474531    7.53950513222025
C         5.78449298546798    7.93636819628717    6.75211571063573
C         6.79732133627739    6.97935350312377    6.67060680905689
C         6.76524694434543    5.85040897245270    7.46572722248265
C         5.71225679831761    5.66105576514344    8.34856575543093
C         4.70288779809695    6.60526424218737    8.43260675636541
C         4.73075997638477    7.73980092062012    7.63579536893064
C         6.85233719325384    9.12178705830161    1.30900623135775
C         7.45531744624235   10.04534987340159    2.21333793400833
C         8.28510895177309    9.30175280053322    3.09291853176461
C         8.15751477922203    7.92854002011880    2.77616350966459
C         7.27416401517171    7.82324652124764    1.66062325747119
H         6.57579386007368    5.39802135552450    3.39856488073878
H         6.49712648608431    1.08594233776028    3.66567696271549
H         4.75674412700031    0.97104376393731    4.07171271102624
H         5.94789673722181    1.20814082473500    5.36734717571105
H         2.65467827141676    6.22011222963564    6.66153536366103
H         2.63472079386640    4.52744183573401    6.07588448128410
H         2.70319224830322   10.95813844877857    4.72986974422349
H         2.81336290919712    9.23718449322746    5.17892436511090
H         4.15099712901368   10.36688575583264    6.87057702868846
H         4.87610369211942   11.44015338782291    5.67951866504452
H         4.00833453092681    7.20427325292504    1.65180218694771
H         2.21348809287610    6.09828412106075    0.35016100469175
H        -0.04735198562186    7.07800234686006    0.30255699331957
H        -0.53775553793612    9.11968320854301    1.59342175886161
H         1.23742362889129   10.20547039859703    2.91193084540488
H         3.62947134797607   10.16080112593817    0.39603463638598
H         3.80940121306794   12.18617832955124   -0.99119292569488
H         4.40262235636790   14.34573492714205    0.04336917513269
H         4.82087580040384   14.47373345578452    2.47001301666934
H         4.65513787414958   12.45921593874411    3.85926624816049
H         7.16302155837214   11.69653227011637    4.67839375036768
H         8.90514355681829   13.20435345679871    5.58239805177672
H         9.99580035768742   12.66893463640342    7.72925384521303
H         9.34131529446798   10.64731593460025    8.97628461747569
H         7.60091558089406    9.15203402906523    8.09093674113995
H         7.61358705539358    7.14469273776680    5.97482188128669
H         7.55723961209676    5.11945731039734    7.40192784841086
H         5.68061113832570    4.78051044546537    8.97093879068387
H         3.88842295176804    6.45994764781645    9.12676095610670
H         3.92945702146270    8.45945961896496    7.70984913323156
H         6.27509688796746    9.38785900439651    0.43415198556254
H         7.45773387120232   11.12077067133637    2.09295687903281
H         8.97373774050775    9.71949088394606    3.81563082673483
H         8.77678384141084    7.13326625255246    3.16940263693207
H         7.08218658808711    6.92329111945075    1.08969876807309

