82
CSD_code = APOVOS | q = 0 | S = 0 | Stoichiometry = C33H42N2O4Ti | MND = 5
C         7.01288444208544    7.27623657156501    8.32201968490293
N         6.71853100835245    7.73157883470529    9.53552134048871
O         8.26014089328369    9.55552669166170    8.08964385863567
Ti        8.65645108031719    7.97709321057967    7.18882982438179
C         5.62246406702778    6.98489211276603   10.16136076365247
H         4.83892590317440    7.67140031914679   10.49027609141679
H         5.99259281077859    6.42714738445288   11.02774134340499
N         6.18411005364463    6.28487720368121    8.00259207231775
O         8.54462613476360    6.25286140839423    6.49507994323721
C         5.16763987542362    6.05494758281216    9.03467664260105
H         5.15817797899567    5.00291147701825    9.32910217910138
H         4.17838151554297    6.32606121169795    8.65220158569836
O        10.01801758681613    7.67376492635890    8.20894370454823
C         6.31359234849983    5.47093033296922    6.87074993063220
O         8.22392584220506    8.68729006731179    5.66549318991165
C         5.28216771867718    4.62864091512747    6.47554859620955
H         4.35372505678843    4.61967075027235    7.02696435577787
C         5.42269649686467    3.80232637428518    5.37561347519517
H         4.60989241562639    3.15663002757274    5.08199074759128
C         6.60955018953517    3.80997679475425    4.66005826902895
H         6.72609522899303    3.16511848013896    3.80192817700801
C         7.64508194683952    4.63710483988030    5.03824551551051
H         8.57455343363931    4.65100578055564    4.48701941028506
C         7.53860089732777    5.49765878054611    6.14458985412050
C         7.38149463084249    8.78969444369674   10.17326318506999
C         8.17148827081004    9.67332243585113    9.38541033689611
C         8.81484118535040   10.72726777733800   10.05592103630418
H         9.41270500586341   11.40075697235960    9.45867166509479
C         8.69419053462168   10.90052430009035   11.41788556457285
H         9.20759633056857   11.71839312864023   11.90156611838877
C         7.91464604269836   10.03381354726907   12.16794279042971
H         7.81376373281313   10.16924201010793   13.23358825207887
C         7.26125310000833    8.98697543704713   11.54314266226310
H         6.65791854785382    8.31558678681213   12.13630766884058
C        10.76786448302082    6.65458846056941    8.75543957559553
H        11.49053559738876    7.09505881016843    9.47379589804809
C        11.54853546932786    5.90852560213188    7.66312683720361
H        12.12418021678092    5.09135882423455    8.09197231224618
H        12.22724695846062    6.59736867638397    7.16317781137397
H        10.84059915375913    5.51464541141740    6.93336826355100
C         9.85629843464852    5.68037822832340    9.52086013132296
H        10.44203766539303    4.89599231004481    9.99545938271541
H         9.15057509854750    5.23236664416589    8.81907147896314
H         9.30636977614497    6.22732835037627   10.28719906314256
C         8.21526569283684    9.58805963638943    4.69552812322236
C         6.97926717773145   10.05033985087502    4.17222129493459
C         6.99636240827911   11.01578147076990    3.18059731514699
H         6.07208371722904   11.39365822220360    2.77525700789381
C         8.17745960209640   11.53097023143799    2.67139354338824
C         9.37621134248667   11.04583913872848    3.16435236235453
H        10.28564576746062   11.44503563423543    2.74636877923261
C         9.43113674253895   10.08070755055091    4.15787224295494
C         8.14773817760937   12.59718724244641    1.61526618526916
H         9.11240730726367   12.68187555454060    1.12054662624581
H         7.90793997090992   13.56367881090081    2.06040440454953
H         7.38853321745195   12.37828640099869    0.86647600537004
C         5.65803138190664    9.48095200974185    4.68652956056556
C         5.64841321600563    7.95993411692959    4.47424186422801
H         4.72452922449141    7.52638920045404    4.85522013093855
H         6.48768991209860    7.49220113829752    4.98457304434759
H         5.72153701749256    7.73135619459329    3.41244721662279
C         5.49430882456045    9.81502195710548    6.17727370611686
H         4.58360708140061    9.35742605700447    6.56462372761805
H         5.42042449846218   10.89355709844310    6.30730613543901
H         6.34770438940656    9.45743761258318    6.75544010555338
C         4.43518863252604   10.04829234728136    3.95334321618929
H         3.53527219725347    9.58323118680375    4.35244297709821
H         4.47856801722493    9.83256453008070    2.88843291413077
H         4.34756595304257   11.12237043258063    4.09813320489325
C        10.77691138922397    9.56533185679703    4.67123016010161
C        11.96517749801411   10.10898841105416    3.86276444547293
H        12.88783735011043    9.68320486602527    4.25369982765574
H        12.04179998969328   11.19038497325911    3.94440184346813
H        11.88569623946848    9.83430558815087    2.81349601043669
C        10.83344345895952    8.03102590132538    4.56944740290113
H        11.84071553738904    7.68208255151319    4.79805367523053
H        10.58667649854406    7.71992734195441    3.55432995103299
H        10.13457355055791    7.55589195725919    5.26540426920075
C        10.96937991819343   10.01531337223757    6.12822341740295
H        11.90805863352093    9.62220660771069    6.52222223710000
H        10.14815185873674    9.66424834650002    6.76414470830902
H        11.00392144765803   11.10399436484685    6.17522976750667

