29
CSD_code = APRCOB | q = 1 | S = 0 | Stoichiometry = C6H14CoN4O4(1+) | MND = 6
Co        5.88000004882768    3.74499997462120    0.74372567325001
C         3.74571760535241    2.76379236025376   -0.49546417827951
C         4.21973223701227    1.72460250337944    0.58258108206132
C         3.76120758354119    2.25785909030345    1.94057061366761
H         6.09268295483220    1.16242250278658    1.25583209192305
H         6.05309264575824    1.56437272410733   -0.33684629543869
H         3.63833414961036    4.28407396308854    1.72812893727707
H         4.45939072265195    3.84065006334218    3.06254276883791
H         3.83837921427672    0.72124789797021    0.37515219075677
H         2.67012378928702    2.26408373798631    1.99764471397468
H         4.15211944482114    1.62489634635026    2.74236416143899
N         5.68852151109511    1.82165510192693    0.58657690271001
N         4.33394943626608    3.62105139600123    2.07553913385865
O         4.53416299292170    3.78302435278823   -0.51220879806138
O         2.74920014870980    2.61351847054359   -1.13972588498806
N         6.07147847873944    5.66834485630315    0.58657690331122
N         7.42605070160994    3.86894851119693    2.07553900667044
O         7.22583699768954    3.70697569494446   -0.51220890777517
C         7.54026776138241    5.76539747240949    0.58258107509999
H         5.66731705572741    6.32757767089530    1.25583205516418
H         5.70690736080178    5.92562719621605   -0.33684635263584
C         7.99879244671708    5.23214087973827    1.94057057932216
H         8.12166584549036    3.20592591278547    1.72812906100898
H         7.30060918269095    3.64935001663516    3.06254237311899
C         8.01428231190954    4.72620773940465   -0.49546427300905
H         7.92162074341496    6.76875209317293    0.37515223442648
H         9.08987625075107    5.22591637113292    1.99764473845943
H         7.60788045003122    5.86510355673942    2.74236412909616
O         9.01079992808051    4.87648154297662   -1.13972573524640

