47
CSD_code = APTANI | q = 0 | S = 0 | Stoichiometry = C20H20N4NiS2 | MND = 4
C         6.14014649589244    3.37690876488941    2.29297581258534
C         4.81886670929442    2.96277383979018    1.74989510434781
C         7.61987904029644    6.01401237133317    3.97816914482146
C         8.84255326376523    6.08101871091260    4.80380753093112
C         9.59016076114700    7.24857754066617    4.90278200939666
C        10.76369332327045    7.26437896346660    5.63471743248253
C        11.19917043437177    6.11989077768762    6.28067663671893
C        10.44876329432224    4.95772961487920    6.20894536024698
C         9.27763246856941    4.93269953659107    5.47219812024497
C         6.68700464921838    6.97938608787839    3.96607326430004
H         4.44313823029468    2.09782486576548    2.29402760320359
H         4.91924560951951    2.67995763135012    0.70335961031108
H         4.11288925370008    3.78346906106210    1.83698284948897
H         9.26078356135606    8.13470580346533    4.38145428367865
H        11.34623612561328    8.17194808454214    5.69357740306916
H        12.12120550996623    6.13325797853479    6.84257045207818
H        10.77754876954013    4.06736380547890    6.72494115561813
H         8.66691484006724    4.02748789598641    5.45488563867114
H         5.82071187996671    6.89601748556048    3.33544485059827
H         6.78497240317156    7.85190541257937    4.58475458417452
Ni        8.94762699511101    3.67536943063373    2.91390753557688
N         7.52060383472202    4.86616026219731    3.21082418472832
N         6.31561086541159    4.55797009926403    2.78309952071098
S         7.42960256491476    2.22450441035206    2.34904771892930
N        10.37447314177623    4.86560650386378    2.61415063010631
S        10.46624527907892    2.22369289175194    3.47497203796074
C        10.27508932134273    6.01357279562747    1.84684209270926
N        11.57946804069955    4.55777324251029    3.04204901486334
C        11.75502687409903    3.37676887936590    3.53225155946859
C         9.05240981357365    6.08082841693228    1.02121211765108
C        11.20807168588912    6.97886941170382    1.85881102310568
C        13.07636667759463    2.96281787083935    4.07524018382694
C         8.30500137897819    7.24852936935166    0.92208661031049
C         8.61725491630354    4.93256702572426    0.35275272337864
H        12.07411744713500    6.89570944884347    2.48978119345190
H        11.11000788258042    7.85156011900294    1.24036746471430
H        13.45213026904328    2.09794880680780    3.53099182149512
H        12.97605086485265    2.67992870543263    5.12176094385418
H        13.78221785387904    3.78362083786370    3.98812383838323
C         7.13141543462427    7.26439447171735    0.19020510680249
H         8.63426529391377    8.13455496038081    1.44366414465206
C         7.44614612617536    4.95769883362835   -0.38400668260943
H         9.22846656184333    4.02758511224387    0.36913461991391
C         6.69591222293886    6.11996486890331   -0.45586361284432
H         6.54881111529412    8.17193002991045    0.13151927844690
H         7.11748050563726    4.06742655762224   -0.90023298592422
H         5.77381040924151    6.13333240510863   -1.01763093063353

