71
CSD_code = APUCIX | q = 0 | S = 0 | Stoichiometry = C30H35ClNO2PPd | MND = 4
Pd        2.24391704342968    4.00978194454379    1.65511657233553
Cl        0.87392349318214    3.96744770536535    3.56717349821823
P         3.88422379127617    4.58885989813912    3.02532172586949
C         3.35526273606866    3.81151844451062    0.01194604303843
C         4.76072652036977    3.78489145862778   -0.07646890973424
C         5.39517391251616    3.59593642875355   -1.27263186553970
C         4.65840375945190    3.42210548156477   -2.46106592091148
C         5.30095101283024    3.24877537939175   -3.70408531326460
C         4.57977829014311    3.08531772786056   -4.85205964979056
C         3.17840725163089    3.08841541518852   -4.80020187970084
C         2.52545496991026    3.25193392966583   -3.61074264904510
C         3.23732203219083    3.42263607918791   -2.40138199856089
C         2.61482347042235    3.60411110144790   -1.13918598080611
C         1.10818931097939    3.65650138914625   -0.98917016069276
N         0.77253792844668    3.22759802442342    0.38894349436536
C         0.65712133604553    5.09433649050296   -1.26607265715289
C        -0.60449235628371    3.56189969424652    0.74864418260777
C         0.94036043273667    1.77523397715470    0.50298431409776
C         4.08132066928994    1.93064514635799    3.41491957497666
C         4.65851849983976    0.71519090070052    3.72967493783824
C         5.99422027221825    0.66123523493247    4.09610037681813
C         6.74610008938015    1.82317373351767    4.14398448008540
C         6.17108868824927    3.04475697694933    3.83824072944064
C         4.82893148448398    3.10758157852460    3.48188415001923
C         5.01847501972170    6.05860052790288    2.80863349123948
C         5.72412422012873    6.14493892060816    4.13638012987355
C         4.88782844263589    5.82997229076617    5.13048654580147
C         3.51902152860515    5.52689237478995    4.58749101382708
C         2.96648879341604    6.81827009251066    3.94376998296390
C         3.93454476660653    7.18018860923987    2.80470208412105
C         7.12925729343774    6.64431084407699    4.20340054152233
C         5.12532980824717    5.82268579655545    6.59990109784234
C         3.26991299999794    7.14260209936191    1.44728480263676
O         2.20141829580316    6.63161800885347    1.20483770508897
O         4.04312746875958    7.69768456730005    0.51051143023766
C         3.59810656246838    7.55236359066830   -0.83352448372791
H         5.35443178354843    3.90900656727699    0.82598018460491
H         6.47560239069817    3.57883618876396   -1.32651175435053
H         6.38190854734413    3.24932751232992   -3.72832574224249
H         5.07824304671847    2.95386142167037   -5.80134934384502
H         2.61408153564417    2.96083754625867   -5.71300536655601
H         1.44602400906140    3.25595472637909   -3.60241081320891
H         0.60260920471465    2.97380847489903   -1.69300292129917
H        -0.42132741298609    5.16836900284550   -1.38560447073293
H         1.12594885778755    5.44364825294347   -2.18420831561065
H         0.97961454252592    5.73408353261313   -0.44330420048432
H        -1.31018810169183    3.17416547247522    0.00097216511558
H        -0.72046416425310    4.64108234167898    0.84393084113976
H        -0.83746865158276    3.12074279131755    1.71850950282367
H         0.20151919837029    1.24976242340373   -0.12064194826539
H         0.79378243857563    1.47303525181866    1.54453155403583
H         1.94260932619191    1.48043677488460    0.17829287620422
H         3.03136074599004    1.98865616793571    3.11774657317625
H         4.07306532468707   -0.19141143066957    3.68484707156370
H         6.45127688363554   -0.28727724368336    4.33714297548364
H         7.79009424208609    1.77862184136445    4.41877021577134
H         6.76725030901434    3.94213285950178    3.87525224172314
H         5.66596159312400    6.10466637813273    1.93366998927079
H         2.82228548572172    5.06543343117616    5.28386871899462
H         2.88791292223182    7.61916661086544    4.67915161687750
H         1.97053090430279    6.61369157122285    3.53686525512081
H         4.41138287757148    8.15457257018082    2.93652698265027
H         7.57315640394891    6.44876134193433    5.17599790045483
H         7.15054980946978    7.72096148922691    4.02750597585084
H         7.74337574179696    6.17542118415683    3.43495724425311
H         6.16068388359496    6.04667524124775    6.84133851584261
H         4.87042800863439    4.84545043565271    7.00941854724253
H         4.48666419059783    6.56095116634033    7.08485981979615
H         4.33430338393863    8.05691918932021   -1.45336451288491
H         2.61401982608669    8.00754169250122   -0.95971633068888
H         3.54057107432914    6.49199535870081   -1.09203248362115

