29
CSD_code = APUFEX | q = 0 | S = 0 | Stoichiometry = C9H16AuClN2 | MND = 2
Au       -0.11842630227530    2.31164985942898    5.45517038675062
Cl        1.97454982149199    3.14338602036772    5.55301064348787
N        -2.32833076873451    0.67665632656903    4.41231084248726
N        -2.92030561090796    1.94796953315266    6.26863306479123
C        -2.03351611867170    1.54840435623857    5.36716898602435
C        -3.61552353656860    0.12774778533923    3.98545748736339
H        -4.40830345754104    0.86601322614095    4.08463282268571
H        -3.86678844538031   -0.76419631378349    4.57060115496511
C        -3.38825568092752   -0.26905052139135    2.53005514707398
H        -4.10264226207532   -1.01617585587799    2.19092114236491
H        -3.46092770225875    0.60717230414418    1.88506995386007
C        -1.95317795765413   -0.77762493480185    2.56630536565969
H        -1.48345233734734   -0.80336361575460    1.58647206650766
H        -1.92098879649555   -1.77953536979174    2.99586400657435
C        -1.27924061057714    0.22576930885401    3.49665792153819
H        -0.45106542250362   -0.21325170986034    4.05415787036683
H        -0.89255013331176    1.08195273525085    2.93574745249836
C        -4.25891314405374    1.44551683880253    6.57855726821478
H        -4.31381692666870    0.36766854701293    6.44216431289063
H        -5.00978886085194    1.93582103120973    5.94857042276189
C        -4.48014182328539    1.84561005578220    8.03399921016008
H        -3.97791042131634    1.14199855858395    8.69862426559082
H        -5.53577547715384    1.88373304296337    8.29424318687002
C        -3.79417260863534    3.20415658589303    8.09114741228666
H        -4.42877069795653    3.96428622073101    7.63407399048681
H        -3.54865414345337    3.51739218338799    9.10258214008644
C        -2.54563338543223    2.97034031133740    7.24672922436807
H        -2.20908877266503    3.87562727871028    6.74009408872695
H        -1.71978841678895    2.60082621136068    7.86207816255812

