77
CSD_code = APUFAT | q = 0 | S = 0 | Stoichiometry = C33H40AuClN2 | MND = 2
Au       10.44808680964977   10.42927070783333   23.75714976589854
Cl       12.07288713782308   12.03065928858275   23.79238332918158
N         9.17838575151952    7.72791507991217   23.21454971531939
C         8.95331919051454    8.95050772914600   23.73017592173627
C         8.10394713158502    6.92905417164034   22.71698034231007
C         7.74990500533037    5.70094272696015   23.26406510634722
H         8.24183225678125    5.34417639723775   24.15544777335105
C         6.73846634772538    4.95583045052990   22.68795334085968
H         6.46552008426495    4.00516645196770   23.12028903147914
C         6.07409920024073    5.42288536123789   21.56586087560029
H         5.28631019348269    4.83550674111075   21.11923162278941
C         6.42121112031999    6.64637782950877   21.02035329238548
H         5.90805326795495    7.01795124774107   20.14567696698804
C         7.43367416652064    7.39598510721922   21.59122506011326
H         7.71334099302102    8.35226474785802   21.17211643422856
C        10.53747407619123    7.28052603589710   22.78484604915068
C        10.52321412958997    5.81777318647362   22.31233453217240
H        10.18126993028960    5.16073272303673   23.11222182325603
H         9.85047853898150    5.69757150765429   21.46059083393785
C        11.03506254335686    8.11984928030187   21.60218871643561
H        10.35743140891639    7.98124697132664   20.75551702700344
H        11.03398002033203    9.17964643731031   21.86703445010811
C        11.49508817129466    7.35931005720455   23.97738164106189
H        11.12904629722243    6.70396386088966   24.77282954756539
H        11.52329663186635    8.37892173259701   24.36765248855068
C        11.93050554964826    5.37621537925487   21.89665516146863
H        11.87830307362774    4.33173783056944   21.56818913198112
C        12.45180059000942    7.70098063717531   21.21683633643862
H        12.80240548555291    8.34581209613848   20.40446195685601
C        12.90179956032525    6.94488404771406   23.55326313874604
H        13.57442090471274    7.04618685423408   24.41131543259156
C        12.43745420812769    6.24743768786875   20.75175835587711
H        11.78727361833613    6.13850676572569   19.88045880643088
H        13.44211497604988    5.93400408264876   20.46194785925501
C        13.37813657209353    7.85373206450761   22.42184460673633
H        14.39905736839712    7.58937759465345   22.13950876900624
H        13.37945785584457    8.89244810935050   22.75732860948316
C        12.88288884763767    5.49272566396916   23.08315697634736
H        12.55370323396183    4.83972926760134   23.89514751735051
H        13.88596930096994    5.17954206417573   22.78792239525806
N         7.72726516981646    9.17707917652764   24.23938719438237
C         6.93365020797313    8.10424133374742   24.74875381435121
C         5.70435768004877    7.74003542493109   24.21092551965729
H         5.34038283660510    8.22262810388297   23.31751163065923
C         4.96668151091015    6.72999075998429   24.79888214429302
H         4.01517181549844    6.44945011535055   24.37331232398854
C         5.44220564246286    6.07638110636200   25.92371325790248
H         4.86061332077433    5.28949563324014   26.37941252131336
C         6.66695256459382    6.43316353088064   26.46000635966381
H         7.04544869738857    5.92855151618587   27.33667443064951
C         7.40901789415491    7.44445861139885   25.87735035976011
H         8.36631461805056    7.73118466190678   26.28933882810097
C         7.27877985206944   10.53855579520986   24.65957799321721
C         5.80542433276467   10.53217106815391   25.09783550935650
H         5.16616687237576   10.19381470554522   24.28212830378458
H         5.66155286502377    9.86036625780711   25.94655094789682
C         8.09374836856978   11.03170060582173   25.86092215634646
H         7.93274414345716   10.35479482663935   26.70423038726846
H         9.15925257009267   11.02509594854582   25.61960662873366
C         7.38982698472350   11.49595352710205   23.46941090430333
H         6.75098336597425   11.13328235915633   22.65915305353925
H         8.41804866846475   11.51934080056830   23.10242445796152
C         5.36178605853040   11.94161043209366   25.50367231511620
H         4.30982205780178   11.89487840173481   25.80820397175417
C         7.67329640583798   12.45045138485895   26.23702296760969
H         8.30099428463448   12.79769212133384   27.06412793874675
C         6.97311418282552   12.90482120239548   23.88409975605961
H         7.09769252781411   13.57687842539525   23.02865475764809
C         6.20933911821148   12.44334951998727   26.66851505026132
H         6.07709490904951   11.79326103682020   27.53665481551303
H         5.89460894840772   13.44948326281844   26.95175602556059
C         7.85823148915516   13.37631776053350   25.03617869976172
H         7.59262937927956   14.39849792825496   25.31275525467415
H         8.90438128880069   13.37244558699894   24.72466316394832
C         5.51048250728654   12.89375620360290   24.32064873630731
H         4.87454077499681   12.56833619952062   23.49373752122034
H         5.19602453551567   13.89842868794783   24.60904955703237

