77
CSD_code = APUGIC | q = 0 | S = 0 | Stoichiometry = C39H25F7IrN4P | MND = 6
Ir        8.15997364444675    7.69201523806135    2.51398627144086
P         9.73763757857718    9.15590589688114    3.57054028976833
N         8.47960986190839    8.70607214878933    0.79810277169205
N         7.72270704375311    6.56925512072448    4.14553315140104
N         6.90979442136649    9.15392636289584    3.36844519850600
N         5.64905352066519    9.36412946949448    3.03533778235646
C         7.74998019619830    9.74712142652780    0.40610860046275
H         6.88468581380591    9.98334743806607    1.00943994995471
C         8.04872834401954   10.48732833271914   -0.72083651758660
H         7.42672655719810   11.32234369492014   -0.99801484141727
C         9.15708994414047   10.12778992077935   -1.47291040016224
H         9.43342532149474   10.68918200369029   -2.35195581038794
C         9.89384956227785    9.02224840680400   -1.09400814449373
H        10.73916493962908    8.71718419342827   -1.68498550484703
C         9.53230217539569    8.30549751808238    0.04659716853370
C        10.16206821333310    7.07908878129979    0.52350603188591
C        11.26462184680318    6.44911916034733   -0.05400610134914
C        11.76247096087658    5.25202224957624    0.41778637969314
H        12.61529848107752    4.78591816556923   -0.04657292906785
C        11.12141997548418    4.67487805696933    1.49950526638930
C        10.04097632806617    5.27281116969775    2.11881477843060
H         9.59170865782206    4.77475357436325    2.96544451802376
C         9.54066651749748    6.48654783853275    1.65405737113334
C         8.42538462364072    6.55966935484106    5.27719816246062
H         9.37619591309155    7.07898077866767    5.26293611404223
C         8.00794422859528    5.92209936796595    6.42727351105222
H         8.62080853145235    5.94779383689497    7.31381120705217
C         6.78681940728044    5.26210832433313    6.40735005385568
H         6.41305901310466    4.76577263375290    7.28939243758158
C         6.06025544078265    5.24432415564532    5.23425053444185
H         5.11584383560941    4.73112374907254    5.20205418857596
C         6.54655916371581    5.89495910587443    4.09742407352460
C         5.89948794799038    5.91627402886769    2.79417428143754
C         4.70760483803081    5.26917599068004    2.46013719838080
C         4.16973255512393    5.32475243788715    1.19219718407338
H         3.24650524680444    4.82023988807457    0.96082042268760
C         4.85632321074744    6.05289093157023    0.23767474891211
C         6.03773954465285    6.71076120984700    0.52115818997082
H         6.51859489530761    7.25833543643555   -0.27449175422680
C         6.57711318921893    6.65927607031146    1.79892964378392
C         8.70254185636086   10.02651805258353    4.83179990185311
H         8.75853523623229    9.46054114554075    5.76998231091726
H         9.06557402007219   11.04122304373143    5.02204442577828
C         7.30451544737331   10.04263926811020    4.30469521189259
C         6.23428130605262   10.87401571435784    4.59531340956245
H         6.18522048142648   11.68812678623585    5.28899241040879
C         5.21413186270760   10.39222363033669    3.76484210202049
C         3.83849469572153   10.91716318404364    3.61828558116910
C        11.28940979533566    8.80241133547717    4.46383793933464
C        11.87134403957296    7.54592331046242    4.33715873006553
H        11.39017395903422    6.79861775662671    3.72029741240724
C        13.05892029007619    7.26147149009751    4.98845804722260
H        13.50750850490599    6.28476179429095    4.88524765510844
C        13.66878227439758    8.22975864161718    5.76832377779147
H        14.59477516014389    8.00903716091276    6.27769465017937
C        13.09491840763624    9.48587576855772    5.89166221337870
H        13.57522904619912   10.24227071199531    6.49467272044933
C        11.91086280398572    9.77573908538908    5.24001624614512
H        11.47133483931619   10.75967330871934    5.32524483683848
C        10.29794333751481   10.50842798293888    2.49055882558376
C        11.49240699564831   10.34630308865240    1.79169134523109
H        12.09864413868759    9.46804280140451    1.97094228934384
C        11.90066068974679   11.30123553680916    0.88088837060344
H        12.83002440118273   11.17150106517162    0.34675104044801
C        11.11582191296906   12.42004276415461    0.65026946993644
H        11.43563934604659   13.16672353318732   -0.06084381699984
C         9.91927019467472   12.57756908631944    1.32894214680726
H         9.30266191073374   13.44495160951996    1.14541031762270
C         9.50326733834422   11.62231568676925    2.23912841719426
H         8.55803913777054   11.74325103373812    2.74896274553132
F        11.91491471120130    7.00070207319114   -1.10409468758498
F        11.58754912957578    3.50163442480168    1.97382783746447
F         4.02702719941104    4.54220065405819    3.37298450824391
F         4.35720946065406    6.11062465972709   -1.01147565866004
F         2.89046845391126    9.96609174447406    3.62907092039191
F         3.51804735182755   11.77978597850425    4.60312019152341
F         3.65891877250027   11.60328161853912    2.46479067676850

