51
CSD_code = APULON | q = 0 | S = 0 | Stoichiometry = C24H14Br2HgN6O4 | MND = 6
Hg        8.36611073133155    4.40028121813024    4.71733810829276
Br        8.46039064081007    5.37419637319544    2.45351803656277
O         2.57542052730752    2.24448277107645    9.54295365391363
O         3.76913992806135    0.48783335948064    9.23317254408702
N         7.21928191942187    2.34831910417310    5.89029343571668
N         5.77870203513079    4.24699076312733    4.60304951873861
N         3.44152122751672    1.62402819692713    8.96913804041406
C         7.95944711375228    1.46691845053704    6.52155216885032
H         8.94302733081940    1.29129530662719    6.10634805524396
C         7.53115772808579    0.79847669067593    7.66931584901130
H         8.19004793659257    0.10855205413445    8.17133961076234
C         6.26718732203334    1.04184294499922    8.14967194867200
H         5.91295220987628    0.53310991189962    9.03246000373741
C         5.43772018662769    1.95246310582230    7.47164789486870
C         4.10161679594830    2.29106580756487    7.86628886537254
C         3.37840454665718    3.23807956534798    7.20736612561940
H         2.37586023376451    3.46847893736034    7.53995915934846
C         3.91061977588985    3.92054391190607    6.08627377030879
C         3.18620247090421    4.89874175378802    5.38144491201349
H         2.18722602798329    5.15442851043867    5.70283378962654
C         3.77167154861542    5.50872925077429    4.30099155271396
H         3.25260561998800    6.26074894945410    3.72887202026181
C         5.07928210325389    5.15065265021092    3.95284710815275
H         5.57142078676765    5.62250496984764    3.11131201683656
C         5.21876382493957    3.61661987812582    5.64758116714311
C         5.98562153442161    2.61409929487530    6.34358389348839
Br        8.27193491899299    5.37175920653600    6.98226433539703
O        14.15720563953611    2.24292696921850   -0.10814771332479
O        12.96299187816352    0.48676129127055    0.20255160381327
N         9.51241002298381    2.34946471377855    3.54328325638549
N        10.95344876793625    4.24767823468780    4.83082887595148
N        13.29081972348863    1.62306627055217    0.46587237265396
C         8.77207272356693    1.46831953279596    2.91186414880600
H         7.78833543540772    1.29307292551177    3.32685063485275
C         9.20038157231760    0.79972934942451    1.76419685323550
H         8.54133414977066    0.11008749518691    1.26199174217607
C        10.46457985056095    1.04258321146255    1.28418467021329
H        10.81885748361471    0.53370589244494    0.40149513312763
C        11.29420104050560    1.95291277393800    1.96240358678491
C        12.63053155927723    2.29096844236282    1.56807020529699
C        13.35375512424636    3.23812421157271    2.22676125775274
H        14.35642756801195    3.46819554538171    1.89432753965653
C        12.82143262944066    3.92103426221343    3.34753313401921
C        13.54585768435356    4.89939770922442    4.05212648407263
H        14.54481304416611    5.15504306798377    3.73063627267148
C        12.96042993377061    5.50958657036936    5.13248888919193
H        13.47949609516091    6.26174833978765    5.70442485938429
C        11.65290289839375    5.15143021930328    5.48086462046183
H        11.16086059978696    5.62331055917669    6.32244259201576
C        11.51326479272838    3.61725757161745    3.78626891483856
C        10.74625275754738    2.61485190349062    3.09026248066869

