71
CSD_code = APUPOS | q = 0 | S = 0 | Stoichiometry = C29H33Cl4IrN2O2 | MND = 8
Ir        4.48154237553440   -0.12557069561603   13.13250643628506
Cl        3.80688861596369    1.29233622386932   11.37074499740286
Cl        6.32766939240313    1.30277749870767   13.45467688658882
Cl       -0.09361746341654    1.93382225417191   15.89769519631997
Cl        2.62251262895343    1.94637046040318   18.14459031957776
N         3.68840816519082    1.12937407522911   15.79267930287218
N         2.01987314131085    1.11875264093777   14.41524401071827
O        -0.90356424077054    6.08262761979373   11.81443271651794
O         6.67090437308988    6.16010427016084   18.16280026866638
C         5.37244859687098    3.51197060588762   16.07666192966705
H         5.00902959725181    3.39569330974577   15.06740465662620
C         3.34964154550049    0.87013424124996   14.50566872790019
C         1.40095134703574    3.47990586806434   12.79789121782209
H         2.45758159281025    3.38126749755014   12.99291054381660
C         6.37125293400154    3.78850403858413   18.64942595136817
H         6.75925085625379    3.86820785768694   19.65262742349047
C         2.58570507575153    1.54724240066129   16.49471963343080
C         3.84230477202403   -2.16888663663020   13.84861476060702
C         3.52582376223305   -2.02743160208852   12.46528268240604
C         6.28973864951548    4.89953173408309   17.81855444860203
C         5.25739931326130   -2.02989166570364   13.98784958480655
C        -0.76558682574959    2.48934780106038   12.59484890828893
H        -1.41495999558429    1.62706205143522   12.65106788793193
C         0.87457593122575    4.70230997486271   12.44668644938193
H         1.49853755780517    5.57867272250144   12.37743142196394
C        -0.48560949139578    4.83310269730167   12.15644132191116
C         5.78383589530588    4.74644106089144   16.52541865318194
H         5.73444898903021    5.61546182090936   15.88946888034813
C         5.94592461793656    2.55277706818087   18.19047352125534
H         6.01209113519363    1.69832539562472   18.84918302363186
C         1.17192101807444    1.02086821192327   13.24582435991887
H         0.37580754302726    0.29917674049364   13.44982419460674
H         1.79798098213129    0.67027693402207   12.42065206579963
C         2.20040195835214   -2.25824305596895   11.81593044126330
H         1.38538356252379   -2.14819518249922   12.52679722782328
H         2.16208429512250   -3.26922945838415   11.40542721134435
H         2.04897038337845   -1.55783349749912   10.99697839283369
C         4.84920820349602   -1.90114013824978   10.24324095805347
H         4.28404859742318   -1.06319657277174    9.83533915073110
H         4.42465744857277   -2.82377997282621    9.84499448729671
H         5.87783121896106   -1.81230069900129    9.90425414556517
C         5.44559520483609    2.39943178528387   16.90922904998821
C         0.58247061054904    2.35760055946045   12.87924935262008
C         1.53595422432800    1.54091458425131   15.62779335241266
C        -1.30416970513393    3.71248743968349   12.23110334218196
H        -2.35820195296735    3.77476335655767   12.01098385360273
C         4.99968631888765    1.05280490953025   16.40300581421814
H         5.69590269761088    0.71230529300027   15.63151296763112
H         4.96275089641106    0.33209665886144   17.22471098641164
C         7.29287709498327   -1.91548933589097   12.39126071020901
H         7.49617525613947   -1.87415613856401   11.32457863279510
H         7.74606859975058   -2.81838439708527   12.80223620844698
H         7.76663831591924   -1.05319437663838   12.86079923538473
C         5.82507948286932   -1.91610313787809   12.66250190585590
C         6.06513613466139   -2.27946550913159   15.21993961262455
H         6.91844920595522   -1.60576196308767   15.26167344071502
H         6.44426929328463   -3.30343435529575   15.21145784577838
H         5.46808538934003   -2.14594948399125   16.11852160012509
C         4.76866600827515   -1.90687563572801   11.73394092313417
C         2.88239425283784   -2.51554692742695   14.94190441429473
H         3.20801374597632   -2.11099150875020   15.89770056566023
H         2.81670215586409   -3.60070665704393   15.03783744691605
H         1.88628371000885   -2.13396747321940   14.72968347832727
C         7.23368227184030    6.36985337848621   19.43432897393007
H         7.48572085542211    7.42844294304730   19.47456513978566
H         8.14338637347508    5.77675188111842   19.57422273719643
H         6.52201301955904    6.13826720439050   20.23398695818294
C        -2.25286769573371    6.26930176295104   11.46516630528036
H        -2.53199947792336    5.66076802209672   10.59875870622017
H        -2.34835421049325    7.32339073271017   11.20926368383861
H        -2.92170613198496    6.03960048943453   12.30141835747462

