77
CSD_code = APUPUY | q = 0 | S = 0 | Stoichiometry = C33H37Cl2IrN2O2 | MND = 8
Ir        4.23233895278687   -0.16195152908476   13.26224154429705
Cl        3.55743917586893    1.27230705806982   11.51278929155742
Cl        6.04477626935470    1.30297684627823   13.61658740100654
O         6.25584912546933    6.07565100561286   18.38038707205782
N         1.73398824603782    0.99094114672311   14.51962790658292
N         3.39721078717909    1.02474334384084   15.92300785950968
O        -1.27836454832643    5.92147152421096   11.99254027421714
C         1.07771493469376    3.35263331046864   12.94388455964705
H         2.13318069357840    3.27726149192037   13.15416796127708
C         4.70198049858874    0.95624762008815   16.54177811174338
H         5.41739580510907    0.63177616133887   15.78162034822214
H         4.66892256777157    0.22442666980377   17.35571014463127
C         5.05125236430008   -2.06445004939859   14.08057606114229
C         5.90877895898358    4.80998169579198   18.01561268066016
C         3.34337858400481   -2.07540922052713   12.53363315092263
C         1.21677892540373    1.41041502855576   15.72298534703625
C         3.06615471634599    0.76651122345474   14.63398442993277
C         3.64170294690303   -2.23585980103203   13.91919319491366
C         5.01817128191892    3.42841707697481   16.25544615363622
H         4.65258502126115    3.32089516635522   15.24614232969015
C         5.40111630991597    4.66503114410278   16.72246253548998
H         5.32714040576013    5.54291437464517   16.10120042198383
C         2.28786277603108    1.43222571995837   16.62680509585835
C         0.90820546067434    0.88051241518472   13.33852930303743
H         0.12780055729012    0.13426209566692   13.52134411762253
H         1.54540939119788    0.55398563582844   12.51245722536869
C         0.52565562597972    4.56940211973600   12.61422672384897
H         1.12755045170988    5.46299363539533   12.57777255570701
C         6.02533541053937    3.68769082020194   18.82625225833930
H         6.41996041552802    3.75962419137813   19.82763049440025
C        -0.06741231818556    1.75765961502035   16.11766688766267
H        -0.89116365678362    1.75356028350441   15.42344960722610
C        -1.62157346160789    3.52970407656754   12.33325304985989
H        -2.67257280565048    3.56954711327784   12.09353310991863
C         4.59545408562648   -1.92321895755529   11.82299133391770
C         5.62982073348312    2.44897278798431   18.34739433749474
H         5.72970793552454    1.58418317467304   18.98948535051973
C         2.03421421706362   -2.33060037616808   11.85981645337382
H         1.20556878658712   -2.25181013488980   12.55931640595575
H         2.02809222103988   -3.33647585690981   11.43475221126879
H         1.87653667151901   -1.62265451471015   11.04838751262537
C         5.84728780390986   -2.32289774711488   15.31909343002897
H         6.69082071169522   -1.63852262786449   15.38287361591515
H         6.24019976225378   -3.34172357159953   15.29993898457638
H         5.23722878399319   -2.21131207460019   16.21220981698948
C        -1.05602085879857    2.31151083583309   12.67423133942382
H        -1.68281737336065    1.43004646328069   12.68888059265526
C         0.28921417832254    2.20688783843075   12.98264146774736
C         2.10580229390651    1.80216398647295   17.95178255612016
H         2.92804434872745    1.83186906020802   18.64708977888262
C         4.69505470114362   -1.87981358639255   10.33416033564537
H         4.13456295187368   -1.03158967821853    9.94051579484024
H         4.27670790485334   -2.79156565516045    9.90513925175767
H         5.72810493491551   -1.78143634539945   10.01098460499769
C        -0.24066646946804    2.12472929441785   17.43793643290413
H        -1.22402369350509    2.40468606699650   17.78321851817588
C         5.12341820397232    2.30344209060402   17.06749647650518
C         7.10622087829582   -1.87792690059868   12.51628723726125
H         7.32541752064991   -1.83859535278483   11.45246715624089
H         7.58384862551505   -2.76125886884647   12.94208492209357
H         7.54345775533987   -0.99603395814170   12.98559685728641
C        -0.83243295766540    4.67281365800729   12.30477818961456
C         5.63503878080263   -1.92466250085763   12.76368210995012
C         2.67614709946676   -2.63652630305491   14.99009371002485
H         2.97625276558549   -2.24715430922913   15.96069332274738
H         2.63968120124244   -3.72533342394085   15.05855610906232
H         1.67232665691483   -2.27781922257806   14.77317688520157
C         0.82489064450186    2.14664917269448   18.33711708646819
H         0.64299770081098    2.44313694643450   19.35868926070406
C         6.81157260537094    6.27984629672220   19.65545844095661
H         7.02898734826776    7.34511980130613   19.71580366820231
H         7.74016591812482    5.71434440034436   19.78530730781320
H         6.10775955997063    6.01036617200916   20.45030783609772
C        -2.62581255222930    6.08232945913300   11.62533427148567
H        -2.87434582169516    5.49169667759533   10.73745304105543
H        -2.74558754787024    7.14034759126064   11.39735658356418
H        -3.30224888634795    5.81139118229837   12.44312019285415

