102
CSD_code = APUQEH | q = 0 | S = 0 | Stoichiometry = C39H58MoO3Si | MND = 4
Mo       10.17719070463617    9.87976884943842    8.26953959657805
O        11.90245520008168   10.59048114167119    7.33185168936502
O         9.82972381756343    8.86139218284105    9.89815826479613
O         9.33510887251654    8.93976589840322    6.93520020192055
Si        7.65862858122576   12.17633880643220   10.59316539075389
C         8.41349175069036    9.14991059551055    5.91808607333665
C         8.29250099832707    7.89685395188137    5.03453065766197
H         7.95517652980212    7.05588068650627    5.64524514349641
H         9.27759316404259    7.64740400741856    4.63199590268492
C         8.89640383460422   10.32314076917928    5.05114318301431
H         8.99689119308417   11.19915094116955    5.70044980488739
H         9.88845466247136   10.07948992966162    4.65676556842739
C         7.03293046404299    9.48719772366781    6.49897150380929
H         7.14321820805235   10.36018490615476    7.14661347645768
H         6.68971296495360    8.64929591224407    7.11093393388960
C         7.29977656582330    8.16018126492594    3.90340916898773
H         7.21688542746155    7.26192937813299    3.28055243130352
C         7.78940035190653    9.32876981169934    3.04881741087986
H         8.76095142223884    9.08896529835911    2.61172171090392
H         7.08831242224445    9.50761005923299    2.23047016337022
C         7.90556874120064   10.58010819403592    3.91932583770787
H         8.25968951264328   11.41818859029030    3.30926620328092
C         6.53969685647408   10.92214897011837    4.51338851159420
H         5.82576904522646   11.12571586481596    3.71207153254204
H         6.62100484041688   11.81802756728774    5.13125745013353
C         6.04706227075780    9.75123734381497    5.36259772712667
H         5.06555659346439    9.99377287885832    5.78482004827998
C         5.93024783342609    8.50004548632457    4.49123647572065
H         5.56421810412996    7.66337965504697    5.09020218971602
H         5.21464778545964    8.67326435468470    3.68440149707260
C        10.73456561620397    7.97573318676283    9.47672206891519
C        12.01323047491401    8.51311881068136    9.17166861315877
C        13.03347538435264    7.71175384617236    8.66125506149945
C        12.76562119820215    6.35825880717873    8.45114781120124
C        11.52764663957059    5.83446894134885    8.80839929536339
H        11.37922767571551    4.77619413874954    8.66270652472718
C        10.49248025896260    6.59695988807581    9.32939219656642
C        12.24508728305601   10.95304709664020    8.54771246030328
C        12.22076514863136    9.95033911595327    9.57097085428292
C        12.51056842594197   10.27772047906254   10.90647388107536
C        12.82489318889844   11.59486025159241   11.22129289295669
C        12.94360967736250   12.53893344657750   10.20115806025653
H        13.25665276265834   13.53101005333947   10.48562482737302
C        12.68856670047692   12.26472535861770    8.87276571311438
C        14.38434211429283    8.28836930704611    8.35681390142174
H        15.16428124803348    7.72482619297843    8.86915461242156
H        14.44260246701176    9.32985901603059    8.66741873484938
H        14.58522716654980    8.23816526364416    7.28628215351288
C        13.81751187456521    5.45951772999142    7.87198604028502
H        14.15488042859031    5.83463588322536    6.90613442632103
H        13.43102337357711    4.45240410364176    7.73647103253771
H        14.68666419195943    5.40891588206098    8.52853150916485
C         9.16198079385342    6.00563199140155    9.77418812824583
C         8.04073102847147    6.58858577267532    8.90408670919451
H         8.19304759632908    6.30529714946692    7.86322041257723
H         8.02967123668074    7.67918886191841    8.97071685190755
H         7.07336791451271    6.21009225246287    9.23104874937405
C         8.92497220194090    6.38020017565018   11.24467956233455
H         7.97545390247968    5.97335641928089   11.58699130673621
H         8.90202422290778    7.46115270205112   11.36289348982990
H         9.72031221410842    5.97631317183557   11.86935045903221
C         9.12352057025545    4.47932138300611    9.65421418505014
H         8.16214026442775    4.11673625839380   10.01306962863500
H         9.90356360375495    4.01852908628626   10.25654078902546
H         9.23603653321724    4.16053942920296    8.62013916062875
C        12.49065979696876    9.22428613212272   11.97752568378920
H        13.38971316611769    9.28299938491957   12.58979386752441
H        12.42461849572381    8.22573883401646   11.55047784855896
H        11.62953044088016    9.37325388833785   12.63048706395072
C        13.08214307165130   12.00066337357314   12.64268262484028
H        13.23190365664440   13.07495725495338   12.71222366691303
H        13.97115297051875   11.50587585219876   13.03509661966109
H        12.24088227502434   11.72474884693106   13.27672507210529
C        12.93554614866199   13.27075362245717    7.75625376255206
C        11.62231523068749   13.56505798684350    7.02153975691528
H        11.81063616388562   14.20877651445987    6.16461702704354
H        10.92547892109323   14.06848318849541    7.68725799330685
H        11.16456927046060   12.63918958798623    6.67653962931335
C        13.94492815747248   12.65568051174060    6.77545391850943
H        13.54194530311487   11.73802922522806    6.35557632668561
H        14.87977604776905   12.42943695479446    7.28593796818641
H        14.15204130949097   13.34967117428363    5.96352580235262
C        13.50974320779364   14.59480506817565    8.26894269859168
H        14.45956243986740   14.44219191030597    8.77655956178724
H        12.81703844804707   15.08799373082141    8.94688529725209
H        13.68202970748341   15.25895260958031    7.42443471655297
C         9.20961356808951   11.41775113583678    8.46247829101654
C         8.45016157498434   12.56689939681287    8.88141959599115
H         7.68667537989362   12.83277119376029    8.14473926228573
H         9.11125716066268   13.43111073860784    8.98556611904486
C         9.09203065857300   11.81630710957114   11.79550790464810
H         8.74366316918345   11.53959185115641   12.78572346126576
H         9.75912635904947   12.66643963226592   11.90147302675785
H         9.67378032756659   10.98719234647852   11.39316649337395
C         6.57077368485837   10.62293750975419   10.40301892455050
H         7.18708647264832    9.82183270288399    9.99764284956589
H         5.73866334108200   10.78190960033483    9.72382846784227
H         6.16357715046774   10.28911208400613   11.35218508995804
C         6.62495669222552   13.67771562239678   11.16682608705017
H         6.17313256499171   13.48572731135742   12.13388121730828
H         5.82354389140146   13.89946602947031   10.46986189982289
H         7.23472967351032   14.57012761026927   11.26173354954135

