93
CSD_code = APUQAD | q = 0 | S = 0 | Stoichiometry = C40H47Cl2MoNO2 | MND = 4
Mo       -6.72770029588937   -5.30892658876938   -4.18207185435485
N        -5.42952089494582   -4.60556404452819   -2.86847336372937
H        -5.56514578420306   -3.69629349766098   -2.41936246068392
Cl       -4.77569968268759   -7.14678477777241   -4.08848831273599
Cl       -4.09713075239032   -3.12825131943372   -0.61476778937400
O        -6.23399226628805   -5.66129250179504   -6.07443886563429
O        -7.80362585008090   -6.56881804807241   -3.13728386457327
C        -7.83790501192263   -3.85429065846183   -4.12348269989331
C        -8.75203582150269   -2.76924520719731   -3.81910727313741
C        -7.97996544842547   -1.94037774876205   -2.80488792683464
C        -8.46259257181210   -1.61790961987481   -1.54401898293963
H        -9.44595921467388   -1.93593215048396   -1.23682122796620
C        -7.69149592025643   -0.87835002861216   -0.66205407692709
H        -8.08577712115263   -0.63259798295379    0.31367374967339
C        -6.42532107490519   -0.45312406693303   -1.02064414051993
H        -5.82681289615266    0.12220548947256   -0.32964766488240
C        -5.92918107634583   -0.77692613462236   -2.27269533773812
H        -4.93882771742794   -0.45574783409495   -2.56216388897225
C        -6.69810819125831   -1.51560560594880   -3.15287852641316
H        -6.30452584869534   -1.77524789908050   -4.12676594829310
C        -9.14232887596201   -1.90426961958697   -5.02965163073694
H        -9.49026860962494   -2.54572496740383   -5.83615017977402
H        -8.29308892079984   -1.32333895469348   -5.37759308534799
H        -9.93723034140482   -1.21420626912829   -4.75226758181205
C       -10.01945441296873   -3.42833938016701   -3.25252481246395
H        -9.76204472605115   -4.06062758288130   -2.40539000889785
H       -10.45256527101929   -4.05782140953785   -4.02713756102782
H       -10.75337553968971   -2.68279041295152   -2.95377821586615
C        -4.32636630279137   -5.20499961212871   -2.33492806485434
C        -3.86292039888736   -6.43860663873435   -2.82162450440161
C        -2.73936354463796   -7.06850752148726   -2.32182121795159
H        -2.42845120940136   -8.01403905976227   -2.73759081947132
C        -2.03156897445934   -6.47718184777573   -1.28996893344442
H        -1.15497031338143   -6.95956069211667   -0.89000914323521
C        -2.45446466356157   -5.26382064543815   -0.76935685377921
H        -1.91352853137234   -4.79632803560334    0.03774198336809
C        -3.57520342050162   -4.64303558161808   -1.28186966563697
C        -7.50633744214836   -5.69453855751325   -6.43327899938540
C        -8.02087723150045   -4.80670294395525   -7.41295416807227
C        -9.38260420988416   -4.82774509484940   -7.63503106345216
H        -9.81655548052087   -4.15653672382479   -8.35901160249598
C       -10.24840293334203   -5.68418109046807   -6.95765515783121
C        -9.73397661005431   -6.63660753036663   -6.08419342125014
C        -8.35193174034988   -6.66613470966955   -5.82972325432649
C        -7.80064672743759   -7.85260688606231   -5.08446019060585
C        -7.59075819868496   -9.05931410276594   -5.74987746738978
C        -7.24481072098402  -10.18738701983416   -5.00333049704725
C        -7.18742078507527  -10.10442902691308   -3.61836088264810
H        -6.95947585753205  -11.00760841669524   -3.07569824910569
C        -7.39668735200737   -8.92519636973637   -2.91970126432457
C        -7.66109528509182   -7.76965791551940   -3.67974202970768
C        -7.06196927552370   -3.94259248318997   -8.22561162762434
C        -6.06595877350565   -4.87575678254912   -8.93193495662908
H        -5.49625209325659   -5.44541461699164   -8.20198860014823
H        -5.37198622178054   -4.29672212740320   -9.53805417416448
H        -6.59544908452784   -5.57191330316865   -9.58018665837326
C        -6.29899947893523   -2.96506260993371   -7.32072685716762
H        -6.99184793507668   -2.26050987310360   -6.87073356601184
H        -5.57091246903236   -2.41032459325339   -7.91017642838892
H        -5.77181299039703   -3.49047157128228   -6.51933697438655
C        -7.78309882111232   -3.11866715125900   -9.29738169041988
H        -8.48657816501214   -2.42132613136667   -8.84880461805539
H        -8.31181123336948   -3.76085604334637   -9.99780876637641
H        -7.05043054106702   -2.54162378734786   -9.85793990785572
C       -11.72364947312914   -5.60109616695977   -7.21725872877292
H       -11.94294234114285   -4.81561706159602   -7.93583371575748
H       -12.26422602882025   -5.38559395012099   -6.29594698630155
H       -12.10331404627851   -6.54406508132152   -7.60951929210801
C       -10.65993269359493   -7.61946903267182   -5.42788290173511
H       -11.44663848372465   -7.09070686699653   -4.89140329516045
H       -10.12928840653362   -8.25346487800278   -4.72319247106625
H       -11.13575669937893   -8.25265129542759   -6.17717591494345
C        -7.72112267985259   -9.15032530066875   -7.24154318398023
H        -7.95395695539200   -8.18030154575211   -7.67369403682900
H        -8.51181457155441   -9.85096101366383   -7.51017607397710
H        -6.79291118211309   -9.51382357128015   -7.68202704043956
C        -6.97274794346315  -11.49581007270465   -5.68434775859956
H        -6.73104993323123  -12.26505716258622   -4.95517391304766
H        -6.13761906402429  -11.40410116312773   -6.37876086736576
H        -7.84193707895800  -11.82217761676597   -6.25506425276213
C        -7.39727770590434   -8.84730754259896   -1.39799877429207
C        -7.14657515530603  -10.20849779606486   -0.74251934835248
H        -7.90715088268547  -10.92958484836729   -1.03283145861519
H        -7.18449431099419  -10.09751668993057    0.33934054159318
H        -6.16524866757898  -10.59771969487916   -1.00541218108233
C        -6.31157384563224   -7.87849286365236   -0.90632941631105
H        -5.32602641515971   -8.21253260948616   -1.22784603862298
H        -6.31740980081012   -7.83749194010319    0.18138827351313
H        -6.48910196374837   -6.86779412507047   -1.27908973996763
C        -8.77570887068236   -8.34075762212308   -0.94792518474748
H        -9.55457545119152   -9.02513829941056   -1.27965677922556
H        -8.97459941576928   -7.35687899375727   -1.36767080423181
H        -8.81434477861438   -8.27009927595511    0.13725516770973

