34
CSD_code = APURZN | q = 0 | S = 0 | Stoichiometry = C8H8N6O11Zn | MND = 7
Zn        1.86914204980203    0.41494180097992    2.81820035892024
N         3.30720153157531   -0.21757564507258    4.10440585653383
C         4.46034450437950   -0.46437167572399    3.53100800654041
C         4.37857509315033   -0.43928123322540    2.08597236191230
O         3.32534972244744   -0.20482348022386    1.47669058208451
N         5.51519930753705   -0.73040754624072    1.40089328974345
H         5.46805753864019   -0.75781699630426    0.38758706569788
C         6.76095772255382   -1.01198168681765    1.96298825408409
O         7.70524141454369   -1.30890153345235    1.28371131511253
N         6.80195554339237   -0.89208988290851    3.32405102911660
H         7.71545758615490   -1.00142624609133    3.75266275641687
C         5.76655410213598   -0.52689501809279    4.18700433070417
O         6.00123232763400   -0.20967679258446    5.32610162003284
C         2.90315926221753   -0.30385338922326    5.34881394994586
C         1.59589440476083    0.28441530970912    5.54991663163635
O         0.94514635480186    0.80414953572530    4.63233878132556
N         1.11049511927665    0.28513880013786    6.81883278503256
H         0.21356527532100    0.72918869998726    6.98659238579058
C         1.74017708225555   -0.26364087794213    7.93673942363416
O         1.26346923803968   -0.17399822441832    9.03488179633655
H         3.33999489871613   -1.40660540471095    8.43528926820401
N         2.90729236275412   -0.91837996451295    7.65775932739442
C         3.51886012767987   -1.09463609751320    6.41476213273883
O         4.39910307695589   -1.90623555229709    6.27422714154409
N         0.14301590588347    1.16232905935814    1.29698564674221
O         1.05157860458898    1.91976572684792    1.68410606425829
O        -0.71089036651798    1.53072830293814    0.55290524416273
O         0.17909246299782   -0.00326652956738    1.73273180451471
O         3.18811659074549    2.38625684200020    3.19012132871251
H         3.18341206548886    2.77401041972720    2.30839107636529
H         2.60707215940285    2.94841024933097    3.71216953300324
O         1.35079432527508   -1.91250558741309    3.15712954063810
H         0.38821623312163   -1.87926222742525    3.16997355167736
H         1.57426637229311   -2.31720315499074    2.31335575946425

