68
CSD_code = APUSOU | q = 1 | S = 0 | Stoichiometry = C34H25N3O5Re(1+) | MND = 6
Re        7.49014855718292    2.20463625695108    4.84947672286226
O         9.70949830861095    3.44042688684620    6.61541038734157
O         6.42237811353545    0.63393347491732    7.29095517759063
O         9.53292286913238   -0.05170121378219    4.30432782187229
O         4.40831624765587    1.35649597928808    5.40371652248977
O         3.59386771856025   -0.62789875677960    4.74617705989222
N         8.08155363100441    3.23267223510209    2.92297250864621
N         5.91400267475478    3.73865310970778    4.89544539657208
N         6.08204214154937    1.50716873945099    3.20372544879078
C         8.85928813431614    2.99972619073864    5.98807377567376
C         6.80092369961205    1.22720931766325    6.39399191355961
C         8.79051129929552    0.78895825935841    4.53103732814435
C         8.76247303404524    4.41854415262105    2.79956224698099
C         8.81761230423328    5.28965106281507    3.89918191229417
H         8.33734611194793    5.00587635459727    4.82445004491291
C         9.45504451252321    6.49993142779455    3.80704623676956
H         9.48635759135416    7.15765073753857    4.66132587447283
C        10.05705203823667    6.88109240198770    2.60757624254223
H        10.55781772419085    7.83388138348797    2.53724783740469
C        10.00799558916427    6.05015786468159    1.51618013511971
H        10.46684598623554    6.36946618205211    0.59517403562658
C         9.36415391159781    4.80461700345258    1.57691944909253
C         9.28881789786164    3.90051117145104    0.46095040251606
C         9.94111415527064    4.12573753659353   -0.76086495065122
H        10.55030093633760    5.00455822255482   -0.89079351314814
C         9.82932877748049    3.23177639000719   -1.79609306673930
H        10.33989539904182    3.41959982896917   -2.72773124903984
C         9.06544313522426    2.07156382078317   -1.64940792858808
H         8.99383768700758    1.36955150466382   -2.46524139040172
C         8.41807006293757    1.81960258506663   -0.46821204147641
H         7.85693713091053    0.90471207412125   -0.36309166637542
C         8.51240765397984    2.72370688214216    0.60788386180539
C         7.90031548116271    2.47446237869689    1.87252767631882
C         6.98680350768756    1.28498565422410    2.06012295585477
H         6.39999448224456    1.11025262557452    1.14764445023348
H         7.59159310204929    0.38952167329710    2.24647844249897
C         5.79881633510395    4.73411148373060    5.84438413239258
C         6.45511297316424    4.59014854072302    7.07831665498489
H         6.98629041003389    3.67298852671538    7.28955794874125
C         6.39173811481261    5.57224229445896    8.03435030167386
H         6.89722289446530    5.43599515012758    8.97704648027681
C         5.66817173031878    6.73905971093896    7.79134433926195
H         5.62806513804736    7.51521939238147    8.53933094896222
C         4.98406400758833    6.88553210534466    6.61097157182061
H         4.39920092351560    7.77653445917247    6.45450147766985
C         5.01466306946603    5.89107794206906    5.62086251791301
C         4.25525584271865    5.97997724755284    4.40316656863109
C         3.47841821352554    7.09677904653016    4.05811493643409
H         3.47232958858867    7.96554428893562    4.69482141291270
C         2.71667613480403    7.10292826981430    2.91713440974191
H         2.12167136638989    7.96786840430364    2.66844623711717
C         2.70153784333232    5.98811202892782    2.07749848772363
H         2.09072158177256    5.99343531209324    1.18819678684900
C         3.46568086587978    4.89002737467906    2.37738909458666
H         3.43790934232674    4.04684072242518    1.70582925728088
C         4.26845611923676    4.86286154241297    3.53479903918848
C         5.14168346860751    3.76860090188477    3.84515728354183
C         5.15563352693283    2.61223313741094    2.87007935506061
H         5.40611931952130    3.01196519425323    1.87973183575292
H         4.13040200539778    2.22715693235561    2.81545544832758
C         5.33125352469049    0.27288451784100    3.45527249715774
H         6.02803530861727   -0.53903604430024    3.68913995491226
H         4.73680288700939   -0.03164728624985    2.58195495436178
C         4.39439095807731    0.41519585697182    4.65198889799030
C         2.71163730638936   -0.66429722034367    5.86977034385066
H         2.23774178762075   -1.64133228330050    5.84633106060526
H         1.96420768221068    0.12625763641554    5.78755633256210
H         3.27527812189688   -0.52835658489363    6.79365337023391

