72
CSD_code = APUXOA | q = 0 | S = 0 | Stoichiometry = C29H36CrNO4P | MND = 6
Cr        4.31376872306530    3.41657962107490    5.63658205227293
P         6.38449914453291    3.58153790677673    6.83961214876692
O         2.13356722397394    3.43306977616304    3.59336575171534
O         4.26818761847631    0.45329987965706    5.21999629985496
O         2.16382343644916    2.51873638795638    7.51803358423482
O         3.07653669585705    6.00489746289251    6.48739906284590
N         5.86831449578453    4.01902700864860    4.47237202644471
C         3.01109915563883    3.44125862584155    4.34291909390904
C         4.45816028911636    1.58675237090644    5.32179095097960
C         3.03170385693888    2.86406395553235    6.83530812668681
C         3.70467896047922    5.10637782731402    6.12781391563146
C         6.84006702581491    4.94159684781222    8.05157589036095
H         7.83920976444704    4.75482774307952    8.46430604821018
C         6.81024430672255    6.30627545824662    7.37247673328868
H         5.82158922090974    6.49860313478965    6.95826086197796
H         7.54653733435886    6.37551404650301    6.57360250313349
H         7.02418719857370    7.08754511505354    8.10049467491976
C         5.81412623902703    4.89721338009071    9.18300811168991
H         5.85891975677910    3.95470810725772    9.72442516134671
H         4.80710549894046    5.01097865483712    8.78138236781215
H         5.99610919395454    5.70398359154990    9.89131030255739
C         7.45077486605485    2.14223051961401    7.40217091563660
H         8.34047210873635    2.51609853855972    7.92367474505655
C         7.87393280343744    1.28783327271102    6.21244952228850
H         8.49347708809221    1.84844843833628    5.51451689167002
H         6.99684152210981    0.91583559218866    5.68488861268634
H         8.44507838347073    0.42736865694535    6.55822132879972
C         6.61264249412256    1.31239598285877    8.37339066169983
H         5.68303186461778    1.00105393094661    7.89651155276262
H         6.36317566284598    1.87914359112359    9.26784925817650
H         7.15869660311009    0.42125465771624    8.67898979085399
C         6.97745152518666    4.09561801407462    5.16465201441915
C         8.31233843108355    4.47027227731622    4.75359543908372
C         9.33134659268310    4.47293383220544    5.71934995383629
H         9.08635463460685    4.19999899527573    6.73393525352663
C        10.62714959650573    4.81448439404858    5.40075352470619
H        11.38831910019358    4.80608406239632    6.16711862874531
C        10.95480257265664    5.16791291287012    4.10012296308247
H        11.96894723577111    5.43570381781393    3.84644210563582
C         9.96474329532550    5.17327010288974    3.13075440239367
H        10.20674812690357    5.44721999503659    2.11444092927105
C         8.66359777750632    4.83204296598593    3.44282381087268
H         7.92118524945462    4.84755598137206    2.66332637027421
C         5.74469056551527    4.31578287525560    3.10214028809168
C         5.88376423757265    3.29260949043117    2.15077004598866
C         5.69138358093191    3.59355969805373    0.81071297350799
H         5.80251212363739    2.81471391903406    0.07236107056948
C         5.36634629476737    4.87304001153669    0.40472667145215
H         5.22335063027168    5.09032710474311   -0.64298328946454
C         5.22646788530451    5.87321274741264    1.34682473567586
H         4.97521528122113    6.87246521788131    1.02675184931436
C         5.40891924463168    5.61777859870096    2.69766196217589
C         6.25678283881161    1.88696628518764    2.55824501885756
H         6.26923564430472    1.83314513065256    3.65184089389563
C         7.65778772251051    1.52946526316124    2.05463361348486
H         8.39704807094231    2.22589010451550    2.44750349556848
H         7.69832695794852    1.56452027299849    0.96859352431507
H         7.92511850614678    0.52524549019565    2.37635041365453
C         5.21944099556570    0.88145202673219    2.05553284112272
H         5.24089988092518    0.80107213529569    0.97185969469372
H         4.22113113360459    1.18921720883433    2.35976562025497
H         5.41934645147936   -0.10221892819139    2.47458114685766
C         5.26447687830565    6.73841615248369    3.69974043419319
H         5.33916665933283    6.31567118986202    4.70696196126551
C         6.39126752315831    7.76178429020327    3.53435926633648
H         6.35802181138934    8.21557423664363    2.54675265829796
H         7.36337988002484    7.28748218801188    3.66041107790373
H         6.29275363739706    8.54941683397118    4.27825941992953
C         3.89398746074809    7.40683209837898    3.57826987061623
H         3.10630337937842    6.65747298774230    3.62066328575494
H         3.80211073086343    7.95224827133991    2.64269206544257
H         3.74702131899612    8.10764966466543    4.39710304614108

