67
CSD_code = APUYOB | q = 0 | S = 0 | Stoichiometry = C31H32BrCuN2 | MND = 2
Br        8.96970405175955    4.32990193240663    7.23654871496350
Cu        6.77562576769860    4.32990088650866    7.65070208353192
C         4.90222166427990    4.32990021540843    8.22182497689809
N         4.29375897780880    3.16345026598099    8.41507391099311
C         2.94067909638730    2.86957302328626    8.89119685193335
H         2.77179256374863    1.81139002812198    8.67567167880401
H         2.19269228421197    3.42389994900236    8.32777909987996
C         2.80627728802109    3.06074690378213   10.38284098026569
C         2.76528011118938    1.90648562765746   11.13013554008405
H         2.80759222824447    0.95134163084919   10.62600382172383
C         2.67650511141734    1.92006837414812   12.52444490985214
H         2.64507850744918    0.98788195708462   13.06724162205942
C         2.63463841152554    3.11687631909482   13.17507880254581
H         2.56883095645888    3.16045994938319   14.25213346298922
C         2.67820279119170    4.32989899563006   12.45781408939649
C         2.76750482254747    4.32989949416176   11.03142377747378
C         5.08933703833045    1.99074487349302    8.18915747844842
C         4.92601854245158    1.29954331971068    6.98558626106161
C         5.67576626279554    0.15667482343496    6.76476268967199
H         5.56253608441802   -0.37427203823969    5.83049238674713
C         6.58064661515479   -0.30909118454611    7.70935097210337
C         6.72759962266946    0.39866911977635    8.89156920888604
H         7.44035215770507    0.05977295324743    9.62915829217095
C         5.99569508191898    1.54933773556446    9.15217903364836
C         3.97920813678800    1.80584802520244    5.93779132588385
H         4.17669349573621    1.32312593541721    4.98464821774003
H         4.09055470037369    2.88210407347831    5.81123047740170
H         2.94354718843277    1.60310476227637    6.21292454385600
C         7.37249330175085   -1.55439625877662    7.45696649975110
H         6.80645027146480   -2.42858653662660    7.78136863899429
H         8.30970145196505   -1.53355102777015    8.00684132787573
H         7.58763556083876   -1.66642383817629    6.39714475407683
C         6.24384812691121    2.30204954417210   10.42430876455429
H         6.39077824047101    1.61121707572127   11.25153547509642
H         5.42620524528339    2.97318159211582   10.67230602380997
H         7.15311694403168    2.89520758676699   10.32012281711237
N         4.29375898480041    5.49635018534820    8.41507397751370
C         2.94067941547511    5.79022732557944    8.89119790542983
H         2.77179282938719    6.84841045447475    8.67567344876524
H         2.19269210092002    5.23590076712759    8.32778047265057
C         2.80627878565058    5.59905253477001   10.38284199112818
C         2.76528393336855    6.75331329921522   11.13013747808000
H         2.80759720021525    7.70845761394308   10.62600645657349
C         2.67650965089447    6.73972957148231   12.52444686842168
H         2.64508494326453    7.67191559226895   13.06724437219718
C         2.63464077169575    5.54292115443037   13.17507978012773
H         2.56883333568780    5.49933676880469   14.25213441359629
C         5.08933685363337    6.66905560202575    8.18915705655331
C         4.92601756833111    7.36025703866147    6.98558586560608
C         5.67576530354376    8.50312539163966    6.76476156703178
H         5.56253455811483    9.03407207582972    5.83049123051276
C         6.58064641824924    8.96889138976546    7.70934911154591
C         6.72760007210906    8.26113131481973    8.89156741111534
H         7.44035314227565    8.60002751710862    9.62915596136784
C         5.99569556160468    7.11046283773460    9.15217794536007
C         3.97920625924202    6.85395240212640    5.93779171571695
H         4.17669128979514    7.33667398700090    4.98464828423337
H         4.09055212079850    5.77769624260974    5.81123124510686
H         2.94354559548890    7.05669637046041    6.21292549418712
C         7.37249330945334   10.21419618519765    7.45696392345254
H         6.80645214295877   11.08838642912056    7.78136940011533
H         8.30970327093307   10.19334925852641    8.00683561589253
H         7.58763215295988   10.32622526793668    6.39714164820620
C         6.24384928040698    6.35775156955571   10.42430787160360
H         6.39077603141598    7.04858436783270   11.25153491922770
H         5.42620824540177    5.68661685959378   10.67230394149533
H         7.15312016851414    5.76459653625566   10.32012311490985

