44
CSD_code = APYBMO | q = 0 | S = 0 | Stoichiometry = C15H21BMoN4O2 | MND = 7
B        -2.05991484812360    3.24434884434317    2.38940731603426
C        -1.73559918470898    0.30799384433176    0.41536891716160
C         1.40619647249232    2.59520035434190    2.80914869817476
C        -2.18551035840586    1.08980663853593   -0.65039090542707
C         1.59626195166577    3.89254251226084    2.31928500446395
C        -2.44319232187260    2.34712399619281   -0.11658624577729
C         0.32515845696836    4.41481219918767    2.13534462874652
C        -1.32074288090484   -1.11834678008966    0.43868587269022
C         2.42676467074998    1.57406697178208    3.16403261033789
C        -2.92754201754743    3.57928926932243   -0.79169226321054
C        -0.09358256680912    5.74715407476310    1.62819117073913
C        -2.91510197314516   -0.18917042457407    3.76287073088957
C        -0.38791238390031   -0.60393027938082    3.65596161632245
C        -2.59365569497045    0.78424737146778    5.57218683859609
C        -1.48237625630806    1.69187388913708    5.67901144115425
C        -0.21985178153459    1.09244596725834    5.59922792728248
H        -2.31074786043428    0.78630224673878   -1.66996491217203
H         3.01362161682130    1.89996253931863    4.02239045590512
H         3.11025455058884    1.41964621860111    2.33081721358825
H        -0.74939178778492    6.23828249289083    2.34545507559827
H        -0.64081630553758    5.64367254731510    0.69202338592736
H         0.77975994951504    6.37106581937421    1.45944270302196
H        -3.58091806795856    1.23098011529962    5.68966680043136
H        -2.49750357924108   -0.15107822076969    6.12473307525399
H        -1.62429377730455    2.75168651172148    5.89057596739954
H         0.65093193515838    1.73806692469790    5.67275851466186
H        -0.07399125111906    0.11678551642036    6.05398794768419
H        -1.84401726836658   -1.64041251851741    1.23971067427738
H        -2.39613532535194    2.54582072306748    3.38401212694372
H        -2.68130240029892    4.24222992797397    2.26774616311444
H        -0.25102256716050   -1.19854196688640    0.63221469301979
H        -1.54526216343557   -1.59369680598411   -0.51203279662523
H        -3.46170847406662    4.21057485870050   -0.08643549570188
H        -3.58677333253374    3.31994730979129   -1.61626338122654
H        -2.08732125180310    4.14606854965327   -1.19470604151237
H         2.52997811943870    4.37890508198907    2.12133575777187
H         1.93717405574552    0.63253537499118    3.40439033217036
Mo       -1.40797292470877    1.01522942733356    3.59261253363841
N        -1.73128038829282    1.06036403502509    1.51308848031275
N         0.10171211567352    2.37284671082952    2.92361570702739
N        -2.16463979439214    2.28333595155959    1.19132886218225
N        -0.54723106730626    3.47114698575541    2.52045863889581
O        -3.76648586603360   -0.97296147119454    3.78960763149210
O         0.18708382654543   -1.59662333457629    3.74417652874174

