56
CSD_code = AQACAY | q = 0 | S = 0 | Stoichiometry = C17H29BrN6P2Ru | MND = 8
Ru       -1.70469561782992    1.82648671297925   10.03481302001860
Br       -1.95756688908831    4.14884814884436   10.96570209851174
P         0.34521318085739    2.52673705841309    9.37976519459887
P        -2.96113511841086    2.61893484355101    8.32423394221326
N         2.84938516265828    1.96781234134607    8.34673901102567
N         2.80657464222223    3.31548084621011   10.37268623840759
N         2.14895270307980    4.29402271087265    8.25231886018883
N        -4.31685318757678    2.21636741880348    5.94604743083124
N        -5.57878705241530    3.29909812438812    7.72446427671458
N        -3.85867146124804    4.52838245003330    6.53690433232209
C         1.52583176676547    1.39548538677511    8.48703300192080
H         1.60355992210009    0.45022565232254    9.03830655912153
H         1.12194339159777    1.17519141377846    7.49084934551293
C         1.47517931182259    2.94202205655627   10.80162897116935
H         1.02943213480311    3.77213316997324   11.36515862395730
H         1.54672279843683    2.07268191082156   11.46860865895698
C         0.72681508997155    4.05314897663474    8.38044539359592
H         0.30097989310204    3.93202675157405    7.37581128294128
H         0.25096452410309    4.91702310220915    8.86276484738510
C         3.45667837653200    2.24344794448870    9.64044479905165
H         3.43570416444629    1.33197084508060   10.24478561477317
H         4.49862381500731    2.53128432842718    9.46788445874538
C         2.82141573149068    3.19997504643906    7.57421368161055
H         2.32439936928031    3.00982005294154    6.61867554165866
H         3.85620228199921    3.50195473729968    7.38399244856861
C         2.77871404147303    4.50982057738239    9.54505396229977
H         3.81129358198095    4.82828973177026    9.37073837266648
H         2.24149839296235    5.29914375273148   10.07603796293384
C        -2.77893399557383    4.26574914951179    7.46495474427764
H        -2.75232625872042    5.05634607887647    8.22524582530392
H        -1.83115656802588    4.28130415920017    6.91300665918163
C        -4.73929692320317    2.86388040089098    8.82082902053548
H        -5.13551010811743    1.91996441830084    9.21778302116143
H        -4.76950183124927    3.61548783585489    9.62104583449364
C        -3.29869961813572    1.62049334423320    6.78700219500528
H        -2.36834219339284    1.52612040297294    6.21284386238196
H        -3.62081097343624    0.61263486413818    7.07635711062982
C        -5.14638323978413    4.58736916476245    7.20780815303181
H        -5.08633917344252    5.30094372458484    8.03288547921094
H        -5.89205003467534    4.93201509289039    6.48448613352659
C        -5.59027367959557    2.33208529412488    6.64094259827414
H        -6.34342726123912    2.64716275632839    5.91175759369557
H        -5.86924884848117    1.35181231954221    7.03821403540651
C        -3.91913540910963    3.53571018617492    5.47945861534657
H        -4.65564049687923    3.86817784248916    4.74105966752714
H        -2.93975925627188    3.46284603217783    4.99818035617909
C        -3.05163652068964    0.73931122523375   11.44352547665712
H        -3.96260178090034    1.07360663587487   11.92324086320405
C        -2.96525041822460   -0.01199584363046   10.24902589622564
H        -3.80202292075574   -0.33669537620103    9.64220051135137
C        -1.61176960712746   -0.39537111495439   10.05381947283010
H        -1.25215095588753   -1.09039772534477    9.30717480318313
C        -0.86895088405926    0.08337795645458   11.17297603128470
H         0.16158630665723   -0.16626886661646   11.39445289525152
C        -1.74733789078710    0.78939669138179   12.01896204184454
H        -1.50540440901684    1.19771725807571   12.99215317130336

