44
CSD_code = AQAFAB | q = 0 | S = 0 | Stoichiometry = C20H20INPtS | MND = 4
Pt        2.95230191097338    2.28202408039476    9.48279954938959
I         1.24863036144826    0.26930492946154    9.82542764147736
S         4.59970553856168    1.42925920336745   10.94135309594312
N         1.72851251049687    3.32167337487070    8.36014145736964
C         4.35611951598214    3.47499665238128    8.53473076061516
H         3.92219341388460    4.32810762530891    8.01076108779910
H         5.18768536567515    3.80951682139027    9.15440083058148
C         4.74381589680270    2.36916970457574    7.64673399354724
C         5.97909620396957    1.76744484104958    7.85962419205381
H         6.60827760151677    2.15496915753883    8.64979270568242
C         6.44503162677621    0.70806731758981    7.08523909046497
H         7.41276375388953    0.27630026401657    7.29695958000980
C         5.68691418392876    0.24911385741911    6.04479547736734
H         6.04455568066942   -0.54312264265248    5.40427380920056
C         4.42371901279325    0.81622602014946    5.77523444789533
C         3.69946281917508    0.34800226505663    4.66077858084982
H         4.12921711503942   -0.44596539309669    4.06747343301389
C         2.49319367310119    0.89562325959692    4.32212223244976
H         1.95256490147231    0.55563204589545    3.45200373577966
C         1.94820791769974    1.88482995738409    5.13223327592394
H         0.97155673258213    2.27836344206908    4.88796551117347
C         2.58124379943862    2.33260492370382    6.28758137946251
C         3.89732341849620    1.85305922296048    6.60344995611027
C         1.75414833605189    3.22152529305214    7.07481649786859
H         0.99110822867692    3.75474329267317    6.50550479944795
C         0.92542641155522    4.27628322583475    8.99650756533237
C         0.64980733046624    5.50778754301484    8.39764517080375
H         1.06595765572171    5.74506499201564    7.42927423431410
C        -0.11568561179472    6.44746214617023    9.06145819777345
H        -0.31461322927911    7.39848669148456    8.59009485517968
C        -0.61764755023237    6.17942786694405   10.32365061404471
H        -1.21643179920821    6.91688188830131   10.83599777997500
C        -0.33416055876957    4.96640465197187   10.93074528822382
H        -0.71306474140057    4.75398676373884   11.91892302999135
C         0.43655613789117    4.02413699759142   10.28012261187647
H         0.65234932232976    3.07791424069578   10.75930196210305
C         4.86337712536887   -0.31102947632400   10.50201066767256
H         5.26611074686126   -0.33163183676024    9.49290212503227
H         3.92363725131322   -0.85542614001567   10.53977244851746
H         5.58189915438190   -0.73230156994340   11.20013020229417
C         3.73955548782982    1.19805571770861   12.52520761150809
H         3.43121270402989    2.18082707395977   12.87171946508681
H         4.43538619628849    0.75599679330995   13.23375662781716
H         2.87147844755810    0.55730291416948   12.39098242097743

