49
CSD_code = AQANUC | q = 0 | S = 0 | Stoichiometry = C20H20Cl4N2O2Zn | MND = 4
Zn       -2.24616701087609    3.61167217785499    4.85114577090062
Cl       -0.26417835858828    1.29149888287660    1.36400006509875
Cl        4.54737957805716    3.31919872318347    2.63139780119205
N        -0.80315581562181    4.57274376671320    5.78816466364295
O        -1.17162726252820    2.74682325253031    3.64721884219353
C         0.91702638352149    3.74363081561291    4.28743313707495
C         0.08599640295306    2.92096857958431    3.47173810014845
C         0.72949604478306    2.26050991212495    2.38165060453838
C         2.06924123791204    2.37712408099830    2.12144180704733
H         2.51117046554647    1.85958649842943    1.28506913736218
C         2.85574431769643    3.17774501652923    2.95554754619361
C         2.29555878898461    3.84556755345838    4.01166899025512
H         2.91264664352358    4.46499007058871    4.64489774453922
C         0.42125427711117    4.47406273383051    5.40668576592464
H         1.18499277305193    5.00874960760804    5.98177459126728
C        -1.07687584384344    5.28595888992866    7.01480168163313
H        -1.98513038265455    5.87593268633171    6.86797797298789
H        -0.24544168564441    5.95924844962173    7.26260771409082
C        -1.30053535007903    4.30208166989355    8.17076152187480
H        -2.06904879373118    3.58652744298022    7.87739253681800
H        -1.66634889770373    4.86591695362924    9.03060003201891
C        -0.02890661580024    3.55394243789080    8.54665001731758
H         0.33858759522499    2.97399150507477    7.70236518641920
H        -0.23096406632417    2.86728087869377    9.36427514077580
H         0.75119698059248    4.24471458307474    8.86323150455983
Cl       -4.22815184961452    1.29148882002084    8.33828598676830
Cl       -9.03970676773738    3.31921150153015    7.07090896926253
N        -3.68916999731133    4.57277438760267    3.91414813815521
O        -3.32070633204133    2.74680838401202    6.05506225271333
C        -5.40935733160133    3.74363032548404    5.41485845768131
C        -4.57833609721751    2.92092841639614    6.23052410154273
C        -5.22182076164446    2.26052878533022    7.32065608691084
C        -6.56156427678140    2.37714776639348    7.58087173924560
H        -7.00349977539995    1.85957376907385    8.41721897693504
C        -7.34807358837557    3.17774397920817    6.74674783873049
C        -6.78789033469580    3.84556432955593    5.69062446183214
H        -7.40497364892497    4.46500660302305    5.05741218916940
C        -4.91357317738362    4.47413409558305    4.29565652142797
H        -5.67733021984941    5.00870541878522    3.72048253903665
C        -3.41545833028604    5.28595344091971    2.68748925970574
H        -2.50719815130031    5.87591705553086    2.83430333368945
H        -4.24688308676120    5.95925618050171    2.43968703733806
C        -3.19179458064065    4.30207744073198    1.53152718510101
H        -2.42328328964160    3.58652114326524    1.82489837207783
H        -2.82597988957343    4.86590608066298    0.67168362260603
C        -4.46343026222226    3.55394908757675    1.15564440894794
H        -4.83092366405131    2.97399600086706    1.99992851316736
H        -4.26137102805506    2.86728905036546    0.33801916738999
H        -5.24353496444889    4.24472076854177    0.83906296468576

