49
CSD_code = AQAQIU | q = 0 | S = 0 | Stoichiometry = C23H21ClN2OPd | MND = 4
Pd       10.72103867119838    7.84837992050262    3.99030926102675
Cl       11.60793888180661    5.72944602885401    3.94335335928261
O        11.36293013473438   10.51580058870294    5.93809327876540
N         9.41107860054408    7.72387992686198    2.53308464539357
N        11.93700945548814    8.30419508159439    5.49428379782615
H        12.56462195650979    7.54818343247714    5.77073935053430
C        10.02158470420001    9.66719941331347    4.07269397926126
C        10.39323034612814   10.67725169351441    4.94490019259507
C         9.79932190879928   11.93563375976903    4.87866175760514
H        10.10372510836931   12.70470509214751    5.57231876276999
C         8.82388421673782   12.18545568718032    3.92401576360158
H         8.36914784674193   13.16347698710059    3.87906276836196
C         8.42957795144825   11.19952668953049    3.03570391738291
H         7.66844493404392   11.40189528413161    2.29610481556870
C         9.02688848388325    9.94292005453499    3.11030981006163
C         8.73956058454745    8.79380149509836    2.28466377719358
H         7.98780193577544    8.81831094596606    1.49533489197514
C         9.23689733103776    6.51700462342872    1.83888818481301
C         8.38104097483215    5.55023774899290    2.37146945460461
C         8.24746431555417    4.34765520159119    1.69894082123263
H         7.59104033429387    3.58926489728460    2.10112763543251
C         8.96001006744291    4.08801358460458    0.53527022737225
C         9.85533401692212    5.04067518571727    0.06686586311233
H        10.45542183814690    4.82353716997595   -0.80525868608972
C        10.01634354845265    6.25594116874112    0.71065994800662
C         7.70987759636838    5.83088884707889    3.68229901647380
H         6.94685978103427    6.60422562525927    3.58113089471197
H         8.46618434458288    6.19342882148362    4.40122666668214
H         7.24789421818673    4.93203630900388    4.08129034948856
C         8.81491391430334    2.77104277080942   -0.16569185978411
H         9.02562649474338    2.87064454740001   -1.22795711525014
H         7.81096877253458    2.37220538417812   -0.03928372972558
H         9.51886004636259    2.05107005837513    0.25229976398667
C        11.04591891755863    7.26542508497984    0.30036695703510
H        11.62523456260605    7.56517476644814    1.18862153052467
H        10.58259072211878    8.16138373963584   -0.11510127259474
H        11.72473380842354    6.84773604077456   -0.43803341187109
C        12.05369226046692    9.40150502534575    6.15641719112357
C        13.01388994614426    9.55672736518369    7.27191025917280
C        13.41859628594509    8.45157732057357    8.02017650835883
H        13.01120694895818    7.47250949456286    7.81299421945682
C        14.32010601207510    8.60797549870110    9.05595365668296
H        14.62407221197796    7.74846241419405    9.63391193492844
C        14.83040519023639    9.86131305666854    9.35411145180499
H        15.53705365732041    9.97834710940067   10.16178733255864
C        14.42929939177944   10.96376976622555    8.61714376296648
H        14.82427864222001   11.94171228617742    8.84827040963893
C        13.52295585579339   10.81642868058804    7.58444086550157
H        13.21114227057282   11.67161832532960    7.00531704030675

