69
CSD_code = AQATOD | q = 0 | S = 0 | Stoichiometry = C21H39FeN3O3P2 | MND = 6
Fe        2.93750125335618    3.10971827671117    0.33217066287013
P         1.96768558663078    4.18602161540667    1.90996370624078
P         3.91841305539833    1.68527193462584   -0.91740427313605
O         4.61585324172488    5.29611942487622   -0.53228169640843
O         1.39967391877664    3.25960758443331   -1.00445613626638
O         2.06879272590113    5.31194476209068   -1.50697131924291
N         1.96568691659560    1.55813811427549    1.01958016750846
N         1.07255742566163    2.92192849864030    2.66248382758853
N         3.00927628680081    0.26602477315687   -0.59390732683336
C         1.10481627216170    1.69748806768607    2.04424410066457
C         0.29704321848868    0.64055362016457    2.47013024136564
C         0.40019296700672   -0.57749797330623    1.82905584861964
C         1.30537459882746   -0.73227937286146    0.79817190094622
C         2.08054418062995    0.36268844699660    0.41259046089189
C         3.01408671261375    4.83538849234304    3.32349509411008
C         3.53892900451171    3.67888225446932    4.16792504162958
C         4.19617226464290    5.60299258341876    2.73916085250977
C         0.63772353396906    5.50860253172134    1.83008760684586
C        -0.55400134737209    5.01797873070813    1.01419906945453
C         1.19288455788314    6.80039758978537    1.23992612598312
C         5.65671611219457    1.10167164137131   -0.52973694342117
C         5.66594591624632    0.48642554996141    0.86519116777575
C         6.61502393582398    2.28619755257392   -0.57728501139888
C         3.92195160508891    1.73103187553376   -2.79210291030375
C         2.54409600083029    1.36605382558888   -3.34129546262329
C         4.29886651492808    3.14370004083576   -3.23355814007039
C         0.25899727626081    3.11054129165724    3.84617020260495
C         3.29958542688973   -1.02005122531927   -1.19321457207444
C         3.82116351981373    4.50348096444670   -0.28982524931295
C         1.32800114998228    4.34249787573958   -1.62856537709761
H        -0.40686798690548    0.76829746988812    3.27309168372680
H        -0.22075366847532   -1.40566993891609    2.13498877276842
H         1.39643769508739   -1.68018833085895    0.29848889150678
H         2.41011214238785    5.51417539557581    3.94073380169101
H         2.76300803643365    3.22442142226605    4.77787210661189
H         3.95260932126897    2.91888430720767    3.50641943408884
H         4.33092434758284    4.02800170693706    4.82854827295918
H         3.87540390460086    6.36485312045914    2.03424509737898
H         4.77115128654517    6.07938621864162    3.53235765202942
H         4.83946931180837    4.90846762273923    2.20536159465810
H         0.30832964488267    5.69975725212543    2.86159620284573
H        -0.84457190913124    4.00581127157339    1.29256662647385
H        -1.40896009758042    5.67733038060058    1.16258557137411
H        -0.30555361797148    5.01613799560885   -0.04255726266038
H         1.90828092300002    7.26912171448451    1.91211437906593
H         1.68032518089752    6.59762954078768    0.28753105474329
H         0.38151305865136    7.50664501968798    1.06629831571914
H         5.96305733185354    0.34992786846205   -1.26969666687990
H         5.08676206476371   -0.43296000324644    0.90837856891710
H         6.68533397873477    0.26346617839340    1.17589364931913
H         5.23519616084558    1.19740166294312    1.56828692533960
H         6.75033087831301    2.65228628498230   -1.59169909793929
H         6.21946277741344    3.09324726184619    0.03596816842943
H         7.59193421731917    1.99873939059454   -0.19032799973040
H         4.67948266700077    1.02884483662562   -3.16914064750708
H         2.36192915026836    0.29514652198995   -3.31058983985702
H         1.77298894830487    1.86546686904711   -2.75907130343743
H         2.45930670275921    1.69271407965475   -4.37692207427087
H         5.25457439148480    3.45383033645340   -2.81810627683177
H         4.36379034805594    3.19586383166095   -4.32008544151560
H         3.54762954666037    3.85421969620554   -2.89846403978954
H         0.48848343975056    4.08198300366782    4.27750519007916
H        -0.81068128244728    3.07761958082548    3.61619798468972
H         0.47913279881425    2.34328284762987    4.59325480588937
H         4.10043002513479   -0.89212689697036   -1.91794455778908
H         3.62425015954035   -1.74882276312002   -0.44363677605314
H         2.42436278701611   -1.42358496663974   -1.70985375158237
H         0.49523803662719    4.39529861484061   -2.37391615873545
H         3.99319346643100    2.89907424762318    1.28668548485988

