45
CSD_code = AQATET | q = 1 | S = 0 | Stoichiometry = C21H16CoN4O3(1+) | MND = 6
Co       10.58883991693552    0.46954819305750    7.93555009997859
O         9.43293235459750    3.58861906940945    6.90284555203334
O         9.42325070181505    1.82603295039538    8.31218092253728
O        10.76582543946289    1.78175888743519    6.67558805399781
N        10.01797859706419   -0.68323295453792    9.36468024244333
C         8.28544861630461   -0.96645580577783    7.79292760482485
N        12.00004615406100   -0.64640576503679    7.25701944956945
C         8.78655414411088   -1.18935822653524    9.14814943578031
C         9.82953845503035    2.51878537022073    7.25716944957828
N         9.15245222710745   -0.30778134307132    6.99916514608023
N        11.98710266916965    1.35109776290738    8.83662329669503
C        13.21815345982777   -0.10330211487894    7.45875439837106
C         6.68997775131623   -1.09183760522098    6.01142174123806
H         5.72229341961743   -1.38073082563500    5.63222261115214
C        13.21011785690806    1.04910338431180    8.35838494802017
C        12.91612960191071    3.15722025944211   10.07215465992322
H        12.75295091941605    3.98401257439296   10.74380942554804
C         8.08787426467078   -1.86286659115820   10.14625921873801
H         7.10188196257952   -2.25173581200560    9.95415939720344
C        11.90123786892345   -1.71408513706998    6.46871744993843
H        10.91348642776622   -2.13368603346513    6.33768641756250
C         7.59924626777900   -0.42712852170870    5.20336064339936
H         7.36727483920747   -0.18667725479179    4.17881057557106
C        14.32881725232892    1.79440745611443    8.71616738919963
H        15.29909677385078    1.55134225957174    8.31618683053591
C         8.82088026703902   -0.05129955868585    5.73795295127726
H         9.54741059613060    0.49265583900967    5.14904609725438
C         8.66793174603709   -2.02011336294946   11.39229143572134
H         8.14029450262891   -2.53029126729725   12.18260979173914
C        14.24497720119180   -1.72596760703641    6.02594657304101
H        15.11458997568566   -2.13931973770168    5.53995006890542
C        10.57329691553447   -0.84935227835257   10.56266540036065
H        11.56582734737422   -0.44346130796188   10.70051358295594
C        14.17832327829166    2.86942875557996    9.57656710118451
H        15.02965954714020    3.47302056246128    9.84963979990897
C         7.04209196525348   -1.37428016195352    7.32094102094166
H         6.35229723431420   -1.88829361081585    7.96939131617624
C        11.84561317636655    2.37245545068796    9.67518978989637
H        10.84047276616522    2.58025008203611   10.01731337786254
C        14.35898289778724   -0.62359605616567    6.85394597168960
H        15.32086912515347   -0.16879924405606    7.02198746334987
C        12.99044711566898   -2.28686337306524    5.83635805652558
H        12.85463073797782   -3.15023943879794    5.20580685331882
C         9.94041822845226   -1.50880785121263   11.60138419568741
H        10.43437743404633   -1.61337001008771   12.55350419228103

