88
CSD_code = AQAWUK | q = 0 | S = 0 | Stoichiometry = C36H43CoN6O2 | MND = 6
C         5.16944887962394    0.61834867788508   16.43662435947374
H         5.71633563381884    0.85205225052927   17.34456473625351
H         5.87879614727439    0.29329567393955   15.68281883467697
H         4.49307095210815   -0.21257310604617   16.64828315044725
C         4.36297174559606    1.77595307357531   15.92929663227790
C         4.22943227034846    1.95790010031810   14.51956756841063
C         4.92863195696114    1.10674160505350   13.50506441527256
H         4.57053097028037    1.36532514290001   12.51220603160869
H         4.73006686984754    0.05377755560616   13.69226623954546
H         6.00512636427103    1.27426823904492   13.53707002021949
C        -0.04300312730153    6.73479032015624   14.10502014670170
H         0.38026362762566    7.73510826244383   14.01164100180311
H        -1.03404345660289    6.80898069256152   14.54749882858339
H        -0.12275192977391    6.30478141358700   13.10950967313709
C         0.85505803142889    5.86622025450785   14.92916960842620
C         1.00909673381323    5.99130927900957   16.33262655007473
C         0.22944091737011    7.07423712284628   17.01841343625649
H         0.57603076924437    7.29067095290128   18.02322506227529
H        -0.81899625857590    6.78088885245182   17.07445263711539
H         0.29050369698520    7.98529393159268   16.42791151280392
C         3.81362040102105    2.45146579864204   18.09598347720733
H         3.91760174203307    1.39429247770622   18.35279167513220
H         2.89756748998225    2.79239275591579   18.57057448901698
C         5.02664690815641    3.21256217467775   18.66839625894050
H         5.93801939593017    2.82188090202762   18.21130263908333
H         4.96262768041733    4.27213867017552   18.41994187191559
C         5.11278399679122    3.03146229924055   20.15316006108541
C         4.91165890011216    4.09002274466253   21.03416656563346
H         4.67882115979518    5.07597806492636   20.66044372934786
C         5.02649432256084    3.85979142556850   22.39380061550553
H         4.88672694467231    4.66612209723544   23.09973544351537
C         5.32732434057408    2.58008044726942   22.83178804042762
H         5.43068650358188    2.35763624288755   23.88230827227878
C         5.49477661081638    1.58997505868947   21.87639906321828
H         5.72814043467547    0.57169191692463   22.16081065819328
C         2.00846116265897    5.19545200849180   18.31253227957456
H         2.07861555723515    6.23483468847930   18.65659683795117
H         2.94954934215652    4.71735203224212   18.55752111746781
C         0.86112964189255    4.47815945429735   19.05432758583272
H        -0.02602631902028    5.11295087175186   19.06471981334806
H         0.62982605239472    3.56281326922600   18.50930634055554
C         1.24873571815711    4.10560300565033   20.45315438923577
C         1.18637595478184    5.01492467643656   21.50475730714306
H         0.85178157068990    6.02701760390305   21.33218932660956
C         1.54334797313128    4.59201784787597   22.77337181241066
H         1.49561326020012    5.27262680151407   23.61164286587665
C         1.95352554735174    3.28005012421806   22.95145980191844
H         2.22815861262494    2.90741249616675   23.92558703357855
C         1.99948011610064    2.45570675460892   21.83834651143337
H         2.32086254212275    1.42523289592417   21.91407404121081
C         1.00540690212033    2.57061062558645   15.52502543031811
H         0.30001304627921    2.96865870287640   16.25392686768383
H         0.57122111263690    2.63527639717599   14.52684862902636
C         1.37002220333448    1.19081888079005   15.82856244604975
C         1.31211940030098    0.67911551910981   17.13137023002150
H         0.96669935756694    1.31092244703033   17.93687245704368
C         1.68738373029737   -0.61851865447005   17.40749352871061
H         1.63414181845160   -0.98674054045279   18.42258640100828
C         2.12998114259590   -1.45425252895458   16.39160675188162
H         2.42516504875486   -2.47070613803978   16.61008629271960
C         2.16760012776021   -0.97752267813492   15.09113464110897
H         2.48682867460259   -1.62845247899400   14.28840161417271
C         1.79672052608204    0.32342052654212   14.81409398285029
H         1.81093476929334    0.67558913633287   13.79252386515989
C         4.23599687764199    5.27041938909130   15.47771792245122
H         4.52851976011315    5.42581203737469   16.51537943660362
H         5.04895795916282    4.77656775583463   14.94477014590244
C         3.87850642477628    6.53623972637589   14.84078388149931
C         3.95614219229301    6.69713289019055   13.45138065276367
H         4.31493732657901    5.87686965612480   12.84672173583026
C         3.56715021873167    7.87364827389914   12.84794644256519
H         3.62821063519975    7.97171356574179   11.77361846244806
C         3.09493319086663    8.93185421206928   13.61086895724635
H         2.78666309855640    9.85217753729028   13.13573988449589
C         3.03244515843576    8.80162001883163   14.98799804983003
H         2.68208433020936    9.62799617394964   15.59282899796489
C         3.41800246069971    7.62174851165215   15.59413897629612
H         3.38183235046563    7.53761559042111   16.67184226717715
N         3.71970273573391    2.63535900316339   16.66340899889118
N         3.44761045180423    2.94450052254505   14.18087381502163
N         1.59570456598699    4.93276574454168   14.38566379818256
N         1.81305830498409    5.12493461768073   16.88283224670641
N         5.39606017871937    1.80634332792596   20.57849487815487
N         1.66033300439890    2.85530909433159   20.62753112904622
O         3.33553533581432    3.17187191897274   12.86276935234926
H         2.54365069570140    3.88208417198226   12.78278873980870
O         1.51640931851616    4.76221867864549   13.11121416383015
Co        2.63847120656720    3.91766046281752   15.51203355712153

