55
CSD_code = AQAXOF | q = 0 | S = 0 | Stoichiometry = C16H26ClNO7RuS3 | MND = 6
Ru        8.66261545015865    5.21683273309912    3.29126314837467
Cl       10.74417052206615    4.88891304022216    4.26194388340395
S         8.94104647464277    3.36034376180702    2.04873041560546
S         6.59905417719121    5.55293009816297    2.40661646619904
S         7.84371576022207    4.20470347165459    5.10360968200066
O         8.38860038889630    7.01462919911741    4.45964446491777
C         9.32058499400843    7.87726536534316    4.58100074203496
O        10.81620401905494    8.20529409720039    2.61244134410317
C        10.41645377358238    8.40335477827977    3.75731599679192
O        11.60704827507348   10.18733988232998    5.07547626199952
C        10.76501126268885    9.34223916372760    4.87576092489472
C         9.62585650152073    8.78897605182649    5.62259564146834
N         8.96959353673938    8.98271222650206    6.78413752145964
H         8.16474518504918    8.37980300767764    6.91441048193146
C         8.30477446583912    9.88005811098625    8.88910767786667
H         7.48058831830492    9.17901227782964    8.89617188976464
C         8.47437692006889   10.75871020628696    9.94075481947740
H         7.78034549426968   10.74159677407962   10.76824228930273
C         9.52859426395718   11.65743798247878    9.93325621271956
H         9.65998376520823   12.34451394841741   10.75531522095355
C        10.41104884386495   11.66712138224682    8.86531883471732
H        11.23549769652183   12.36391128488877    8.85389714894903
C        10.25361663172400   10.79322463936578    7.80583356485521
H        10.94775268622314   10.81073366674602    6.98171369449755
C         9.19224266436805    9.89140347675665    7.81208975515079
O         7.92671038730309    2.34802151629003    2.33507094037867
C        10.55051662845860    2.52193535679769    2.08299410318050
H        10.71975610994629    2.15829242826485    3.09022178077725
H        11.30148872985410    3.26335261541439    1.83596790735730
H        10.53388986508070    1.70304823577950    1.37352659631284
C         8.86503769251492    3.67063608225037    0.26032935686977
H         7.98852814228069    4.28140796657216    0.06187449156028
H         8.78894560608511    2.71558114963433   -0.24612455341971
H         9.76274365779341    4.20772237924373   -0.02149505134498
O         6.77145126035551    6.07533325336549    1.04400927078487
C         5.39057820110911    4.20814689454673    2.27723144635891
H         5.89557902656042    3.33743686913040    1.87196878408733
H         4.59409649865141    4.53656478394469    1.62013324243416
H         5.03766757666728    3.99215462601365    3.27749722381429
C         5.55608143516525    6.74447036838239    3.29068177649715
H         6.13462157194824    7.65416860098813    3.41378398657082
H         5.33142789971819    6.30409680658051    4.25472363748617
H         4.66194810338300    6.93266258379636    2.70831600520488
O         6.38735575216788    4.22473249458285    5.14371489719819
C         8.38236023150951    2.50073752923978    5.40024738536743
H         8.08518380387024    1.91080704257051    4.53868654954703
H         7.90123284087869    2.13354766560003    6.29893711221459
H         9.46166868537560    2.52883378285050    5.50175830473930
C         8.41773363577015    4.92939792245211    6.66416153779260
H         8.04278218512142    5.94600389407307    6.69094910034681
H         9.50225893688208    4.92595923517068    6.63959405557323
H         8.02139295317494    4.35007449054547    7.48941313372550
O         9.52353989495998    6.26787663326550    1.51918840260277
H        10.09656336543349    7.03508308107748    1.87043977984923
H         8.77283725063827    6.66145308344835    1.04435071295357

