51
CSD_code = AQECOQ | q = 1 | S = 0 | Stoichiometry = C22H25ClN2Rh(1+) | MND = 8
Rh        5.65269722086610    3.40737962208933    2.88051696779710
Cl        4.10794081474357    5.03224378878789    3.44542445638651
N         5.76982527947549    4.47301912002261    1.14784515701460
N         7.12070217750450    4.73332634140560    3.31180755187610
C         6.60355554156697    1.42486016990319    3.05245305329149
C         5.98615837805872    1.74432294378289    4.31882485411024
C         4.58750687449529    1.88999290091843    4.10022947525453
C         4.33148490555686    1.69917937139290    2.69116630167261
C         5.57298383840122    1.34456596342258    2.06481575830506
C         8.02374592887530    1.00192778992188    2.87236262733866
H         8.10930542188617   -0.06334606885667    3.09280973109374
H         8.68548748865342    1.53752182628341    3.54962285592428
H         8.36123314384988    1.16195826382521    1.85116994504722
C         6.66801464532588    1.64285761587556    5.64328876763448
H         6.14935547711045    2.21447072300484    6.40737688581735
H         7.69896243634834    1.98486528104749    5.59458361381994
H         6.67451303092946    0.59480704852382    5.94779916193871
C         3.52447595896423    2.06753819174033    5.12723114777113
H         2.85237824644503    2.88039704382968    4.85673297531747
H         3.94536236918697    2.27460279420528    6.10666650816766
H         2.93451914300069    1.15205243199436    5.18638337436647
C         2.95882970678069    1.59025141930891    2.10774442287362
H         2.47034136021491    0.70008339420805    2.50600763743028
H         2.98430537053601    1.50417439833631    1.02456363023582
H         2.35238959711720    2.45235004717818    2.38026662390276
C         5.75965400659032    0.84957732613532    0.66952120049124
H         6.68694879410800    1.21489006618563    0.23267695947331
H         4.93305257016221    1.13248032195580    0.02335083506360
H         5.80930447089660   -0.24026225507235    0.69263762577003
C         4.93982633819811    4.36018147480320    0.11550372782158
H         4.21212676514055    3.56058533874408    0.15622315324428
C         4.97808630788815    5.22623575335771   -0.96284208862014
H         4.28778851417404    5.09516522298777   -1.78002761739525
C         5.90737793160239    6.26103471189522   -0.97117269357162
H         5.95448639562998    6.95031742179884   -1.79921024152195
C         6.75544403954497    6.39924120537002    0.10958951986252
H         7.47477058391551    7.20064248040694    0.16214303429279
C         6.65966377503346    5.49013617819124    1.16478106796361
C         7.41751912372030    5.57471745305453    2.38060730191106
H         8.15775983954873    6.35572822868672    2.52409065730669
C         7.76878062579833    4.78739644479471    4.55123460451505
C         9.16084949804964    4.83142783784362    4.63097169979409
H         9.75057448114232    4.78807229869258    3.72661388534601
C         9.77224218656075    4.88957236206471    5.86936092170375
H        10.84916168619840    4.91007459762609    5.93102150670834
C         9.00764504359881    4.92953373080844    7.02511110012726
H         9.49088249206336    4.98667012500079    7.98755880218291
C         7.62345803802642    4.89759739342918    6.94406574764924
H         7.02923242228075    4.94151177499673    7.84344635531580
C         6.99871436092016    4.81274492168994    5.71471489997056
H         5.92047535330791    4.80682516239712    5.62953455019408

