37
CSD_code = AQEGOS | q = 0 | S = 0 | Stoichiometry = C18H13ClN2O2Pt | MND = 4
Pt        1.97814801911688    9.97018172281763    7.16951732275628
Cl        2.18812993378176    7.78815265479782    6.44458866121859
C         1.80287941648600   11.78199508081520    7.77145245066657
O         1.74230201893530   16.08595116835896   10.26004680251832
C         2.21133148284281   12.09312083493847    9.07140890930568
O         0.91340879079759   16.59633077683070    8.24072848507200
C         2.07716612918465   13.40454195333908    9.50306040678003
H         2.36563303580334   13.72950922811653   10.49170530158294
C         1.54490443079319   14.36131102455610    8.63067343421957
C         1.14131684149803   14.04003964886060    7.33061259457197
H         0.73865105653424   14.81919848071122    6.70238655115807
C         1.27073333517180   12.72878972072788    6.89142324837511
C         1.42294162341466   15.74272912010862    9.14660233536807
C         0.76969441068939   17.93915655327585    8.67555505051278
H         0.38700967212547   18.49601572467331    7.82386543653554
H         1.73378863625671   18.33998957688846    8.99576417472377
H         0.07247352390707   17.99398861918608    9.51448289368177
N         2.71229879731817    9.76336608860524    9.03830858583384
C         3.16334557384637    8.63934886814326    9.58680416592349
H         3.12523856404972    7.75538618760754    8.96139122610398
C         3.65648648418071    8.58222160356853   10.87859162819896
H         4.01113358567803    7.64634178991384   11.27861689672562
C         3.68306875737527    9.74465692524292   11.63599805464311
H         4.06203520825239    9.73520855839745   12.64662668215076
C         3.21472670972374   10.91828380199727   11.07314030264470
H         3.22047199105458   11.83991301156905   11.63276446874632
C         2.72943975406884   10.91780288142336    9.76971127551202
N         1.18629458012596   10.79086326930237    5.50598797942508
C         0.90859443671909   10.15403360125700    4.37247419664843
H         1.13302329391750    9.09413358479208    4.35442446813961
C         0.36476964829723   10.78975024329967    3.27012950906455
H         0.15699470071916   10.22961291938435    2.37311040568959
C         0.09724930419745   12.14912258022815    3.34774694159629
H        -0.32645441244590   12.67619158708887    2.50639698589731
C         0.38302619448071   12.81896893866341    4.52377529151424
H         0.18744096577185   13.87528808825433    4.61747901414317
C         0.92890350533016   12.13010358225851    5.60194786235196

