48
CSD_code = AQERUJ | q = 1 | S = 0 | Stoichiometry = C24H18ClN2O2Zn(1+) | MND = 5
Zn        7.85375074549896    3.37213681417880   -1.11449724268906
O         5.95263110252457    4.14311720246347   -0.51277460230750
O         9.36448952686933    1.87170667574434   -0.92151822804488
N         6.51343875281891    2.13456097644221   -2.15100332709590
N         8.84108197638967    3.94504896366870    0.64636739238571
C         5.27717846971341    2.64265424724655   -2.18019990156063
C         4.23915425218604    2.00360176410475   -2.84918066041107
H         3.23648500511515    2.39807151647964   -2.80900665504653
C         4.51839890624323    0.83478620268694   -3.54468461379704
H         3.73423888793351    0.31842923790672   -4.07678159525896
C         5.81401036330097    0.34471498644213   -3.54145967907453
H         6.07153699416998   -0.55380908717872   -4.07852351492367
C         6.78411941435661    1.02603729144820   -2.81670062418435
H         7.80575079006302    0.67843362243655   -2.76536811546204
C         5.11734188254722    3.88988901431889   -1.38047698859398
C         3.98422861046911    4.77515898948327   -1.63394024493591
C         3.47349525715432    4.97362197757317   -2.92171356398533
H         3.93037580394076    4.48171055657620   -3.76690688986227
C         2.43112052437551    5.85832408001700   -3.11900205781438
H         2.04963852242335    6.02135307001135   -4.11504525130307
C         1.87905194621603    6.54159210333873   -2.04495136787569
H         1.05795580928601    7.22290708156540   -2.20596347622364
C         2.39086393761881    6.36280557542668   -0.76751348932039
H         1.96829551886405    6.90366572759694    0.06492173405720
C         3.44721257069079    5.49922466149416   -0.56279445137842
H         3.85688925676196    5.34749293993801    0.42416971828213
C        10.02243098120007    3.33478674282585    0.78584377828027
C        10.85830136063452    3.59718893558993    1.86561855995763
H        11.77827254059851    3.04932488291375    1.99224654746801
C        10.46814532790878    4.55856504700048    2.78832821280454
H        11.09792494087228    4.78695864130432    3.63442300970494
C         9.26152893564977    5.21390920829117    2.60578565282990
H         8.92979359379440    5.97350098033753    3.29503970293421
C         8.46924592822690    4.86439123239539    1.51913625368884
H         7.51120462269711    5.33030720767137    1.33944664591938
C        10.30586038164021    2.31872679577850   -0.26676501348416
C        11.67700800730498    1.87137891621470   -0.49478974498344
C        12.76940456474099    2.73781761792417   -0.37435487990187
H        12.61162776225995    3.77681948519158   -0.12805590999266
C        14.04396602762880    2.27871567537038   -0.64440803736936
H        14.88280993971449    2.95276755264742   -0.56556945208643
C        14.24825045477747    0.95939117098211   -1.02242244565805
H        15.24816344573810    0.60567936488351   -1.22085429075592
C        13.16847634952719    0.09884673249668   -1.16127527043205
H        13.32754234895047   -0.92351051076325   -1.46708499460784
C        11.88900325463298    0.55326002785899   -0.91634468442394
H        11.03798030010257   -0.10274053883446   -1.01821184550706
Cl        8.57212410397047    4.72837864058061   -2.59308409793768

