102
CSD_code = AQESIY | q = 0 | S = 0 | Stoichiometry = C42H55NOS2Zn | MND = 4
Zn       -0.72374942895679   13.43420346754242    8.52167176341445
O        -0.12508284918951   11.84493249632179    7.22040591584313
N         1.51734888412688   13.39993894934635    8.65785699616743
S        -1.55459173047288   12.30387398031765   10.39653947387020
S        -0.79398765789792   15.32115945365032    7.11427443529051
C         2.04528207313429   12.50109349339280    7.81953390960484
C         3.39951164842242   12.16742174734365    7.86305650784938
H         3.78894604175807   11.39016459071818    7.22461404828432
C         4.21965657896812   12.82208466010938    8.76394457746939
H         5.26822433059102   12.57330418664623    8.82939156246417
C         3.67099358208638   13.80271337756185    9.57618769502536
H         4.27971151243659   14.35165027211053   10.27524475983223
C         2.31020123073052   14.04898157675417    9.49111961028358
H         1.83611880160935   14.78835915579604   10.11834205802779
C         1.07141566678379   11.84126530460054    6.92348625042988
C         1.54214426639261   11.13204683441261    5.72906039299267
C         0.82671342374434   10.00394770132758    5.31875777987245
H        -0.03345928209556    9.70063446846314    5.89647038031194
C         1.23436572872111    9.28034196845304    4.21694933393314
H         0.68272449948573    8.40343164215584    3.91310168057776
C         2.35274154025704    9.68082112309511    3.50098900463892
H         2.67612954076844    9.11296336788957    2.64135389826241
C         3.04773000331558   10.81870699509880    3.88015283253307
H         3.90446192497969   11.14070859596142    3.30769100495872
C         2.64597686182432   11.54825189118354    4.98268686867748
H         3.16217075919911   12.45863208809979    5.24341129872074
C         0.03133677354555   12.25836058193158   11.20905537836868
C         0.91051927335199   11.19843711514375   10.95425705966212
C         2.15405340440770   11.21638660703140   11.56376926119734
H         2.85046660722564   10.41279493304082   11.37516235474163
C         2.53773983185418   12.23562072791220   12.42576727247992
C         1.62624845265127   13.24012916897703   12.70243915136107
H         1.89027618304462   14.02392279346904   13.39340936788985
C         0.36704370508714   13.26420294999190   12.11811370760825
C         0.46972168418953   10.04000468050643   10.09177429035356
H        -0.16809634189579   10.43630140114355    9.29358596533844
C         1.61476661612999    9.26353815272935    9.44503990979993
H         2.31677646767886    9.93329695810369    8.95080176163507
H         1.21483899338403    8.57871331931755    8.69953523819726
H         2.15432571688648    8.67346612272708   10.18291791366260
C        -0.38695600385540    9.09906325116086   10.94571865008959
H        -1.25041997592661    9.63213953748051   11.33487591768089
H         0.19392943182317    8.71702644716945   11.78340989016510
H        -0.73614336552663    8.25943598084710   10.34873495745712
C         3.89511371252181   12.15921314247248   13.08617445007681
H         4.58572938776985   11.68921225747633   12.37427161720651
C         3.79593745900568   11.25707970501449   14.32114994222272
H         4.76791354936195   11.15588128155363   14.79974506116514
H         3.43915122479412   10.26809741070064   14.04355570702563
H         3.09698676450718   11.68220081677223   15.03815264568448
C         4.46857390982059   13.51887245538703   13.48079837705529
H         5.50835887616770   13.40826452255739   13.78216221356038
H         3.92212412358674   13.94220807977709   14.31979470873763
H         4.42335645506226   14.21823802617039   12.64895724943290
C        -0.61313729994023   14.36046719736387   12.46632637905613
H        -1.60633909576730   14.02072856894745   12.15720034652971
C        -0.66028472264435   14.63675291730607   13.96937216921562
H        -1.50959762038649   15.27685770922874   14.19778245894265
H         0.24029532166535   15.14146599895136   14.31230699464720
H        -0.77072104053737   13.70690052105184   14.52248637649447
C        -0.29126844742272   15.64376438500261   11.69615563900732
H        -0.36665953341104   15.47546784258684   10.61977405034862
H         0.71238723452787   15.99492486678928   11.93379600735220
H        -0.99965131385707   16.42545664644517   11.96102285272217
C        -0.04505765215348   14.61046271258274    5.67705768910492
C         1.26230044043243   14.98680220259485    5.33916918976682
C         1.78646759688869   14.54987245574576    4.13411470003405
H         2.78161642815826   14.85708524512977    3.84681922194443
C         1.05834233271215   13.75398842075425    3.25972736375542
C        -0.21624137332116   13.36323281501437    3.63626393848984
H        -0.79653568679646   12.74542739012703    2.97291580961078
C        -0.78531715064242   13.77236548306886    4.83268698614643
C         2.04562305751714   15.92004982872760    6.23067404941953
H         1.67536504775679   15.79324170075736    7.25389251417061
C         3.55018032203859   15.65305764949541    6.23116005370333
H         3.76155007578855   14.59760486510959    6.39695548236400
H         4.02195616673797   16.22289597556432    7.02948185755635
H         4.00649600305591   15.95689491221777    5.29199503995539
C         1.75911156854382   17.36432773837132    5.81008821301086
H         0.69474537367642   17.56710526080570    5.89489799193767
H         2.06408810740999   17.52611651712915    4.77803856368377
H         2.29903545125943   18.05945886891847    6.44931759212513
C         1.65015289154630   13.42721190766851    1.90835825218505
H         2.72161730731525   13.23854873360094    2.04862566301008
C         1.49805738319710   14.65102006891111    0.99712630306188
H         1.94274392811021   14.45816924168987    0.02294173161075
H         1.98279830695350   15.51993705988569    1.43562779470319
H         0.44446107226099   14.88372168837443    0.85866870217948
C         1.03245123547473   12.20255600843023    1.23787227815514
H         1.61718094853640   11.92812850924975    0.36200596149476
H         0.01788272462259   12.41288039733483    0.90840273820149
H         1.01279431339786   11.35565868388743    1.91974661358505
C        -2.19463260875298   13.36857064901737    5.18761762226193
H        -2.25888354603551   13.28812458065155    6.28359981144655
C        -3.16391625155293   14.46583150567972    4.73807623129676
H        -2.90847731627869   15.41119580840538    5.21011979840177
H        -4.18318001633314   14.20385508188332    5.01271547496277
H        -3.11222198239772   14.59161954100382    3.65786773788457
C        -2.60901764742924   12.01678946929535    4.61098996371383
H        -1.84549356719232   11.26784508335177    4.80834743982342
H        -2.77919807667709   12.07588515370541    3.53793491200382
H        -3.53703955751021   11.69443231719341    5.07815137997707

