41
CSD_code = AQESAQ | q = 0 | S = 0 | Stoichiometry = C19H7F10NOS2Zn | MND = 4
Zn        2.46852918691551    9.22529425158502    3.65022423458587
S         3.78339093681787   11.18308529122765    3.45619610515001
S         3.93041259842711    7.36896537306538    3.41765492323524
F         8.41711461242393   10.33612439684170    1.51614636184697
F         6.75792340664605   11.29791888449530    3.41838962765157
F         3.56336167559971    8.92428559404184    5.92789481035698
F         6.85953234263124    7.29729166227029    2.96230390240063
F         8.14729863958600    9.61686291980721    6.86112638911496
F         3.04238862211704    9.61548733687768    1.03639525887135
C        -0.47516926277554    9.12030104909951    3.03189231222508
O         0.76584936179097   10.00311004254424    4.81582720304496
F         7.41609051033813    8.97589877459188   -0.63246239748373
C        -0.31516077390523    9.94958604339944    4.25966117935909
F         4.70541332946260    8.60847467536696   -0.84780910418981
N         0.66244266408423    8.57745034228767    2.58912723207201
F         8.79990301922942    8.28261238750045    4.56858938980298
C        -1.68676983461010    8.89746998484219    2.38528077597249
H        -2.59936082106535    9.34020460869048    2.74920082308939
C        -1.69956759081791    8.08538275438500    1.26011906208628
H        -2.62504738198770    7.89498713947913    0.73822255684101
C         5.84869889852239    9.28756965446727    6.41420016961986
C         6.59440671522226    9.46084130411540    0.29991514417873
C         5.21945542621306    9.27789383134194    0.18910447801653
C         7.10095554445963   10.16085574426454    1.39307863592120
C         4.85329547609164   10.51059816265857    2.26214203065367
C         4.37963290931178    9.80781054969180    1.15326488117880
C        -1.50151661480874   10.69794203436167    4.77620907997460
H        -1.20356833122303   11.29114898633935    5.63672647730804
H        -2.28140770781836    9.99990149484192    5.07548205169941
H        -1.90270523111386   11.35119806439116    4.00406533370037
C         5.16542017250733    8.05716872288045    4.42413290885654
F         5.51248275355851    9.93994359848659    7.52824709219532
C         6.24054896232640   10.66900682824619    2.35628940602634
C         7.51942683872555    8.43801156730798    4.90783491302782
C         0.65546731461699    7.80097773917001    1.52298536286661
H         1.60857859427291    7.38928339709186    1.22475466017578
C         6.51908333863678    7.91915859506609    4.09865889938663
C         4.86644395710095    8.75145186015825    5.59842443350629
C         7.18884951976959    9.12454080341281    6.07415589827835
C        -0.51165634148702    7.52313907768988    0.82186261123814
H        -0.48166743570896    6.88356447164432   -0.04511511383671

