48
CSD_code = AQESEU | q = 0 | S = 0 | Stoichiometry = C24H9F10NOS2Zn | MND = 4
Zn       10.64038997305480    8.02952231605976    8.61448725994161
S         9.98341382708854    9.52334596570485   10.34521215969687
S        12.17322685858520    6.50578667543469    9.59741519680677
O        11.21268910383511    7.86902167244525    6.51678809655373
N         8.75510575419730    7.73832079428796    7.51891553343576
C        11.59156534092387    9.71712314917297   10.96485844347493
C        12.70431174273844    9.82563983442110   10.12781761693811
C        13.98795849530429    9.99618422074315   10.61839370565502
C        14.19313374985425   10.08013120929585   11.99268018638735
C        13.10335604598008    9.97496368469771   12.85423942736847
C        11.82728108553188    9.79232828274089   12.34218096167076
C        11.35483024663940    6.44765050940789   11.12856388456985
C        12.05434560324236    6.54782082020836   12.33658115442683
C        11.40777079884239    6.47901969552939   13.56250576180581
C        10.02491188324389    6.31646077304307   13.61789234983661
C         9.30413177643197    6.22453807566961   12.43132971870543
C         9.97245388833474    6.27958637260390   11.22088212692234
C        10.31121237272455    7.57744242587539    5.74006866415069
C        10.56122315356724    7.49450679794320    4.29601078309205
C         9.61899588929343    7.90593897003324    3.34988049269566
H         8.67171941273686    8.31339916843371    3.67001847987819
C         9.92679510468232    7.85102013049116    2.00374282917113
H         9.20181962436146    8.18139237943972    1.27544290000449
C        11.16341013988422    7.38124803272070    1.58711281514492
H        11.39321652103764    7.33424366735994    0.53354949016730
C        12.10984010943479    6.98898549737663    2.52184901483776
H        13.07744482099618    6.63808884755285    2.19803444318773
C        11.81914373378803    7.05831425243609    3.86970452919678
H        12.54474213766350    6.76457912946220    4.61257341553768
C         8.94720388156311    7.30168897709336    6.27153299514365
C         7.96233541687758    6.59912031992850    5.58469132826570
H         8.16064906557882    6.18920063054080    4.60734253609960
C         6.73400921537189    6.40823862398748    6.20218446976557
H         5.95207261889990    5.86167698590732    5.69714963085250
C         6.52929883028856    6.92608541344961    7.47065238807861
H         5.58370337671133    6.81365762301828    7.97549322793813
C         7.58239455153147    7.57622182076640    8.10170954936623
H         7.48726980699121    7.97626716882432    9.10083524265921
F        12.51318483302223    9.73403235754929    8.78886587041711
F        15.01903495252912   10.09813364887772    9.77746262686966
F        15.42185090278192   10.26577736252196   12.47960760019536
F        13.28984370754736   10.04802116415085   14.17300395562714
F        10.79979903592228    9.65570896655935   13.19053766524137
F        13.37773359667456    6.74823647563522   12.31339744772881
F        12.10920790841397    6.57516659864125   14.69270162260995
F         9.39922389434947    6.24381259254137   14.79432171543806
F         7.97602505662168    6.06876398709579   12.45354964649157
F         9.25792015431336    6.19508593232189   10.07112903995177

