91
CSD_code = AQESUL | q = 0 | S = 0 | Stoichiometry = C37H47ClN3O2Rh | MND = 6
Rh        1.82433779512466    2.01455308012414    3.57663960836004
H         1.80349711920470    2.98378001249002    2.45765378188144
Cl       -0.06587833652188    0.95505571171506    2.88122687113186
O         3.55976382915528    2.79075456727789    4.26649494645480
N         3.08159714165610    0.82729881130099    2.54363886393516
N         0.24927637346354    4.48083852571564    4.27952449658334
N         0.28766972075232    3.11758553625729    5.93501152694840
C         2.81840161438903   -0.13703242667927    1.68532661807538
H         1.78147729846974   -0.28624220083800    1.41324581697470
C         3.82269311662798   -0.94984371686916    1.14206777782743
H         3.54621196725912   -1.72587641826762    0.44484834375505
C         5.12916304472874   -0.74748729953730    1.49763345358171
H         5.92183407865107   -1.35853431719157    1.08990601171514
C         5.44832308337909    0.28117179964114    2.41004780297397
C         6.74627211543574    0.58237174237637    2.84981562969577
H         7.57681601884306   -0.00039948956697    2.48183464864130
C         6.94315867760533    1.61524381695236    3.73850550570751
H         7.94681229113050    1.84405729667228    4.06892896280970
C         5.89233750962243    2.38010609824395    4.22956002213671
H         6.07868319148958    3.18456610797049    4.92398219314312
C         4.57727194046300    2.12215038814142    3.83677630863674
C         4.36685356258009    1.05160813265375    2.90762782086186
C         0.70799001431386    3.26873889825796    4.65922607115198
C        -0.42649346958334    4.21657107910551    6.33978819797667
H        -0.85814441678811    4.28295883819215    7.31738300813109
C        -0.44838930064559    5.07466403093757    5.29815366522312
H        -0.89508879013090    6.04163915387155    5.19132687008787
C         0.39932852361397    5.11825308069788    3.01441670058781
C         1.55094788731856    5.87111647105740    2.76427198424307
C         1.62157628204978    6.57039721850906    1.56768620453018
H         2.49074033774934    7.16952411547525    1.34860457275085
C         0.58898192010992    6.51419420659378    0.65054735412005
H         0.66017401992440    7.06914725563266   -0.27346859517496
C        -0.53137019994289    5.74986895978049    0.90908005000262
H        -1.32759398245920    5.71233852753456    0.18237129052278
C        -0.64804713897326    5.03493795780185    2.09428321050838
C         2.66592725964624    5.94773554097684    3.78041818912795
H         2.60284486094389    5.07210903561723    4.43116821739441
C         4.04710172240287    5.90740120205184    3.12825981316098
H         4.11131233475341    5.05881305679787    2.45227539287598
H         4.80696122887080    5.78594766400887    3.89615432156190
H         4.26402365449984    6.81996920343790    2.57839391507262
C         2.50363242359307    7.21196402635661    4.62977309217805
H         2.54378416833336    8.09916227450376    4.00069223404389
H         3.30177178272206    7.27372343449011    5.36591603089430
H         1.55095565878320    7.20731407288833    5.15564480931398
C        -1.88635918987953    4.21580884144643    2.37294008288196
H        -1.71183979894229    3.59403423339127    3.25543641959244
C        -3.07411464559463    5.14051655266374    2.65435923992568
H        -2.87012009479050    5.78802105232829    3.50500921476365
H        -3.96157841229145    4.55196687297893    2.87542874210770
H        -3.28265591363518    5.76757279137713    1.79054335174678
C        -2.19972627215765    3.26572820830186    1.21742447293566
H        -2.44857963080660    3.80555444485656    0.30771212340052
H        -3.04292288027503    2.63279506348385    1.48368504448370
H        -1.34423091444844    2.62446529683679    1.02606223242439
C         0.48985431145749    1.99883476878730    6.79132884158959
C        -0.54826029794368    1.07637013908020    6.94303954274366
C        -0.35262901553775    0.01452898611196    7.81803730654009
H        -1.13699133591828   -0.71321918910951    7.95896278266544
C         0.82870294521378   -0.11644928077278    8.51936323334261
H         0.96376498753775   -0.94767947572490    9.19657559643138
C         1.83566966326090    0.81916559502948    8.37058653011351
H         2.74412568901425    0.70725998305352    8.93986694345702
C         1.68897389172551    1.89425384466538    7.50584913649604
C        -1.87545667398363    1.23661060186343    6.23758930630011
H        -1.81095623001597    2.06420746561737    5.52587751352301
C        -2.95805091276037    1.57366728952584    7.26876122608426
H        -3.10023439503579    0.74676701760041    7.96043310700263
H        -3.90341245073098    1.76893066867313    6.76781520556879
H        -2.68579667458581    2.45605757554292    7.84493184557715
C        -2.26018668479065   -0.00880369769635    5.43803186491967
H        -1.57589176902246   -0.14032379878714    4.60354624086666
H        -3.26070672514677    0.11707700615235    5.03052212844392
H        -2.25405695363583   -0.90306231577494    6.05555258978528
C         2.75947008035901    2.95252360216081    7.37467848248201
H         2.73448240217435    3.34456486703512    6.35416362168886
C         4.17028578741366    2.41540574818002    7.60669856396193
H         4.33790371253298    2.15292351640851    8.64914848617410
H         4.89417839343409    3.17933463286403    7.33356639765633
H         4.35215631695979    1.54271212185349    6.98495274930854
C         2.47029650271439    4.09592075093122    8.35390674515054
H         1.51017416536575    4.56191416589159    8.14495330504818
H         3.24261545841474    4.85765603195462    8.27524337653557
H         2.45632773095637    3.72215135506527    9.37655835486957
O         1.78901647131545    0.13405435076298    5.09020546123667
H         0.96717347495763   -0.23676136803461    4.72118149247690
C         2.71339816185588   -0.90136616980190    5.32140821351662
H         2.92564419142051   -1.47883786644572    4.41472394472912
H         2.33643120720855   -1.57613747200669    6.09742251513176
H         3.63911239201131   -0.44422987151065    5.67015281222238

