71
CSD_code = AQEVUN | q = 1 | S = 0 | Stoichiometry = C28H39NOPPd(1+) | MND = 5
Pd        0.58763036141684    2.07180247001741    5.27739811125549
P        -0.07582805965337    1.12185525369503    7.29010059898687
O        -2.80659723469911    3.90078972207727    7.07894090350275
N        -1.20389917480660    3.31725731069830    5.65836304557524
C        -1.26777271077613   -0.22290818525027    7.61890638737307
C         1.33456980752602    0.90034679997919    8.50434000329794
C         0.87526602407310    0.77831402429395    9.95410080458728
C         2.23998325632810    2.12732492800995    8.32647771964802
C         2.07735722206173   -0.36809073724871    8.08065887557217
C        -0.97932635540876    2.59947484214185    7.98429822167522
C        -1.64968986314529    3.28918669737301    6.85466194123110
C        -3.22293999118914    4.47821631654317    5.83806287186975
C        -2.20348469652215    3.94413476903959    4.80224878524697
C        -2.78372982935431    2.91463049157780    3.79166384160217
C        -3.28147842500796    1.66391009935496    4.52085434806953
C        -3.91240123702281    3.56509593102842    2.99053334211248
C        -1.67030101687700    2.49713705402499    2.82781528123152
C         1.81108898550567    3.36350432375750    4.00433544931468
C         1.92321915444823    2.03111667034289    3.62064430066616
C         2.31444520605672    1.08669398603123    4.61431821797312
C         1.24406793045230    4.43645957215234    3.19625182729733
C         1.07695517975651    4.33895203544533    1.81213869848119
C         0.52328674691107    5.38621897430526    1.10006943278272
C         0.11611972059429    6.53996413997203    1.75172510025960
C         0.28017421379574    6.65141616774150    3.12402994361915
C         0.84853276855502    5.61519690104630    3.83847877982641
C         2.13735548345447   -0.35040016839350    4.35819014931514
C         3.18693855462792   -1.25334245829085    4.51673732822648
C         2.99317015304292   -2.59979406746566    4.26593136994861
C         1.75016244235999   -3.06376437426914    3.86943488501671
C         0.69322922632523   -2.17694440693641    3.72692902419682
C         0.88359375589012   -0.83060622309377    3.96707529179885
H        -2.19739872632804   -0.01550382213767    7.09025903090341
H        -0.86242282310646   -1.16367892422194    7.25004715900266
H        -1.47047374673585   -0.29911102749866    8.68607972239218
H         1.74852576143640    0.75083602571338   10.60308245453361
H         0.25953570018694    1.62193506332480   10.25861571187223
H         0.31778264813815   -0.14055200973791   10.11713809116866
H         3.26114113013619    1.88975167990898    8.61692692251924
H         2.24873229378047    2.45972261684005    7.27408373943231
H         1.90801598373451    2.95785059148229    8.94693459070863
H         1.45348605116077   -1.24858388113439    8.22008562269473
H         2.36506554118306   -0.31656570154372    7.03114026687251
H         2.97567366930116   -0.49693273074866    8.68074758193127
H        -1.71909470488294    2.33629518970072    8.74360177935139
H        -0.24619705147378    3.28063143096187    8.42506213466106
H        -4.25038907394793    4.16987000727553    5.64875610152947
H        -3.18871080388184    5.56598539345756    5.93661488009352
H        -1.74004618462296    4.75945060935010    4.23638514331172
H        -4.00131318454833    1.90462554099429    5.30012358272656
H        -3.76325625420333    0.99315920513844    3.81463200426146
H        -2.43554951394873    1.13531841866700    4.97274078888632
H        -4.78185572342571    3.77627864715347    3.60648301867648
H        -3.57426456148613    4.49619214645650    2.54195395664064
H        -4.22583724084555    2.89689578073990    2.19280439207124
H        -2.04389337217168    1.75357892866469    2.12786876682667
H        -1.30795162919233    3.35261939708751    2.26243007775464
H        -0.83386556162494    2.05382648919654    3.39388099551229
H         2.40504698999496    3.70757297315033    4.86615842319584
H         1.53433231090955    1.68354207279793    2.66653597739297
H         3.16457199316028    1.35450234764272    5.25080434750751
H         1.40307316423155    3.45293338216868    1.28855534530031
H         0.40984214002924    5.30323493049700    0.03000742580695
H        -0.31798224725397    7.35314422846869    1.19117412811546
H        -0.02669869527943    7.55253978086735    3.63346741834701
H         0.97893180740094    5.70217614677026    4.91009289283717
H         4.15906037116891   -0.89463326361021    4.82284795162493
H         3.81502917992124   -3.28897549242059    4.38300411610235
H         1.60155970873159   -4.11485646168917    3.67757935136246
H        -0.27897673123030   -2.53983285883209    3.42944235942014
H         0.04217377765566   -0.13499169839684    3.87993686840507

