77
CSD_code = AQEXIE | q = 0 | S = 0 | Stoichiometry = C35H38N2NiO | MND = 4
Ni        4.02805645174023   19.91660012845566    0.86359444277306
O         4.03247133796854   18.33454997736604    1.98377049922913
N         2.68850869219390   20.72955615729374    1.94710528432632
N         5.45875381905157   19.15479847426637   -0.08585498035412
C         5.98272620404502   16.93641512687495    3.22450328035397
C         2.44261622223475   16.10170459253485    4.26826411489223
C         2.43272769702023   22.12527966379744    1.88013587059961
C         3.26339085491052   18.02341232004224    2.93403383340289
C         2.01207579170545   20.10518176968511    2.88886606573288
H         1.25500598838111   20.69773167928738    3.40963212501851
C         3.51824757591747   16.76048562332938    3.66634836497182
C         4.80408966457873   16.21079001424433    3.72992545995658
C         4.98005060559280   14.97432621010878    4.34258944748482
H         5.97255630815795   14.55001098328944    4.39615419670260
C         6.87679072778483   16.31752657235340    2.35825306719532
H         6.67303584022889   15.31360799002792    2.01264370483874
C         6.66301912241394   19.71610477969061   -0.18713246876317
H         6.76582521410463   20.72096804643259    0.20153735097854
C         6.25094717889046   18.23396888610045    3.65577150130581
H         5.57022197429341   18.71765834676134    4.34179622280790
C         1.27944148812991   18.26776513894317    4.43996323725490
H         0.31299245375187   18.77460389483284    4.40540512466072
H         1.71337918428339   18.44429200401110    5.43225176055925
C         2.64502659893138   14.87503199242409    4.87769372532046
H         1.81157994721090   14.36292556381148    5.33746353426090
C         2.18485645306002   18.80839224811568    3.36335081662460
C         3.90742192029775   14.30490885277865    4.90096904673049
H         4.05711294948749   13.34459149916199    5.37269057295045
C         7.37776578920262   18.89897104159303    3.21470002842062
H         7.57258960889069   19.90766593963711    3.55003196656290
C         8.26268297026751   18.27456761122027    2.35063010110513
H         9.14854407136771   18.79331253086337    2.01309216747813
C         1.21967969469620   22.62053947784926    1.38919000095416
C         7.74048545193216   19.07738843811207   -0.77385401619647
H         8.69365403831940   19.57836859741804   -0.83763738411969
C         7.57195634026465   17.79772688600903   -1.27720211532138
H         8.39046436808587   17.27461960630399   -1.74875831095392
C         1.09715767834922   16.76523641766830    4.23663404781564
H         0.44878520450100   16.34365525252571    5.00694001348646
H         0.62560692316804   16.58852488052183    3.26391626253075
C         3.87843963009216   21.29224824955061   -0.51487173750560
H         2.82148459160874   21.42130977862683   -0.76942008928813
H         4.40586018290828   21.03891717540749   -1.44126976396154
H         4.25600443815571   22.26199407239535   -0.17606854707748
C         5.29939702945919   17.92088170078406   -0.56119362130434
H         4.31360289027361   17.48422162068912   -0.46330732185299
C         0.17006969475198   21.70086610179625    0.80506197598353
H         0.58408878084341   20.68846127143188    0.75887422814667
C         3.41921462847029   22.99794673457831    2.36948888123012
C         0.99754440119442   23.99114716060469    1.42697007298213
H         0.06402327768269   24.39063022451286    1.06017604124849
C         8.00977357499014   16.98244229959173    1.92545615313124
H         8.69813982102529   16.48970981895306    1.25297725228831
C         6.32367699654471   17.20982034746587   -1.16113221429492
H         6.14081159786483   16.21406384836480   -1.53384498487140
C         1.94826991087038   24.85299975446454    1.93508500185361
H         1.75305503086982   25.91500697873719    1.96861558262074
C         4.72757577216975   22.43234409321587    2.87705624613013
H         4.91627216982394   21.48348645321878    2.33018803132070
C         3.15528165284506   24.35738638174440    2.39508472283650
H         3.89214107240665   25.04282290169243    2.78358549562516
C        -1.08494674678759   21.67478767341792    1.68129938260460
H        -0.84969000277601   21.34035804562633    2.68924831627594
H        -1.82363697422420   20.99654223772058    1.25894168197243
H        -1.52680037276880   22.66646724985223    1.74773785277136
C         4.60773050217359   22.10377107952167    4.36743827318344
H         5.54205314478629   21.68913981888460    4.74085658882932
H         3.81662598932516   21.37634435442349    4.53535356517254
H         4.37557914034485   23.00330680759976    4.93534336357640
C        -0.19616646794124   22.11986898951965   -0.62108706382037
H         0.69640195123243   22.19373545880615   -1.23785055507977
H        -0.69977912992936   23.08315384069525   -0.63156625109164
H        -0.86202847871263   21.38285181183439   -1.06553416169946
C         5.91973767914292   23.35348822002755    2.62664632206664
H         5.93337502026453   23.68854918824998    1.59204559380327
H         6.84663618807802   22.81995737675011    2.82879819731378
H         5.89048100749752   24.22560566353809    3.27600952528370

