107
CSD_code = AQEZED | q = 0 | S = 0 | Stoichiometry = C34H58F4MoN6P4 | MND = 6
Mo       -8.51612195101259  -11.04662638703993   -8.80225343615128
P        -7.77917907159523  -10.95905875324763   -6.54889640412741
P        -9.34035258322674  -10.92021889025224  -11.01473272585079
P       -10.03425285533506  -12.76666230516051   -8.08819994684804
P        -6.82338851414817  -12.50294081294772   -9.68046521836509
C        -6.00925087577471  -10.55171930228470   -6.22527162746906
H        -5.42975649759320  -11.32103088945684   -6.74487898878000
H        -5.83650669455466   -9.60808808343057   -6.75446220309460
C       -11.16632564775222  -10.71987704866897  -11.18037808597049
H       -11.60481347107869  -11.57828251390731  -10.65852953744150
H       -11.40966457507762   -9.82943631626480  -10.58981413660845
C        -8.69344510144658   -9.53103204874362  -12.03553385155053
H        -7.60284142101028   -9.59765149208107  -11.95442969339115
H        -8.96235649576698   -9.66872388565056  -13.08901562979701
N        -9.35750996974313  -12.85312265677382   -5.46931510656873
N        -7.63013116997831  -12.56978800055703  -12.27378101438627
C        -5.53418844552185  -10.43547032742114   -4.78084679721604
H        -4.49926544258322  -10.09557509960641   -4.76860036082239
H        -5.57433581766122  -11.39423437634804   -4.26865987895501
H        -6.12864436101647   -9.71782009227783   -4.22072631109687
C        -7.30900889186019  -11.86654887107067  -14.57064094788699
N        -9.82191870948329   -9.82332008449857   -8.34205041941314
C        -8.64733002324909   -9.72505211721803   -5.49194099565406
H        -9.71607748047713   -9.90927189162046   -5.64341455537930
H        -8.42165580287583   -9.89959992344647   -4.43408744902329
C        -9.05101225166486  -12.28929245067936  -12.21260868333691
H        -9.64049710402051  -13.18032452188076  -11.93115686089361
H        -9.39887118224449  -11.94841669885947  -13.19106844728431
C        -7.97170774108575  -12.42885324527012   -5.45468848730915
H        -7.28826501350083  -13.23702838284750   -5.77272470432898
H        -7.69088340168734  -12.12526223270799   -4.44336422572892
F        -5.37791928230019  -10.89321204316072  -13.64783769608908
C        -7.22119091184789  -13.01578121279474  -13.60385275260907
H        -6.17781736568023  -13.33863160907319  -13.54829319963124
H        -7.83267159113035  -13.85841383759793  -13.96654821780412
C        -9.63180823032828  -13.74946951917385   -6.57052141153259
H       -10.51164091505372  -14.35455896213973   -6.33486542266065
H        -8.78740219319619  -14.43418021223251   -6.76824307347478
N        -7.37239820529907   -9.64569482048358   -9.18388570000499
C        -7.20887642560894  -13.46711166645460  -11.21998412536042
H        -6.28469479214173  -13.96765295112927  -11.52613880536290
H        -7.95996103918307  -14.25102185430078  -11.01435097214433
C        -5.27821627111633  -11.75488296885280  -10.35625580275349
H        -4.74377442853906  -12.52299685265380  -10.92541657392756
H        -5.62522952742741  -10.99864277928882  -11.06796998920198
N       -10.61114500693421   -9.05401618791927   -8.13708749821035
C       -11.65580409894476  -12.08525837229872   -7.53911448830062
H       -11.41016359014551  -11.54281836961072   -6.61881540515757
H       -11.93772946924210  -11.33779331100418   -8.28743383704132
C        -4.33747659377885  -11.11609160053397   -9.34562740461060
H        -3.45000909394980  -10.74666029754481   -9.85793036255206
H        -4.01882187062941  -11.83507906263459   -8.59229328143361
H        -4.81429208139118  -10.27391872033703   -8.85282681381077
C       -11.76091811234443  -10.60150396401329  -12.57908997431446
H       -11.30005625780318   -9.79089361663240  -13.13854861844566
H       -12.82758185207420  -10.39322582866085  -12.50393789824728
H       -11.64068210862320  -11.52418508720676  -13.14257879969206
C        -9.17175304832689   -8.17697254840117  -11.52595490771167
H        -8.58818490866202   -7.37461131323396  -11.97396227394555
H        -9.05978259008430   -8.11414295519366  -10.44397923765814
H       -10.22008133217967   -8.01515159938928  -11.76780079262612
C        -6.39512139090882  -10.81847939576156  -14.52220080477506
C        -8.30428270953835   -8.29462457580093   -5.89074710680719
H        -8.34133695418435   -8.18029671778775   -6.97389071363544
H        -7.30564960691205   -8.02237406695706   -5.55572027843983
H        -9.01554191869316   -7.59682764367421   -5.45246893441363
C        -6.20823771231399  -13.89644493627936   -8.62634434414076
H        -5.89243874818155  -13.42516280384380   -7.68884403645862
H        -7.10332582317138  -14.48900749109227   -8.39865295159056
C       -12.83747375986349  -13.01397907323861   -7.29331870143536
H       -13.14169894392399  -13.52011904215432   -8.20713931112628
H       -13.68125687849044  -12.42340590938255   -6.93992383438020
H       -12.61882876809118  -13.75765571217095   -6.53059209742931
C        -5.09991391839125  -14.80413498889999   -9.14603724602169
H        -5.42553723865686  -15.37720318362350  -10.01096917254130
H        -4.81439877430384  -15.51180011446679   -8.36788899432170
H        -4.21661801346271  -14.23209634186402   -9.41868306673366
N        -6.68923586079326   -8.77587570410627   -9.36399696732788
F        -9.22965149767600  -12.73870480686487  -15.62596399682256
F        -7.88047542458670  -13.03080987956719   -2.06557966138814
C        -6.47645048585595   -9.71323597937377  -15.34861023866895
H        -5.73943893634367   -8.93149796725116  -15.26019955391729
F       -11.81907824978690  -11.46164980877283   -4.11017570893548
C        -8.88003086572514  -12.12672243295061   -2.16317857998949
C        -8.31710380810319  -11.74781920585191  -15.51942665770845
C        -7.50615808747604   -9.63616200931157  -16.27013194805830
H        -7.58552181369079   -8.77813149122348  -16.91840665628202
C        -9.83676210769678  -12.29241707610760   -3.15718041570002
C        -9.77725799243528  -13.39528433016955   -4.17850391094102
H        -9.10622358165734  -14.19585848906285   -3.82602150782357
H       -10.78321102674847  -13.80825723320234   -4.29555347517341
C        -8.43145157378975  -10.65993467070346  -16.36598075006981
H        -9.23877628198900  -10.62804543351113  -17.07989344911876
C       -10.84611057427902  -11.33531679751702   -3.19245217021280
C       -10.94755865830316  -15.50956926878459   -8.69288006579587
H       -11.19668936993164  -16.16188633367349   -9.53032867611306
H       -11.82849990383719  -15.42494475150123   -8.06433438199140
H       -10.15740855226614  -15.99160801304860   -8.12165919891342
C       -10.48943112378006  -14.15897678588194   -9.23513073663150
H       -11.25161651098626  -13.74467557223383   -9.90560592718034
H        -9.59019742819108  -14.31884454913846   -9.83731002033690
C       -10.90220892145558  -10.27062178929657   -2.31247567177581
H       -11.70796600117178   -9.55915712748993   -2.39405430995221
C        -8.90203973899834  -11.07705878648674   -1.26273290516242
H        -8.12760707987668  -11.00473210660485   -0.51608758060690
C        -9.91819953175055  -10.14233554373981   -1.34779792679201
H        -9.94543609080569   -9.31435021786931   -0.65754330754593

