49
CSD_code = AQICIN | q = 0 | S = 0 | Stoichiometry = C23H20Cl2N2OZr | MND = 10
Zr       -3.08001419034576    7.47438573231858    2.39269522725809
O        -4.66268283710047    6.21569690048470    2.23965436574461
Cl       -1.73217508504331    5.46027681720923    2.52998261673600
Cl       -4.63426805598351    8.96331153909626    3.52992253813357
N        -3.31538139684766    6.71366251182743    4.40749743042237
N        -1.46090616018043    8.41862210902412    3.86972723545571
C        -5.04133202692368    5.59196788131601    3.31047199030705
C        -6.09938499901258    4.68577492595218    3.40533993418711
H        -6.67737547662569    4.46007864428560    2.52241483505327
C        -6.40408711989220    4.08277593076183    4.62228977556182
H        -7.23049657679477    3.38716765573200    4.65176845321368
C        -5.70383077257428    4.33116649352619    5.78883900949187
H        -5.97828462995811    3.83950895515171    6.70910602193609
C        -4.63249237818652    5.22824437568257    5.77216263701304
C        -3.81765390610425    5.59595764803204    6.87326015999188
H        -4.01767348516010    5.15456238377584    7.83892697540741
C        -2.79642788926251    6.49518802538826    6.71850888978782
H        -2.17317769925464    6.78159634064153    7.55174540253536
C        -2.55887558844776    7.05556850754094    5.44099306667326
C        -4.31298210268614    5.84759155502258    4.53005624299749
C        -1.53881562287946    8.01625402112977    5.08665999439629
H        -0.85791126276456    8.38012456199122    5.86172953718154
C        -0.45809565362488    9.36619257450136    3.53255669254511
C         0.78435134145389    8.91151656967764    3.07378795565395
C         1.73264688735080    9.84918702220785    2.68951252221671
H         2.69003966171116    9.50752034347046    2.32575623925952
C         1.46498612478437   11.20383272400923    2.76578360833311
H         2.21075454279453   11.92039816409448    2.45748939375063
C         0.24265262116269   11.63795900416880    3.24365616877178
H         0.03565318234922   12.69519033825662    3.31382830068357
C        -0.73313850708126   10.73363303266327    3.64137275516897
C         1.07429150426712    7.44508300899751    3.00534101819291
H         1.15813394777484    7.02398828654169    4.00782149971054
H         2.00966718452763    7.26578879897834    2.48217325942514
H         0.26978605021009    6.90822856266678    2.49757773403888
C        -2.04344677089485   11.20840081452926    4.18799629054207
H        -2.06768500436306   11.08805675572221    5.27173448818186
H        -2.87745655071687   10.63537624378595    3.77926896172818
H        -2.18848381237388   12.26174775393846    3.96372667987051
C        -1.76178549015212    8.80349292254336    0.71604547354200
H        -0.82293123743704    9.32260096616326    0.86490470278968
C        -1.90828891265882    7.51023912565625    0.16616791435401
H        -1.10168185100377    6.84568302232225   -0.11657793743517
C        -3.28062435104834    7.28729230058755   -0.07540252543243
H        -3.70678438195826    6.41780043243402   -0.56362711565800
C        -3.98693268744906    8.44764600161466    0.31868096277768
H        -5.04881785139969    8.62327677685973    0.18623685285043
C        -3.04791539271966    9.38514698510719    0.80554777365501
H        -3.26536533148936   10.40933795262558    1.08338799102791

