57
CSD_code = AQIDIP | q = 0 | S = 0 | Stoichiometry = C25H20BrN6O4Re | MND = 6
Re       -0.25423729025479    6.14127058364325    3.66911150760103
Br       -1.23322701517756    8.34715110214358    2.76252648738795
N        -1.65134303472614    6.45988093145705    5.26455744418833
N         0.76983506295184    7.44873185109325    5.02221152590024
N         3.58733536181797   10.30937852640774    7.98389605636287
N         4.71527453459555   10.31339181504085    7.27797114838539
N         5.67107559194765    9.90957895365201    8.02323890645199
N         6.46684505783475   10.32131555276032   11.18771300034392
H         7.29314731407954   10.81242208562688   10.88748786974677
O         0.90074237526632    3.59626453064630    4.98006124863524
O         1.86228776968255    6.30215997358028    1.41566270374156
O        -2.23364118311988    4.64159325544749    1.82113551885739
O         4.45620261713047   10.53422429469127   12.19148515506614
C        -2.85945880520745    5.90694307285430    5.34577593873384
H        -3.07749194033423    5.12166945275585    4.63330959781596
C        -3.80756392828891    6.29234154176421    6.26961828153059
H        -4.77314986177766    5.81253715834129    6.27885559821755
C        -3.50770510189939    7.30661713971034    7.17700025838232
C        -2.24294656177546    7.86924900615139    7.09963008369975
H        -1.97427542544112    8.65434983843758    7.78728437829389
C        -1.33487673808194    7.43595687453848    6.13705076381763
C        -4.51453933816391    7.77814011792298    8.17082126063450
H        -5.21294683371418    8.45954598047637    7.68421942331382
H        -4.03963032506654    8.30698813634552    8.99319598987524
H        -5.08710867659820    6.94139783749915    8.56455940105140
C         0.01308931237295    7.99760811499012    5.99158375260143
C         0.49592115694592    9.03714885166351    6.78540121846908
H        -0.12810122343217    9.47612714212758    7.54652487541381
C         1.77298338691436    9.52643202075366    6.57873389972169
C         2.55165135361262    8.93036631839418    5.58977642103645
H         3.55926497783115    9.27103897148020    5.40912184123007
C         2.00981594661079    7.90238611729385    4.84732358784797
H         2.59141091117514    7.42695004188673    4.06817235542109
C         0.47320552759834    4.53812131616555    4.48457251108010
C         1.08583287542597    6.18262475326303    2.24774750808422
C        -1.46357709836910    5.15007030207890    2.49879698453146
C         2.32818016946429   10.66935468612519    7.38982775408897
H         2.50409531732731   11.52265647745641    6.72589956017787
H         1.63387782816614   10.96269735449199    8.18029835830604
C         3.83265088390315    9.87379992604835    9.23792520139564
H         3.09221372176885    9.79679918467423   10.00422294044261
C         5.18870939262405    9.61805026399117    9.25023545551106
C         6.04766452279718    9.18287152713217   10.38980076854490
H         5.47355000638510    8.51886014554169   11.04160653770245
H         6.93479753061765    8.67259799286878   10.01431335416788
C         5.58769325752457   10.94686534625104   12.01165207788983
C         5.21890565448697   13.16714107187791   13.03394566259775
H         4.17557949382338   13.02937281684205   12.79243564292364
C         5.65773266186873   14.31346903841292   13.66941347744438
H         4.95417835863026   15.09182861434373   13.92497899729516
C         6.99903537219780   14.45964140954871   13.98271311138931
H         7.34421902469971   15.35283056431546   14.48196663982919
C         7.89731988775985   13.45392009097817   13.66503366875450
H         8.94053015490237   13.56052684367525   13.92372474795168
C         7.46360110955493   12.30979519660958   13.01974209813482
H         8.16901237338386   11.52108538227498   12.80065920654754
C         6.11905252569073   12.16266250342632   12.69167023541487

