71
CSD_code = AQIDUB | q = 0 | S = 0 | Stoichiometry = C34H30CrO4P2 | MND = 6
Cr        1.96303187120052    5.77138895606968    0.49058580622975
P         3.00810943078742    3.69153042252002    0.53979472176905
P         4.14879829935626    6.44528102623278    0.15020793328962
O         1.32100259346216    5.96084606714971   -2.43421246751822
O         1.85258067852801    5.81445240445832    3.49034493348839
O        -0.79129230152584    4.64094020778950    0.79637111722453
O         0.75674319053920    8.51426469014065    0.48339402962286
C         4.85710849251107    3.78726781624899    0.38998670514149
C         5.29563005893259    5.04018719864851    0.21343540486356
H         6.34893854457938    5.28328894361821    0.10406306662354
C         5.81415025992110    2.60135227146044    0.34149883738447
C         7.12403891995658    2.93538556881985    1.07184187109388
H         6.92536906367402    3.30509181270376    2.07542321249658
H         7.70717283923676    3.68122516817544    0.53830042858062
H         7.73136900765529    2.03677865077728    1.15387348408751
C         5.23680434278691    1.33155755265961    0.96716833377107
H         4.26577785734804    1.09379811450590    0.54504071668834
H         5.13712918495974    1.43327065635109    2.04426088357695
H         5.90424561561811    0.49515151426977    0.76671137769200
C         6.12523031175938    2.32083880135494   -1.13761747960590
H         6.85236791089967    1.51533909772133   -1.21509893520482
H         6.54051729139918    3.20305666722188   -1.62043203801130
H         5.22449839696695    2.02422726820846   -1.67028339328467
C         2.73558307821883    2.92593202384019    2.15976553340517
C         3.65493932358471    3.10780008984405    3.18988634238192
H         4.60096874607763    3.59158632406180    2.98148967164195
C         3.34970877316911    2.70018180960884    4.47477642334708
H         4.06868861788595    2.84117139941545    5.26887633783626
C         2.11789589779764    2.12831276796860    4.74787132098640
H         1.88043121378766    1.81207367495779    5.75256938009650
C         1.17786423035382    1.99473648358219    3.73835709849420
H         0.20283307528137    1.58553121639822    3.95844712895999
C         1.47621470633901    2.40618055524624    2.45303588525760
H         0.72370972021385    2.35403963184877    1.67682813810449
C         2.58532714194577    2.44321458807289   -0.72424927497502
C         2.75934838989116    2.88003960989081   -2.03702377943428
H         3.16194776337885    3.87134889646893   -2.21175385671798
C         2.42224804004107    2.06657251454953   -3.10067066900637
H         2.56447606682782    2.41445129047469   -4.11316679746110
C         1.89120311289273    0.80788941540883   -2.86372014012052
H         1.61640639377240    0.17193153765429   -3.69184190250883
C         1.70942017373970    0.36927564229817   -1.56318817355450
H         1.29466948934890   -0.61062377714776   -1.37682982227326
C         2.05439814691735    1.17815596413046   -0.49368296809049
H         1.91528712658700    0.81586383126787    0.51514730533650
C         4.48545185737814    7.08920958589568   -1.51849685935254
C         4.97171085470191    6.30027766248394   -2.55386660740901
H         5.26534282372670    5.27645403570941   -2.36054952739723
C         5.07545123149490    6.82387090997163   -3.83070344591704
H         5.45550093584046    6.20899002546978   -4.63398165384934
C         4.68699773968930    8.12895344314197   -4.08101458359452
H         4.76526261253333    8.53232504780418   -5.07964281472656
C         4.18703016771152    8.91503007867829   -3.05351481455600
H         3.87342729818699    9.92916426210824   -3.25237526136841
C         4.08000372170861    8.39636576965766   -1.77836602806155
H         3.67602820290402    8.99257867131979   -0.96868269995132
C         5.09926942798893    7.64938082776868    1.14205946118033
C         6.35886930847289    8.08771104452292    0.74103630562913
H         6.78242983802323    7.73096942641793   -0.18910780902934
C         7.05406171128557    8.99204463972995    1.52110702027487
H         8.02989484771129    9.33450445262626    1.20827907179221
C         6.49881716647681    9.46426797686833    2.70071578120792
H         7.04494360350215   10.17263975671508    3.30598956592828
C         5.24341983931267    9.03584038129367    3.09879664438442
H         4.80843108656331    9.40977234483672    4.01381044120363
C         4.54309523144187    8.13053471330779    2.32033538900149
H         3.55599148091055    7.79566255650349    2.61313017328450
C         1.65553807142740    5.82388486225476   -1.33784071660415
C         2.00887916226513    5.79525106200175    2.34574745485395
C         0.28386510607083    5.04986869623297    0.67731699378137
C         1.25469558407169    7.47126139972762    0.49713678761828

