53
CSD_code = AQIHEO | q = 0 | S = 0 | Stoichiometry = C18H22N12Ru | MND = 6
Ru        3.70879482419507    8.33067958105087    0.00030294396861
N         4.92831536735037    9.57604407394002    1.10597223850074
N         4.41885687878534   10.51360839604090    1.92776873530947
N         2.58447923569817    9.93668033865078   -0.57044121879670
C         1.88882833010784   10.16659925594806   -1.67688684004257
N         2.56491983593774    7.97779464296087    1.65444239665218
N         2.48658163195935    8.84930979243073    2.66040651127177
C         6.25641031530960    9.63268272581705    1.16763554053426
C         6.63836707257245   10.63627704006674    2.05482356737031
C         5.44003388393768   11.16063935807804    2.50609079375111
N         2.50724743691393   11.04513581929376    0.16642992763750
C         1.78369683964086   11.99318632680207   -0.45351315633744
C         1.35406409958595   11.45853247140934   -1.64709212445221
C         1.85685889371164    6.91534587470663    2.01609857287768
C         1.31251158590347    7.11271609143551    3.28913555372253
C         1.74969349640103    8.36048400168175    3.67263316887264
H         6.87707950173545    8.97031411701328    0.58999088338690
H         7.63238597371307   10.93257116655476    2.32444672411518
H         5.25693171385344   11.95578658609736    3.20485428617963
H         1.78342532747334    9.42115270844967   -2.44240693917153
H         3.12250069053753   11.09146939856543    1.00988853623672
H         1.61495400037830   12.95595938760544   -0.01548460810445
H         0.74568330940440   11.92602095543480   -2.39333229880283
H         3.10935825726913    9.68663559791852    2.60537252039089
H         1.74985591903423    6.06266447303959    1.37241838835956
H         0.69337034746380    6.43678584456779    3.84167301251714
H         1.57804789173294    8.91811668149104    4.57089968798366
N         2.48856874446277    7.08689201796847   -1.10578347628092
N         2.99653311623936    6.14849402319116   -1.92743858332736
N         4.83471616652074    6.72528869061079    0.56953620569488
C         5.53308071384866    6.49565124962045    1.67431330086975
N         4.85302625201576    8.68332268292476   -1.65402552252750
N         4.93056482004939    7.81137828981685   -2.65972820510522
C         1.16036796541841    7.03137512014579   -1.16605989993399
C         0.77678979078750    6.02796206177422   -2.05274091142892
C         1.97424849334400    5.50244538545458   -2.50497321012469
N         4.91039836728917    5.61686354302076   -0.16749700267973
C         5.63646581495209    4.66934534124719    0.45029457960753
C         6.06892860775304    5.20424128710981    1.64276962397622
C         5.56430681397139    9.74389610242260   -2.01497869499207
C         6.11005831671147    9.54475577547935   -3.28714042659855
C         5.67021330295600    8.29804238319999   -3.67099541492220
H         0.54086475271991    7.69420438041312   -0.58769428288032
H        -0.21776110418903    5.73249266014438   -2.32134249415774
H         2.15605488981443    4.70697819616625   -3.20370872193422
H         5.63950655252919    7.24093922372847    2.43982316127478
H         4.29347903861244    5.57061307832599   -1.00975368771906
H         5.80479363710818    3.70674139938755    0.01175220607548
H         6.67967604674616    4.73710142404351    2.38730203998486
H         4.30644402241684    6.97511345166929   -2.60489464612335
H         5.67261675492645   10.59642669785538   -1.37133626796047
H         6.73185451940471   10.21885950346513   -3.83895383954376
H         5.84185094298458    7.73978332376281   -4.56887263317339

