86
CSD_code = AQIHEP | q = 1 | S = 0 | Stoichiometry = C39H39N6ORu(1+) | MND = 6
Ru        4.52955328771901    5.33808263285331    1.64649230393840
H         3.69089545618032    5.00171368086762    2.90546298822324
O         1.97231716684243    5.38155920470620    0.09670937917417
N         6.33510901706969    5.30877781742576    2.71619936366523
N         6.10100449623037    3.01984354339722    0.92479881826127
N         4.12809396888935    2.23353353166045    1.18500936799637
N         4.93358466085294    7.71398976046616    3.41335271250827
N         4.23404959652709    8.46945326437987    1.53896940085668
N         5.67437589745187    5.66920844099273    0.03995801571536
H         5.42725543923560    6.35157999093505   -0.67746351526419
C         7.37995960492203    4.65199165531062    2.18754065616576
C         8.62184822498403    4.59272279203488    2.80149350674168
H         9.42559441952249    4.03842777354262    2.34272666610983
C         8.81102912933761    5.23848385101368    4.01081470672865
H         9.75976904443320    5.19586807205896    4.52029446315747
C         7.74720808820741    5.95278344371085    4.53850985872827
H         7.85593337860387    6.49121315013066    5.46626099073420
C         6.53313558088956    5.96967901039481    3.87072355543427
C         7.17027310463557    3.98818646699555    0.84136925492006
H         8.07788358257603    3.46499195907354    0.53125375084255
C         6.18029486471949    1.67855160677603    0.65075937625328
H         7.09337109191110    1.19555176122514    0.36993717359606
C         4.93082628965288    1.18604130271959    0.81606749077480
H         4.55379265458999    0.19026584783569    0.70517167458060
C         4.83953222673033    3.36921973567814    1.25516929093380
C         2.72217923961809    2.13379911139226    1.38943182509533
C         2.22947791425974    1.92401748821374    2.67665330301252
C         0.85899669105436    1.81710290978098    2.84184815052520
H         0.45839826904927    1.65574450694761    3.83166821181477
C        -0.01282273029377    1.91072599107868    1.76353694066160
C         0.51080589693345    2.11033773963505    0.49478969733207
H        -0.15607276009985    2.18078420946261   -0.35149063212998
C         1.87708420486393    2.22244455926068    0.28549305454762
C         3.17040709861479    1.81185874049316    3.83623735730950
H         3.84711382552082    0.96759038732066    3.70438491240258
H         2.62077206807907    1.67314650983074    4.76225462090771
H         3.77001791179032    2.71912067715681    3.91531160147460
C        -1.48889428356172    1.80159526733404    1.98205041300202
H        -1.72384805382134    0.91405458551382    2.56629282663425
H        -2.02265757347562    1.75162760458212    1.03725937977527
H        -1.84813538956988    2.66768371431891    2.53656574493415
C         2.43626111354402    2.41072850833271   -1.09302598684417
H         2.87491680636341    1.48030464042251   -1.45578655587405
H         3.21292038171661    3.17618769985371   -1.09847822115530
H         1.65153564904481    2.70870058060071   -1.78185391673135
C         5.37974513045831    6.77722926536308    4.41244270594961
H         4.54918839598618    6.09372726718611    4.64819670706423
H         5.67701778243921    7.31931881626178    5.31121968858391
C         4.91825745062238    9.07940986217003    3.52417716247983
H         5.21202463301808    9.59253305257337    4.41627800817069
C         4.47103892396777    9.55623903363461    2.33947144645881
H         4.30376226425752   10.55903332013512    2.00511469696907
C         4.51225476840851    7.32433683808019    2.19153444937748
C         3.77295597427056    8.53030990461795    0.19524192087760
C         2.40380073359033    8.42355163093030   -0.05704349148499
C         1.97907616302467    8.45113604162542   -1.37500382752607
H         0.92470631817079    8.36503235503039   -1.58952280736407
C         2.87675666727150    8.58615341360760   -2.42812594137549
C         4.22801907536766    8.71716554008714   -2.14282271836223
H         4.93544144902925    8.84528975880349   -2.94977776461978
C         4.69666678897525    8.70004028433142   -0.83559444955580
C         1.43142207886031    8.31552560750935    1.07622715819203
H         1.75436502886984    7.56562569774677    1.79920771288378
H         0.44781940984535    8.04207838231278    0.70720308650444
H         1.35177448737820    9.27251162093187    1.59295738517799
C         2.37906031855696    8.60021169688135   -3.83865060690141
H         1.84582126776967    7.67689630808693   -4.05984757652243
H         3.19755681914935    8.71042602522060   -4.54479194568300
H         1.68264703060491    9.42446938841391   -3.98313617832305
C         6.15686647887637    8.90715590750558   -0.54756149305456
H         6.34643953315938    9.96393409322509   -0.35619390209675
H         6.76602539200567    8.61079729175147   -1.39917391216458
H         6.48397884529791    8.34933487575884    0.32969365715059
C         6.78849480982504    5.06112253455004   -0.17457877407807
C         7.65724208268228    5.33671987906243   -1.31452148210364
C         9.04656421313978    5.21517117461869   -1.22504360625792
H         9.50710301662821    4.91623821189237   -0.29482271999789
C         9.84803049738410    5.52176164562236   -2.30763923337999
H        10.91990000819229    5.43203507519480   -2.22017822039024
C         9.28266222304348    5.94426894925644   -3.50007088778893
H         9.91169221534692    6.17657229050518   -4.34485600688512
C         7.90568702138826    6.06647924231962   -3.60268919985834
H         7.45915353379953    6.38904055667072   -4.53080553814922
C         7.09878041025775    5.77277026731979   -2.52192686907019
H         6.02474741240463    5.84860844259257   -2.62395039749167
C         2.95310679434032    5.38756272289159    0.69413978718264

