54
CSD_code = AQIPAT | q = 0 | S = 0 | Stoichiometry = C22H24Cl2N2ORuS2 | MND = 9
Ru        4.18652554485847    6.03342328715151    5.43863145225584
Cl        2.38423404218027    6.43543663521431    3.97494134501648
Cl        3.55126628387236    7.93995657800880    6.66637912678314
S         2.75951585723705    4.63274218412645    6.80857561967648
S        -2.06799000823587    8.97197211508969    5.70917889394985
O        -1.43366558072547    6.32254175549448    6.78122078449826
N         0.84635176580254    6.42843017245607    6.61383991067575
H         1.65010782691414    7.03063758936429    6.37581045352564
N         0.16889944742281    4.38470714033152    7.41993579855270
H        -0.75188501031429    4.85567014381188    7.32819263451108
C         1.15759612839032    5.15326135090014    6.97172481831236
C        -0.42613378189071    6.94376708180069    6.45531339055856
C        -0.48798079899599    8.26440126601148    5.87392560622345
C         0.48907989125557    9.09079672364057    5.37024104893584
H         1.53809922297089    8.85525150209955    5.35817506702842
C        -0.03599989555766   10.28660951484122    4.86043191517496
H         0.56571724565323   11.06220064568778    4.42245844699199
C        -1.39390558480720   10.35963514737849    4.97792697736257
H        -2.03770532464195   11.16022684029263    4.66989158627456
C         0.12422462286575    3.06218328259550    7.85777615797743
C         1.22950483257087    2.34400920637905    8.30273519320517
H         2.20295585269342    2.80245315756703    8.31673261038917
C         1.06938221592304    1.04178130355204    8.74262534440952
H         1.93236270491665    0.49181943511441    9.08687006264072
C        -0.17918616247719    0.44508542958900    8.75149980890827
H        -0.29356085139599   -0.57146162111365    9.09568161298530
C        -1.28424364224975    1.16447858620694    8.32385577113604
H        -2.26382170979814    0.71092574424119    8.33509536846370
C        -1.13743117010244    2.46448781483372    7.88436169853382
H        -1.99684862205726    3.02919913823058    7.55343477204608
C         6.09164032821233    5.06172757063217    6.22016984193751
C         6.35984766991124    6.41198598847841    5.94842947423711
H         6.80385422597110    7.04045267595165    6.71140772153529
C         6.12836390070006    6.96280693346706    4.65900704465768
H         6.40278303262845    7.99502030385599    4.46453546933501
C         5.60847621085024    6.17211537260750    3.62187298597465
C         5.30764886196784    4.80758815884115    3.89958121106626
H         4.93790876405100    4.17471524006118    3.10097727301948
C         5.55045526134063    4.26764645207240    5.16799270222862
H         5.36756890775902    3.21214422918557    5.34514878988405
C         6.40885970996492    4.43787394389590    7.55773692314875
H         5.88253899738960    3.47765515130182    7.61249124580820
C         7.91550788603835    4.17451028559978    7.65125102705258
H         8.24424597946515    3.52622626482134    6.84113454492678
H         8.15015657228852    3.69258489001258    8.59696441045082
H         8.47108175494234    5.10831132867411    7.59259017390762
C         5.92880431994505    5.30745811139411    8.72105320843646
H         6.54279190136150    6.19814255023298    8.82942673508959
H         5.98026353218617    4.74618774776001    9.65047794922505
H         4.89589299078116    5.61560883413972    8.55891210916283
C         5.37519974429313    6.72463823792727    2.25112774868950
H         4.30055500339264    6.79983715926632    2.06914861562172
H         5.79720284967866    6.06201559864577    1.49652404814096
H         5.81048625259982    7.71591782027853    2.14667546946128

