57
CSD_code = AQIPEX | q = 0 | S = 0 | Stoichiometry = C23H26Cl2N2ORuS2 | MND = 9
Ru        8.79802136026204    8.69593547664638    6.32732272856202
Cl        8.71698959205596    6.61952397765263    7.43728804237129
Cl       10.35968520607780    9.46675445681518    7.92127132204163
S         7.04118117661809    9.57861794909503    7.75918751223632
S        10.59950674168177    7.36914577342365   12.85704891232477
O         8.42353622715683    9.15294814285982   12.03690926045766
N         6.86296705915491   10.28751616828680   10.29051002626744
H         7.22782819333023   10.18363537386162   11.24787179675653
N         8.24276378533551    8.48694100404554    9.85546188470538
H         8.57252042762914    7.81765955435548    9.14037234510041
C         7.11532257537996   12.69935266693240    9.89036037241175
C         8.82180357928030    8.45232500063702   11.11512618901667
C         7.41186869083169    9.46273454845372    9.41360853282395
C         6.18352200345278   11.50778233106472    9.94298712549993
H         5.40002246859423   11.68199209721570   10.68460914014540
H         5.71350093821602   11.36978860659410    8.96406094950861
C         9.46734678595306   10.20758636932761    4.76441574772719
C         8.07847104824990   10.03136595899341    4.65822362694993
H         7.42090743583091   10.89229803413647    4.68200612167921
C        10.62618809603419    6.78723628655324   10.34237644496755
H        10.39874290889643    6.74974499021421    9.29231323573153
C        10.29230833845855    9.04912849431244    4.66941144829542
H        11.37161483218075    9.16380335130422    4.70768996437280
C         6.61052046890198   13.96769251325743   10.14870901637364
H         5.56673922729043   14.08483300254020   10.40367296569731
C         8.32547887887900    7.60978108268766    4.35436441032599
C         8.77031360209034   14.93114875666019    9.75481266857459
H         9.41330059974302   15.79736212486467    9.70491695370588
C         9.73724316408636    7.77832104994095    4.47514300861944
H        10.38436461257515    6.91405041883424    4.35944134239728
C         7.43197412204809   15.07798673769923   10.07878368377427
H         7.02715081895880   16.05864477890436   10.28187729082667
C         7.51176386591477    8.74629176314326    4.44799675574016
H         6.43968927891877    8.65425697704184    4.31298281844116
C         8.45697693029895   12.55830779278378    9.56377477080125
H         8.87721129724727   11.58495630201376    9.35582607426234
C        10.09047764720582   11.57560292879661    4.89488050960050
H        11.12530635833103   11.44313614573121    5.22984663162447
C         9.27907566411591   13.67031685239736    9.49828077603468
H        10.32078262069972   13.54300180067873    9.24564959943372
C         9.92959021768055    7.53607083768601   11.26104700677877
C        10.10434368998221   12.25494084922803    3.52137254651182
H        10.65243393982056   11.65348131961800    2.79821711526875
H        10.58259954470661   13.22837252716435    3.59453011359596
H         9.08925726030734   12.39563537406150    3.15473214353554
C        11.78836052554363    6.29350336648531   12.26933086778529
H        12.50514345685230    5.87554979795403   12.94886991927700
C         9.36880831311632   12.43484370057118    5.93331258837164
H         8.37921768064164   12.73058795994113    5.59302623814734
H         9.94148656289266   13.33701963686157    6.13166892947451
H         9.26766656010345   11.88029270783925    6.86444172674618
C        11.68651398347907    6.07882612438292   10.92536645576277
H        12.34897711656801    5.43764390105513   10.37254955623320
C         7.75549000127376    6.25022391137729    4.09145673194892
H         8.00161664855910    5.57366370785604    4.91141608805130
H         8.17952674886770    5.83506062935695    3.17684113985661
H         6.67277912157089    6.29287600771701    3.99632882649964

