60
CSD_code = AQIPIB | q = 0 | S = 0 | Stoichiometry = C26H26Cl2N2ORuS2 | MND = 9
Ru        3.95002073573591    9.97468499880987    2.87036067613356
Cl        2.53386917433766    8.42594307940670    3.94349346175962
Cl        3.25040343665245    9.10813371364353    0.79671978623401
S         2.14503819883904   11.59354957079820    2.83371197078903
S        -1.87176281531331    6.50520251010864    1.71707625221130
O        -1.73826298843995    9.32700450562907    2.47836708954630
N         0.48914853489070    9.67903579787625    2.09600758775994
H         1.36957187668857    9.25959580000592    1.75634668146675
N        -0.51775776598250   11.56690824293604    2.94511296552796
H        -1.34865584690252   10.95414088515639    2.86495730581280
C        -0.71415732475924   12.83830043648371    3.48671767371140
C        -1.83468771579879   13.02842156881822    4.34973054676943
C        -2.71195067503001   11.98950343043810    4.72853600258827
H        -2.55609474091185   10.98155810960423    4.37532456382198
C        -0.45752871219646    7.51759689984827    1.72293584358924
C         6.07914677445442    9.13238956674480    2.77157521231666
H         6.47714530680125    8.23429936940251    2.30949796661691
C         5.17615894374279   11.50303020552820    3.96285082592825
H         4.86755374482543   12.42630268335528    4.44420524832321
C        -0.64535192487724    8.89085021733370    2.12739981546783
C         6.01513094375174   10.33457976967881    2.01782721231685
H         6.36296276096795   10.32462012078600    0.99116815861454
C         5.22645709890628   10.31888342973786    4.71087349295109
H         4.95874889848256   10.32809639230260    5.76117206219021
C        -2.06934186114710   14.33247453942541    4.86424974480689
C         5.69553550772527    9.11092003882712    4.12324297236905
C         0.60167026497036   10.93132691297017    2.61620789112472
C         5.58978118032215   12.83917546994519    1.83395203691911
H         5.01954134197380   13.57278004628582    2.41602115890475
C        -1.20065511186406   15.38882290487352    4.51827491583872
H        -1.39347796655148   16.37170786467661    4.92249380643637
C        -0.93570346422989    5.16372992381973    1.22808332105975
H        -1.41146955134488    4.21469768777676    1.07553149567092
C         4.91663220453016   12.69296607562488    0.46783809996585
H         5.52691092447108   12.10482637102323   -0.21332140122829
H         4.76028476495461   13.67236140398807    0.02277489124980
H         3.94906936701138   12.20241246551093    0.57654034784547
C         0.10029692342437   13.89713891636234    3.16013623746531
H         0.92180063607205   13.75103749376692    2.47938634108473
C         0.38644007742356    5.46916022704538    1.08112327477852
H         1.13235265462989    4.75503255764847    0.78254504447390
C         0.66751366230758    6.81339765357185    1.36338175635572
H         1.65544305306573    7.23418033290184    1.30502421901330
C         7.02912366572630   13.34404844787730    1.68823338204997
H         7.49098704262166   13.47788334836021    2.66475009168379
H         7.03656200294239   14.29883788922771    1.16845088676326
H         7.62767283282997   12.63668958504537    1.11764655205329
C        -0.14164691802361   15.17217021692426    3.68359967718568
H         0.51612698902699   15.98302111454223    3.40954835825397
C        -3.77227243404753   12.23478997971051    5.55850589071928
H        -4.43405138616121   11.42848031123840    5.83723924643854
C        -4.00952030044503   13.52352284775624    6.05563086485934
H        -4.85267268821809   13.69699556143708    6.70772087234322
C        -3.17214098107649   14.54823708414250    5.71692966574318
H        -3.34012796838954   15.54549135659983    6.09761349222153
C         5.77070233811370    7.85966616330103    4.93948589721403
H         4.76206767650935    7.46385711685263    5.08333565444794
H         6.19158035998523    8.06753834224566    5.92216883196988
H         6.36819351907667    7.09937722482244    4.44115361077855
C         5.58454572294900   11.53781321938366    2.59943246877119

