81
CSD_code = AQIREZ | q = 0 | S = 0 | Stoichiometry = C32H34N6NiO8 | MND = 6
Ni        2.85310441641009    2.84573859956127    2.04784442221062
N         2.69668450951357    4.42807700242217    0.34592247426912
N         2.37666543325000    5.68913736867822    0.69040975122925
N         2.50732140382998    4.25739422234249    3.31290725327382
N         2.14444967383170    5.53200242255877    3.06756661988737
N         0.92449347659129    1.24356803842992    2.52723961075522
N         4.77124317047108    2.02164813693089    1.32950316515415
O         1.04156665521138    2.33911577147116    1.87145207993480
O         1.90687603544471    0.89441291043368    3.16909018228762
O        -0.11835975493595    0.65827874802224    2.50558464145725
O         3.69118181991830    1.49872198076216    1.01264545037585
O         4.67284753937564    2.98778688439304    2.12486344218501
O         5.82418776517030    1.65666587598065    0.90592213257391
O        -2.89873357278818    8.20731378408123    4.31545751619200
O        -1.10439347806400    4.20666472141077    6.15261393068635
C         3.32683720228125    4.49729066616780   -0.81684269632475
C         3.41654985855588    5.83813307637434   -1.22969861922944
H         3.87231929915922    6.20573349026550   -2.12560759764595
C         2.79706854558540    6.57542876133824   -0.24865652237212
C         3.81481116918754    3.29438427162340   -1.53712188561067
H         3.28028376826066    2.41293361949604   -1.18920050959685
H         4.88238897236970    3.14924779690203   -1.36849817770417
H         3.65844320272695    3.41305511390437   -2.60678392551281
C         2.58551036875937    8.04288757115351   -0.15222450262123
H         1.52389673427468    8.28980786702814   -0.14555082521689
H         3.04205549677519    8.52455463095950   -1.01203273921232
H         3.04396511259009    8.44746436048290    0.75007112523290
C         2.87809584868805    4.18498342697285    4.58724356181574
C         2.71935357522647    5.44223268558960    5.18250671545161
H         2.92392941515706    5.69792630131459    6.20115364999524
C         2.24376611211220    6.27500002916644    4.19574516015900
C         3.37888278783768    2.93593625767667    5.20951077883689
H         3.09263694734183    2.06932465302621    4.60963885425244
H         2.97337899338900    2.82902212634339    6.21292733854521
H         4.46590047808703    2.96650457638450    5.27623608671312
C         1.88118432886786    7.71236272275604    4.28065037291767
H         2.45247074917731    8.30970753874288    3.57055902165074
H         2.09876622619165    8.07224401530666    5.28192316932687
H         0.81767106919558    7.85206284206326    4.08800210254580
C         1.53972734867699    5.96854236936669    1.82709162642000
H         1.44375239080290    7.05593147738046    1.90077149616635
C         0.13602635490182    5.34647886365472    1.65262900948482
H         0.24872553844897    4.27135807938902    1.51277704882629
H        -0.31855220741346    5.77713232742980    0.75984258793798
C        -0.68476639917083    5.63956047548098    2.87640670469409
C        -1.43992824610226    6.80800658986669    2.95430895470738
H        -1.49125396702527    7.45897479808843    2.09553273796310
C        -2.12773737558142    7.10442715153616    4.12302937364432
C        -2.03425947147510    6.25347657223709    5.22678100180606
H        -2.57736600002326    6.53397526410672    6.11356531875281
C        -1.27972406730549    5.09430084581189    5.14860680490066
C        -0.61431368533036    4.78837609260934    3.95849751427824
H        -0.05186219470182    3.87154843728985    3.90558959044283
C        -3.13086529168519    9.07656603467226    3.22612810055881
H        -3.55797891373081    8.52266333145944    2.37926883670261
H        -2.18112545717826    9.53263926158565    2.89880087722229
C        -4.07764754892081   10.16380889815864    3.66290299739213
C        -5.06227742534772   10.62837892982514    2.80218655614477
H        -5.16250929261440   10.19512023059449    1.81714304534737
C        -5.91573870883746   11.64259965190757    3.19978596931216
H        -6.67852456752338   11.99792470603838    2.52293025702994
C        -5.79757346560606   12.19454508879440    4.46375807380985
H        -6.46739883638884   12.98215492760079    4.77517457440171
C        -4.82038206444998   11.73062916911374    5.32798691533880
H        -4.72599914987607   12.15642941605875    6.31603078010536
C        -3.96092767782240   10.72333484426900    4.92822083557529
H        -3.20019890875259   10.35456604077185    5.59890516507441
C        -1.77865940401999    4.40626013392938    7.37581421011916
H        -2.86632816551524    4.44386808733509    7.20505088461489
H        -1.47202626886943    5.36035978835616    7.82962827557467
C        -1.46190301963227    3.27098752437223    8.31636552585930
C        -0.98283622097445    2.05901962611987    7.84047988701566
H        -0.81810084187564    1.93404922761662    6.78223552339361
C        -0.71549349838561    1.02290183079079    8.71862989211266
H        -0.34090999813333    0.08442381649570    8.33829112171505
C        -0.93127515706211    1.18597888764336   10.07582524489334
H        -0.72543373611554    0.37617887322716   10.75996323623379
C        -1.41295779903120    2.39299366611235   10.55490412797196
H        -1.58335404013009    2.52671137046775   11.61313657623344
C        -1.67410156775853    3.43174181972726    9.68000046837593
H        -2.04794234750140    4.37392060451479   10.05614966305223

