35
CSD_code = AQIVEC | q = 1 | S = 0 | Stoichiometry = C19H12N3Pt(1+) | MND = 4
Pt        9.93865383565621    3.93827571408274   10.29677542141363
N         8.88029512385776    2.91039376222552    9.12509509127614
N         9.70709226315828    5.37133602865305    8.79927916199456
N        11.05486498109151    5.05329532213394   11.50711699890168
C         8.30072320641896    2.82898442946655    8.12085170808599
C         9.18354582735545    5.45677226219548    7.76848715853190
C         8.60942802173520    5.69509443356506    6.52920823510825
C         7.85439687870954    4.87044175138666    5.76053975468403
C         7.40066364686214    3.52305452073411    5.94346536111698
C         7.58567432709427    2.63456610044024    6.95407766251261
C        11.46247608164135    6.30122604457716   11.32572006836298
C        12.24880707400025    6.96994056806594   12.26406816588774
C        12.62714381989765    6.33264572496080   13.42592905957530
C        12.21031664349125    5.01044357742123   13.64549123120783
C        12.52713298280172    4.23340224528762   14.79845620609133
C        12.08200980722085    2.95707321876298   14.93294434272487
C        11.27883313899790    2.33221128260024   13.93309864305503
C        10.78748893928833    1.01777733905895   14.01339046723430
C        10.01984388303174    0.50807025825188   12.99439940028841
C         9.70373565918185    1.26648917292780   11.85556237014179
C        10.16344596719500    2.55971302573073   11.73233467146424
C        10.95163208196275    3.07630438807411   12.78497358917841
C        11.41875114232551    4.41196456954851   12.64587084812806
H         8.81555141483591    6.69255674536036    6.15470559022154
H         7.52382261423782    5.30267327937825    4.82422627392067
H         6.80247755521904    3.15985864672370    5.11770804192277
H         7.13556296994469    1.65202750548228    6.86735974924967
H        11.16320879535923    6.79764562390694   10.41224842867597
H        12.55282656894235    7.98506184816473   12.06643628191031
H        13.23536395215774    6.83619721558304   14.16189994570087
H        13.13354916068859    4.68937007944824   15.56582260992175
H        12.33302824123631    2.38535227706604   15.81378099352437
H        11.01838316938188    0.41640495404644   14.87939016977307
H         9.64583858684531   -0.50235759188162   13.06354331932562
H         9.09603163817494    0.81453367656992   11.08514297888643

