49
CSD_code = AQIWAZ | q = 1 | S = 0 | Stoichiometry = C22H18BrN4O3Ru(1+) | MND = 6
Ru        0.46077562334026    2.63235128026013    4.69746446642778
N        -0.89444227527453    2.32528625741614    6.07959738496013
Br        1.19585114145525    4.50334696211644    6.16590813586984
O        -0.23239398471705    0.22284626132682    3.06344356367565
N        -2.14078812164868    3.77144278403147    4.90365642751228
C        -1.05941980036390    3.83348740370005    4.05523342051700
N        -1.38149624874576    4.72544809659718    3.12280132409799
C        -2.03971478606303    2.99223515588749    6.04712354011692
N         0.73975523655778    1.13381139895387    7.14306651446330
C        -1.36004693602156    1.53141139029479    8.30374021745880
C        -0.51984728133928    5.12493458486342    2.03364473167163
H         0.32648581298495    5.68912789311049    2.44136308675495
H        -1.09061722826865    5.79211851714404    1.38061751373614
C        -2.95116114284431    2.92323340579488    7.11156103278281
H        -3.88520252466019    3.45728541506221    7.06579009097413
C        -0.52169984035753    1.65049689354107    7.17565847895330
C        -2.64284851820365    5.21982244373091    3.35309714625335
H        -3.09501694703672    5.95076960225756    2.71432703988267
C         1.91697845310520    3.07765232617471    3.59461234331741
C        -3.12467104948708    4.62961959315332    4.46969055970360
H        -4.06094593832181    4.75426490220806    4.97171106393778
C        -0.86607731290377    0.81426925823424    9.42556033553709
C        -2.61419824806520    2.18264339721404    8.21760658430586
H        -3.29756094770709    2.12044821271750    9.04830243498321
C         0.41277671854244    0.30634249885379    9.33124387752668
H         0.83159828467497   -0.23427032504035   10.16574479661763
C         1.22163311015753    0.46988150327968    8.20617871725709
C        -0.00450676560592    3.94423143068788    1.24088414885572
C         1.24297815182794    4.02085682855981    0.63440848083919
H         1.84304228746221    4.91057998914392    0.75365795013131
C        -0.77901359269954    2.80429131336200    1.06163459374363
H        -1.76794183450947    2.74156121738067    1.49568131604815
C        -1.68887409036189    0.64196541290026   10.65232073977575
H        -2.63176285255062    0.14989084922992   10.41774349769591
H        -1.91874766077049    1.61105531215841   11.09390700443500
H        -1.15970426055058    0.04546224321512   11.38898289916863
C         2.61075159942452   -0.02378301531965    8.09299242917126
H         2.70136190020952   -0.68450312642182    7.22949627422562
H         2.92437287901280   -0.54398012236659    8.99098829261471
H         3.27939779725498    0.81762195199509    7.90099231518783
C         1.71692058643810    2.96628791761721   -0.12558143364381
H         2.68694378990757    3.03715322824919   -0.59206517041057
C         0.94832869083724    1.82603269978812   -0.28744323536779
H         1.31746427620958    1.00357067555408   -0.87971955580146
C        -0.30121318008803    1.74927219516556    0.30267653336229
H        -0.91118468986528    0.86945735325176    0.16677242012735
O         2.87906280494006    3.36853268049324    3.07069034245447
C         0.01142186251403    1.16349225887519    3.65272179788502
O         1.48839705216139    1.29764359358755    6.08791353022119

