58
CSD_code = AQOBOZ | q = 0 | S = 0 | Stoichiometry = C26H29ClIrN | MND = 8
Ir        8.53048195601563    0.20439998652812    8.32604483518679
Cl        6.89656370815437   -1.44289174290622    9.22768216247716
N         9.63390712473185   -1.54225201417032    8.54970201988502
C         6.98831561505090   -0.36750937087303    6.21337437663906
C         7.95210198609739    0.41047651787440    5.70715083684696
C         7.55215126009642    1.85025266074975    5.97947227740855
C         6.02507967208572    1.72606893028136    5.83165427643365
C         5.94947633609181    0.55162192767431    6.82448425025765
C         6.63855054766228    1.20047956124744    8.02799980915231
C         7.65086039087169    2.01053438608770    7.50767641539245
C         9.04292050361229    0.96424967022673   10.22395882190619
C         8.18684111622243    2.05251462663438   10.92048047940396
C         8.94039862783392    3.35068643007855   10.62857156863240
C        10.26231372061007    2.82032852575956   11.18669719301230
C         9.80114164079918    2.31288007146523   12.52850184011688
C         8.56411926929369    1.85940324668179   12.37331752685168
C        10.47037957523527    1.56599124557746   10.29675589720293
H        11.15898338705136    0.87160252506248   10.78360351750652
C        11.02546711831742    1.94727652929085    8.91584437348589
C        12.51461737980417    1.54216909342920    8.75304365038268
C        12.95368551675627    2.12074897261484    7.43387134203710
C        12.35277216633659    1.42086152805072    6.47985048225908
C        11.50172117337352    0.36883489835719    7.15275031297404
C        12.37632133627518    0.06795602335259    8.37154064298091
C        10.32960112295504    1.20206904793106    7.74501900440618
C         9.63138135149701   -2.28982165307749    7.44453575810329
C        10.02359685659854   -3.61507070146686    7.42021197022614
C        10.45143274403301   -4.21176713101731    8.59449399287244
C        10.46780271446139   -3.43789814132497    9.74248384499347
H        10.78921633371860   -3.84788692967867   10.68664588242004
C        10.05373458189988   -2.12002060532875    9.67473543965140
H         6.88609758134532   -1.43742501770633    6.19171748936900
H         8.83268993133491    0.13506078590388    5.15306069938680
H         8.05857398790391    2.60889561859302    5.38850835048893
H         5.48560860606926    2.61068773517817    6.16762197504069
H         5.70746158744435    1.45992338789645    4.82252166013572
H         4.98238300810538    0.10331633209936    7.02822897383690
H         6.08069199651787    1.35975446962090    8.93725717912140
H         7.96500443414830    2.95665777130036    7.92200946182790
H         8.96256514584461    0.07114028847230   10.85292894878563
H         7.12239000042841    2.02669783648234   10.71741296873594
H         8.55143837506708    4.19286025257933   11.19983207244721
H         8.98746113132346    3.61023885797813    9.57648788060057
H        11.11245215358233    3.49881935365216   11.19675095082847
H        10.41668673227919    2.28767442045834   13.40929032236272
H         7.93872200754711    1.36020016656947   13.09033596875837
H        10.92922866790947    3.02657540054032    8.78208965361655
H        13.13663604947372    1.78230481089057    9.61259810929740
H        13.58104195032129    2.98732159884367    7.33102870501615
H        12.36988696195114    1.59095137800776    5.41791903493895
H        11.23116124965209   -0.47171643113845    6.51746152445878
H        11.88981126590958   -0.53236622946293    9.13419279173024
H        13.32895651187780   -0.38718156175004    8.09813507545921
H        10.07223978587886    1.93697695006362    6.97864851219497
H         9.28678462344924   -1.82208243210723    6.53292653455328
H         9.98559597655903   -4.16774871131863    6.49454446974955
H        10.75653650770356   -5.24661795643724    8.61405259782364
H        10.04965693682892   -1.51490719032289   10.56868328833002

