67
CSD_code = AQOBUF | q = 0 | S = 0 | Stoichiometry = C29H35ClIrP | MND = 8
Ir       -0.93337925566245    0.55164699998256    4.71179239628452
Cl        0.25846465606818   -1.04637722386192    3.51195729572047
P        -0.26795387348788    1.60760295277348    2.51677660684762
C        -1.68856237767464    1.81823133881656    6.30233873964811
C        -1.41679316558249    2.60317543768507    5.18042463051195
C        -0.08009649201350    3.29835150176853    5.46711660940094
C        -0.23391943316733    3.53837852129624    6.97973139924749
C        -0.51328428783398    2.05228075826297    7.26464104915550
C         0.68273151880788    1.42479110240076    6.56710268224618
C         0.94662160854550    2.17847813617736    5.49104166437954
C        -1.33927797108540   -0.93056981361738    6.21911974742117
C        -0.35564434364881   -2.12291524623948    6.37728529606406
C        -1.01145997435380   -3.23584983425697    5.55845973650747
C        -2.34080501387953   -3.13358342211541    6.30751418963995
C        -1.85276531650853   -3.20554336558396    7.73109923573526
C        -0.66754032716751   -2.60998887558493    7.77290592654560
C        -2.70438744454259   -1.64776570322322    6.04780193598501
C        -3.30953027237656   -1.45288661128211    4.65175714119043
C        -4.82231630718244   -1.11339870950804    4.70262303738734
C        -5.28900144679395   -1.09161909708901    3.27048685900984
C        -4.76953589652542   -0.01104496915107    2.70227350264290
C        -3.94237385959881    0.69921299160795    3.74961080784220
C        -4.77313062584935    0.38644171787851    4.99519444413048
C        -2.71553919048825   -0.23414897452706    3.90009576626873
C        -0.65092246983391    3.35990731152750    2.12905201956585
C         0.30639499855564    4.36725410242097    2.17825094248322
C        -0.04498128776157    5.68637242242770    1.95047213792774
C        -1.36100059982566    6.02193889971396    1.68332526351380
C        -2.32678631759886    5.02940375250276    1.64879763504180
C        -1.97386669934342    3.71293611949896    1.87665808961503
C         1.48411515886642    1.51168433607965    1.96298847659351
C        -1.02354759034538    0.82125522842189    1.03494579001430
H        -2.67051694434705    1.61453146130459    6.69936931406580
H        -2.15219139198854    3.08501864196738    4.55356537554440
H         0.15068826412319    4.15438036637513    4.83833566749482
H         0.67673732281439    3.90668168206532    7.45443578386203
H        -1.07010209516927    4.19073639455910    7.22995541517106
H        -0.67548752021499    1.75809149013351    8.29790982538312
H         1.22827584781198    0.57849156646348    6.94388666236337
H         1.77153308112109    2.08761566767963    4.80825217007605
H        -1.34294120403849   -0.41930715812844    7.18513860171832
H         0.68964288792750   -1.91061373613327    6.17278705278939
H        -1.07798473401078   -3.01011144368641    4.49986506827049
H        -0.51993012684450   -4.19781668887286    5.70096923348418
H        -3.12835456090891   -3.83359095960063    6.03597321284298
H        -2.42092844090144   -3.61867470554864    8.54545024756196
H        -0.05125407576825   -2.41315679542615    8.63269420593247
H        -3.41339926275887   -1.29576961317173    6.80110739114494
H        -3.15324588069263   -2.36071930707217    4.06656084539890
H        -5.39350995074381   -1.74027856834316    5.38311638672930
H        -5.87945739832642   -1.86491855100180    2.81431697847923
H        -4.83056167876626    0.29400911902780    1.67261669871912
H        -3.72617726708714    1.74412765964930    3.54694253982178
H        -5.75679131218618    0.85494021083625    4.96914873061904
H        -4.27485304420631    0.62540700865308    5.92818012778582
H        -2.40601098024600   -0.55804825007697    2.89976337548903
H         1.33857310345667    4.12764144925668    2.38870026320941
H         0.71313479859300    6.45594358277576    1.98357677438524
H        -1.63337296088463    7.05179955580657    1.50646450566473
H        -3.35716904195435    5.28362102103750    1.44586017942126
H        -2.73316255554257    2.94405361302691    1.85212100607771
H         1.75301909026890    0.45881971490576    1.90866037770000
H         2.15844928617468    2.00476023909467    2.65901631202897
H         1.58046583499156    1.97236378435250    0.97973762824607
H        -0.70896802076334   -0.22032904501616    1.01242237712327
H        -0.68030645315317    1.33321607389824    0.13599129336003
H        -2.10816871649162    0.86193273401558    1.08366731746692

