75
CSD_code = AQOHUJ | q = 0 | S = 0 | Stoichiometry = C32H32N4NiP2S4 | MND = 4
Ni        3.49895132554967    6.79804354200424   -0.00012385368671
S         2.66270489113825    8.22099630906713   -1.42415626262576
S         5.24755578402070    8.03250791135949    0.49537226172971
P         3.11353980212827   10.36816913893945   -3.36141772466083
N         6.09516509517694   10.49822827709240    0.50063759467765
N         4.63868501764536   10.08362610333906   -1.18679075994048
C         3.66650151190441    9.52199101822409   -1.82977124606719
C         5.27449193795167    9.63337199403173   -0.11054144687505
C         6.87790492467887   10.09630613370583    1.64153804305995
H         7.69973388408808    9.44115229955923    1.34137637379147
H         6.25581125552459    9.54560572322965    2.34923422734207
H         7.28027401412055   10.98262533484310    2.12589827824638
C         6.27302092589915   11.84652150739568    0.02115085240683
H         5.91371956381979   12.56167750280608    0.76479481766647
H         5.71191799315878   11.97436095560944   -0.90086395368314
H         7.33114901677753   12.03450403597937   -0.17090711819212
C         4.51572534912748   11.54457215784094   -3.52172652464979
C         5.78355579482111   11.16738409213173   -3.94775890625168
H         5.97498535702391   10.14372268909552   -4.23603379416428
C         6.80022787496752   12.10314764948770   -4.00247965056227
H         7.78515046220205   11.80548501171070   -4.33280360030882
C         6.56139220717506   13.41838233211815   -3.63733473036542
H         7.35894797311933   14.14552935440241   -3.68390557068791
C         5.29807378918897   13.80054890122678   -3.21810446980853
H         5.10759471608586   14.82634061469190   -2.93728861480383
C         4.27859584529561   12.86683404144015   -3.16260549650491
H         3.28839713932636   13.15658647834424   -2.83845754274969
C         3.61221352450488    9.11702061986045   -4.60780533182216
C         4.36160467021381    7.97596903157074   -4.34330764153187
H         4.69120926871620    7.75245924780638   -3.33833548540278
C         4.68868955872331    7.11004872395731   -5.37165538686330
H         5.27129167432273    6.22547897077889   -5.15761106702353
C         4.27698443027360    7.37261440342459   -6.66734345065238
H         4.53585281926976    6.69188745878475   -7.46518921212442
C         3.53027556718416    8.50773333341961   -6.93713825673850
H         3.20404205836048    8.71513014912708   -7.94602313709498
C         3.19615826986718    9.37211241764873   -5.91189439120149
H         2.60733810961519   10.25711538491847   -6.11300532873092
S         4.33414243284208    5.37523886239879    1.42472514558742
C         3.33052596494122    4.07408282156633    1.83021038213816
P         3.88369601705600    3.22762448354747    3.36162165749231
C         2.48137991064292    2.05132835434612    3.52161504458338
C         1.21350357272287    2.42851487561146    3.94753342218185
H         1.02205403439559    3.45216546000354    4.23583090014443
C         0.19684736517086    1.49272786040953    4.00226147210485
H        -0.78812779346757    1.79040524903968    4.33241965778624
C         0.43574354059932    0.17746847221184    3.63724376261632
H        -0.36184016608260   -0.54966036713337    3.68364959235496
C         1.69910720054268   -0.20470073982886    3.21815178440574
H         1.88961111697926   -1.23049423755745    2.93735803002527
C         2.71856693114903    0.72903578941644    3.16264006511413
H         3.70881915916149    0.43925348847781    2.83868376458345
C         3.38485918474186    4.47868626409840    4.60803425518887
C         2.63506775210291    5.61950731202460    4.34362854274234
H         2.30525309266613    5.84289107705543    3.33869363844641
C         2.30796816919030    6.48541012217211    5.37199194101587
H         1.72503587285064    7.36978483233133    5.15803420423610
C         2.72005276690268    6.22305618033082    6.66760422634778
H         2.46109485183022    6.90371891992426    7.46547811172534
C         3.46717311989458    5.08818512564989    6.93730003595808
H         3.79366512618618    4.88093502692437    7.94613239498074
C         3.80130513382487    4.22382495699819    5.91204037920487
H         4.39046488512351    3.33903312660440    6.11307563474136
N         2.35867299904564    3.51224350270037    1.18692383855747
C         1.72313118636604    3.96251209048885    0.11055131883777
S         1.75031736413169    5.56343812470207   -0.49519322844215
N         0.90252079339594    3.09770767989705   -0.50082322851132
C         0.12000709728496    3.49969772686639   -1.64185837033139
H        -0.70144142515914    4.15542535817636   -1.34191577724543
H         0.74238472610318    4.04981146040572   -2.34976559525770
H        -0.28288077048353    2.61346017331676   -2.12592768059913
C         0.72460845232334    1.74937188155443   -0.02147925944288
H         1.08383761403410    1.03427131164678   -0.76521084004639
H         1.28575767927748    1.62142669493029    0.90049152093842
H        -0.33351836125507    1.56141982772130    0.17062676269320

