82
CSD_code = AQOMEZ | q = 0 | S = 0 | Stoichiometry = C38H28F11N2NiOP | MND = 4
Ni        7.54626079365877    4.34469377462430    2.50150111292460
P         6.90352905657742    5.66185308323477    4.08548513013891
F        11.61493673611549    1.65324718209239    4.50261821307261
F         9.63561495570202    4.07922483780003    6.15467278646672
F         9.30516109412770    1.95320856545183    5.95838119481076
F        11.75872261315399    1.44032739289856    7.08764568585416
F        10.55220155354981    2.77107801936544    8.28078741973596
F        11.86080797377114    4.94500999455139    7.38667652537037
F        13.25588987312653    3.45654790609080    8.08994992261424
F        13.81451918192622    2.65006286773922    5.57395973348109
F        13.98507129618540    4.79532807390241    5.74344533939179
F        12.75245034643564    4.00795349584867    3.41309888835433
F        11.51677426965844    5.18212377467350    4.72246188351734
O         8.95969787785473    3.71069056802123    3.68664127438312
N         8.34951013883156    3.41490388711405    0.95731625636534
N        12.52041980092622    1.36853361625209    1.62895356773811
C         6.07167797477395    4.91699844250417    1.51979981825836
C         4.95888558028001    4.07125152930945    1.55167341212470
C         3.81509234710487    4.41715899865487    0.84450903394908
H         2.95805054604945    3.75832628307340    0.87204577519073
C         3.76359203946265    5.59257914326700    0.11741296785766
H         2.86596620412580    5.85552729101877   -0.42221425511387
C         4.86268274449106    6.43117493048918    0.08725056347308
H         4.82815590735637    7.35226777328456   -0.47595190823330
C         6.00962802075229    6.09926708087584    0.79163214810796
H         6.85266349949221    6.77895445126911    0.76846509671137
C         5.01368112028484    2.79553767492736    2.35263151038307
H         4.33520716206429    2.84470753692341    3.20425134907901
H         6.03925217421503    2.63568890644105    2.72761355006033
H         4.72910490619050    1.93986928342968    1.74211190013250
C         5.62677699138031    6.93253421636116    3.81704334525939
C         4.29696221022279    6.52047048842834    3.82810574727093
H         4.06619004696203    5.48939744401186    4.05850910584713
C         3.28692402123750    7.41765597537266    3.54464060891320
H         2.25742524795176    7.09197698392069    3.55268197170698
C         3.59621685044397    8.73481601173451    3.24280654932606
H         2.80745820766003    9.43627200758067    3.01527575847308
C         4.91658179220570    9.14985157754957    3.23120289110787
H         5.15835050466562   10.17643952707273    2.99735353231611
C         5.93221620432579    8.25247368210945    3.51270418729699
H         6.96290074476257    8.57791532766946    3.49772665327652
C         6.41672468819292    4.98194607686971    5.69673353200697
C         6.59100230912322    3.62484561371166    5.93569239745433
H         6.98652642751380    2.99589917084867    5.15032057177651
C         6.26978696613634    3.08698568343244    7.16879869190920
H         6.41816478129719    2.03317887394164    7.35171460735530
C         5.76125608448630    3.90323156341343    8.16518820869129
H         5.51238323848279    3.48712899602054    9.13007608599693
C         5.56335058825304    5.25412481732072    7.92373983889635
H         5.15635849054486    5.88691625128658    8.69900885444384
C         5.88621731294708    5.79643641576925    6.69356101122001
H         5.71953192638605    6.84732305525449    6.49929796365014
C         8.40866049055125    6.63781326556674    4.38705102584361
C         8.80587034277991    7.11884786647898    5.62620493569896
H         8.22328509574755    6.89712031557511    6.50773419759885
C         9.96728073817666    7.86506821296081    5.72893760031234
H        10.28286125670183    8.23083265974993    6.69438482600474
C        10.72838240811840    8.13661736975023    4.60461451251451
H        11.63272126429483    8.71940863202320    4.69356804603925
C        10.34392632386595    7.64254324195878    3.36778703877066
H        10.94960072483361    7.83633508059816    2.49453470281270
C         9.19213950789376    6.88797336824652    3.26234689447188
H         8.88679768338564    6.46527123801707    2.30337794245186
C         9.99869729690711    3.09219226202416    3.38293148942745
C        10.34192985572864    2.60655587446272    2.12954844710232
C         9.47626033769085    2.77758983819519    0.99978114070658
C        11.54876502257485    1.92281045678900    1.88527371454116
C        10.99553834344541    2.87298773066589    4.56975627656288
C        10.25573114427409    2.90448883125967    5.93289092547164
C        11.23377538389225    2.67511794301100    7.12296316127691
C        12.37537022664725    3.72976243083918    7.11381408331543
C        13.10589133253835    3.77662321071627    5.74230087466161
C        12.08945926000226    3.96724419594932    4.57932521954764
C         7.80533521127988    3.37197761181508   -0.39830926177121
H         7.93264428429050    4.36220618301821   -0.84934741738239
H         6.73607478717229    3.15855982932517   -0.36591291172975
C         8.60409825980522    2.29847565230592   -1.15063411950836
H         8.06532146588436    1.35067565339300   -1.13747751761189
H         8.78665734021284    2.57556484078021   -2.18569901235976
C         9.88564636169115    2.19060602524589   -0.32753400119459
H        10.25358590975079    1.17102786386720   -0.22280816692365
H        10.69717891643777    2.79308619058892   -0.74391265705432

