57
CSD_code = AQOMUP | q = 0 | S = 0 | Stoichiometry = C16H34Cl2HfN4 | MND = 6
Hf       10.71104890756898    7.46533057118074   11.77715442633069
Cl       10.27228108017687    5.74015265768879   13.31105381796331
Cl       11.74616384333674    6.02134785407976   10.23900235181654
N         8.72505441618975    7.36520594658958   10.95374710710269
N         9.18822670590275    8.64771018457782   12.67352111284064
N        12.59466468282903    8.09277021920367   12.60926116135983
N        11.70545634297636    9.11877476626128   10.88479561349775
C         8.23295889039547    8.05600149286606   11.97438695947501
C         6.75984132801129    8.16481185915338   12.26825871047808
H         6.56911458153412    8.90951148246625   13.03417800917853
H         6.38435832999160    7.20348275846698   12.61516760977702
H         6.21844509310846    8.44223665853713   11.36547163985468
C         9.00187325463432    9.42988288910504   13.87607888897979
H         8.13069687993023   10.09971201759112   13.78739531982860
C         8.81911518071950    8.50887213240233   15.08771167541271
H         7.89619868586822    7.94036425543221   15.00388925704511
H         8.79220195904489    9.08803599087562   16.00762918206648
H         9.64728230744840    7.80297054980628   15.13074193436888
C        10.26239079121348   10.28092801770716   14.03786179160274
H        11.13053691200028    9.62034108440427   14.05083705133025
H        10.22607725477757   10.85391923822581   14.96138877759280
H        10.36268460986647   10.96690774610404   13.19902216242784
C         7.93771020049421    6.46329249983514   10.12772423146557
H         6.86909583037453    6.71855962166414   10.16690258000415
C         8.13615582670543    5.03258108472747   10.64209357517785
H         9.19548983956279    4.77471232332297   10.59490171770792
H         7.57444189649613    4.32718130179251   10.03431518880860
H         7.80754648743938    4.94686761339979   11.67649632940324
C         8.42655141281703    6.57681057160423    8.68178994509697
H         8.23644307331065    7.57380538691655    8.28886843744350
H         7.91339611494133    5.85246430008550    8.05452030692447
H         9.49707574793536    6.37710496646082    8.64657132453831
C        12.80564316159128    8.91899937323601   11.59253397482773
C        14.13674014336285    9.56578221893110   11.31221832202996
H        14.84495221679617    8.81292925950828   10.97039987772137
H        14.52813073820875   10.02205359271468   12.21970106804596
H        14.04498002487546   10.32978854103796   10.54723755668304
C        13.65287860118041    7.54052094170246   13.44039863440140
H        14.55271976830710    8.17141858086645   13.41007449702554
C        13.14683127933451    7.45958674196757   14.88250831714331
H        12.94947220981591    8.45450746917236   15.27709628075646
H        13.88821356450755    6.97620528556610   15.51352514407999
H        12.22732716197563    6.87583158583417   14.90957074496512
C        13.99844201759403    6.13953486047506   12.92184603718682
H        13.10776586589813    5.51009519248834   12.95891015452175
H        14.77538164989064    5.68708957378153   13.53354406044359
H        14.34362830802758    6.18575677148390   11.89031501789900
C        11.59980689159985    9.91776740559177    9.68354703849718
H        12.15548762831110   10.86494625634510    9.78237212304132
C        10.11407259295240   10.23457280740835    9.50587142710807
H         9.55726892229847    9.29642382399176    9.48630827586702
H         9.94274365763224   10.77994346579980    8.58080653662971
H         9.75486621404245   10.83220741151609   10.34145533314069
C        12.12854268000669    9.13734889451587    8.47463757529240
H        13.19599853013441    8.95469854210519    8.57053019510795
H        11.94838909297759    9.68917489925341    7.55513612596277
H        11.62503861108044    8.17326646217215    8.42051748472786

