82
CSD_code = AQONOK | q = 0 | S = 0 | Stoichiometry = C41H32Cl2O3P2RuS | MND = 6
Ru        7.28298266840285    4.31292649606021   11.68143482111445
Cl        8.95877427335985    4.54890019787037   10.05767309035065
S         8.37453422635907    6.36462030739277   12.57065280568570
P         6.19455914079556    5.74655829901428   10.16617309589377
P         7.52754971409026    7.30380146348989   14.09721994840898
Cl        8.74479612325263    3.10568567957030   13.14424818082086
O         5.03320879131490    6.53265171977938   12.61950423692410
C         2.11109554055683    5.42318785707809    9.92207874549502
H         1.35616676339112    5.16496588922674    9.19553299285889
C         3.44293000388996    5.46747190842385    9.55009189641488
H         3.73931091753247    5.22419258208356    8.54108962792521
C         5.81027855576061    8.54092730321357   10.41167884136888
H         4.79008342670048    8.33370314812426   10.70128518799562
C         6.23952329438968    9.85321695400028   10.31360631097179
H         5.55358217225407   10.65737451120669   10.53877340208922
C         6.76297276586190    2.65478202720333   11.05657125154024
C         7.99075363915245    7.79054402136853    9.72018142463291
H         8.66782981639006    6.97621447013442    9.49701897649186
C         1.32847832166981    7.42071938011479   13.73720242402331
H         1.03077345639392    7.59198849095069   14.76822349729990
H         0.43432746095899    7.24207644145542   13.14652021759068
H         1.81219842329168    8.32189296573884   13.36397260251458
C         6.68557043780372    7.50228570297599   10.11590692951500
C         2.69343052163190    6.01986393158830   12.19430942315099
C         6.24635241298752    5.32388335651863    8.39915858260656
C         5.87405007824014    6.92217252544595   14.77702066636845
C         8.41113100599185    9.10306381779314    9.62833875506459
H         9.42364185322679    9.32042562902179    9.32257515490970
C         6.35061031500365   11.19510980532622   13.53417083881585
H         5.46652763482600   11.80135538995395   13.66778742252430
C         4.40573861157484    5.82672597405098   10.48018390121500
C         4.01624414651076    6.12825094928228   11.79184572797298
C         1.74883462975243    5.68056563326737   11.22988907698194
H         0.70867797708332    5.61172540009162   11.50782534829825
C         9.86068222361093    8.03584757321755   17.37831440321829
H        10.11189807064753    8.87038065927434   18.01642498318902
C         1.60233673845860    4.93759777409052   14.13656097700666
H         2.30775141063617    4.10982391117342   14.10880762954246
H         0.75194563932046    4.68628306186945   13.50972186655439
H         1.24726131091299    5.05452335105511   15.15618496808881
C         7.53652882054021   10.13683164101572    9.92378125873843
H         7.86263378394903   11.16353942340606    9.84480487952833
C         8.61795102864831    9.64131385078307   13.18154016349508
H         9.48728400114751    9.01474895805590   13.03655559061125
C         2.28709454041338    6.22201490790113   13.63923352153486
C         8.65884832154865    7.13791413555463   15.51086749099095
C         6.04064176640787    4.09549721320188   13.02507699567695
C         4.77613282812348    6.64876017831120   13.95103251366869
C         7.45593193875046    9.07658680740355   13.69801953280440
C         3.36533872593355    6.60313506239189   15.87926545732667
H         2.38804117993467    6.49420094048085   16.32224141580935
C         3.50465981403854    6.49293172239038   14.50134135026547
C         6.04665282617425    6.30454185405080    7.43073835019327
H         5.88198268332069    7.33148573661718    7.72590683591628
C         6.31788296310264    9.85245438535643   13.86916596852889
H         5.41547161097453    9.41255781234763   14.27011760570438
C         8.97252467592035    8.21451519819276   16.33318266902399
H         8.52415281631548    9.18221463009847   16.15058100528908
C         6.06256618021283    5.96409404146569    6.09050467704489
H         5.91353863265500    6.72933222385988    5.34262174298924
O         5.30098694864174    3.84456494914506   13.86560416334065
C         9.23442446690239    5.88987982570141   15.72832612782759
H         9.00543219653507    5.06168242590175   15.06810363247151
O         6.49515253080808    1.57307636717255   10.80489408831971
C         6.44964371113597    4.00601404881354    8.00882401854343
H         6.61717701916652    3.24917030239322    8.76325284686926
C         5.70367216202671    7.00412527352374   16.15266233766412
H         6.55614233221081    7.19757790700795   16.78548215777024
C         4.44839934289557    6.84141987243390   16.70343897081106
H         4.31425824701331    6.90499117657127   17.77189146753831
C         6.27382952242697    4.64985690866706    5.70654334945897
H         6.29443634173285    4.39031861540116    4.65845742079463
C        10.42862285621130    6.79144257933287   17.60344251141133
H        11.12282404330712    6.65933131041511   18.41999578605480
C        10.11562635545090    5.72094812023355   16.78075576456562
H        10.56243408669307    4.75356070043853   16.95117642496976
C         6.46446403946843    3.67063493329779    6.66753822613836
H         6.63286626917138    2.64592255520735    6.37223727690147
C         8.64549241646835   10.98360606718682   12.85788017917789
H         9.54990251769981   11.42458033261547   12.46671482632039
C         7.51158436152293   11.76147364914196   13.03578059948676
H         7.53197458042013   12.81106479700368   12.78255856499991

