110
CSD_code = AQOSOO | q = 1 | S = 0 | Stoichiometry = C51H46F3O4P4RuS(1+) | MND = 6
C         5.61668224165849   -0.89930193262968   -0.89911960130700
C         5.22625258771207   -2.00714876292012   -1.64357928433849
H         4.23382628999664   -2.05315498726172   -2.06650042269956
C         6.11578945860433   -3.04708887023108   -1.84205708393635
H         5.81284219622604   -3.90848356254814   -2.41762780779846
C         7.39405566699037   -2.98646887278379   -1.30748958894588
H         8.08294732129306   -3.80108170862667   -1.46909376505539
C         7.78734228323307   -1.88304304135342   -0.56799760957207
H         8.78051800451853   -1.83204548287218   -0.14795692491755
C         6.90069256740864   -0.84085768358011   -0.36668902159046
H         7.18987012169506    0.01896974630698    0.22899413407722
C         3.93839970152067    0.91701297176010   -2.28183405733153
C         2.91791005981388    0.23285547827182   -2.93654409664796
H         2.39802084652931   -0.58249518288009   -2.45278155165654
C         2.54998735950203    0.60476988689747   -4.21696966962187
H         1.75545686617282    0.07336421368458   -4.71904984144517
C         3.19010401285355    1.65736215693477   -4.85127979012400
H         2.89106487572055    1.94836551333603   -5.84626395391111
C         4.20892095204978    2.33857731064746   -4.20612147624510
H         4.70525332671409    3.16370257592261   -4.69260612738096
C         4.58503362095383    1.96674566133897   -2.92885045789782
H         5.36621907036187    2.51576952029325   -2.41890223879296
C         3.02477198398028   -0.17704470538586    0.29373632412488
H         3.32325465123247   -1.08372047208186    0.82541415825568
H         2.13803105048459   -0.36770095693692   -0.31472393171094
C         1.24880364253467    1.97885039841349    0.93318206770248
C         0.24246003397719    2.32758221401982    1.82947317498726
H         0.36114172339161    2.12900791692886    2.88471934180674
C        -0.91569617903662    2.92581234334507    1.36543381593000
H        -1.69752261423080    3.18580258499975    2.06334458681803
C        -1.07251185567576    3.19450215578128    0.01573394605839
H        -1.97306572802516    3.67109001721410   -0.33972200842801
C        -0.07052086645695    2.85138069551840   -0.87817288985301
H        -0.18687275100471    3.05985168540186   -1.93098082910787
C         1.08471846354613    2.24331229541725   -0.42519481771833
H         1.87050991846620    1.99371808696360   -1.12410154164375
C         2.34875176390427    0.46658919095698    3.08206799595239
C         2.38919932470126    1.27828960358459    4.21342543590670
H         2.68131682363591    2.31380901445162    4.10268174028212
C         2.03509730184006    0.77534778105950    5.45100320473151
H         2.06419915407269    1.41477138054727    6.32065573216486
C         1.63637676553646   -0.54628585194627    5.56969706657820
H         1.36243522395022   -0.94415449881356    6.53448918520967
C         1.57528660801971   -1.35198631946903    4.44534244085066
H         1.24730440874619   -2.37648691307653    4.53376368786928
C         1.92416122926878   -0.85095193457585    3.20340636036375
H         1.84963041848586   -1.48840004548243    2.33581898473214
C         7.80574980390523    1.05833261252779    2.65951473043547
C         8.53203074515447    2.22409249477512    2.42430052483325
H         8.00791301148887    3.16193062053691    2.29059483360797
C         9.91130531156436    2.17757093251493    2.35380111391100
H        10.47010652898519    3.08431371159394    2.17790427340070
C        10.57334312620529    0.96907251273402    2.50901470383635
H        11.65057550223660    0.93326661193523    2.45518924734521
C         9.85244588423257   -0.19294866098530    2.73184673523411
H        10.36832263404462   -1.13355121160649    2.85333503372060
C         8.47071905180904   -0.15562779679455    2.80371539167576
H         7.91059976826553   -1.06309278298495    2.97732552872390
C         5.48084429151539   -0.34444044708379    3.53267639020608
C         5.33960653771717   -0.43899788044084    4.91216929756677
H         5.53218485430948    0.41706610517118    5.54098364568059
C         4.96502916962987   -1.64103627584344    5.48608991757016
H         4.85433630116972   -1.71017938587149    6.55747493224341
C         4.74056337478681   -2.75507492621627    4.69474576111049
H         4.45033378236337   -3.68982131873237    5.14891848034225
C         4.90185063903118   -2.67196894234895    3.32097483019700
H         4.74628805812381   -3.54378089885601    2.70287354949403
C         5.26939321969053   -1.47149672306963    2.74313924591747
H         5.41765426988545   -1.39461985694265    1.67390867771397
C         5.69199617718609    2.56868033473406    3.89454848837391
H         6.58578609746499    2.83247492499126    4.46379839469805
H         4.88088893401625    2.29494325876063    4.57210872403217
C         6.42923752579676    5.09685306468447    2.81326113826815
C         6.87097141218107    5.46793689719823    4.08181851614812
H         6.42045891360735    5.04912287118819    4.96807255402390
C         7.89992767826283    6.37933747918026    4.23057016200851
H         8.22139095961005    6.66327915722906    5.22151271322528
C         8.51826933389613    6.92249373530814    3.11688874413113
H         9.32215726751205    7.63267712456194    3.23546906270812
C         8.09849040313780    6.54661562284180    1.85291247488115
H         8.57587840283110    6.96073115350203    0.97773295960779
C         7.06206569743124    5.64183738278336    1.69985889639892
H         6.73512207499431    5.37946405507880    0.70762963822703
C         3.61841941375247    4.53110270343416    3.46079544235067
C         2.44318543304919    4.63801807902198    2.72298883124887
H         2.43792253484020    4.33980497012779    1.68431511428015
C         1.29097592915092    5.13423654560420    3.30519006476180
H         0.39266070419212    5.22617372667475    2.71395455241697
C         1.29401733619573    5.51067672545201    4.63785227232394
H         0.39829336557367    5.90454941914521    5.09323588752190
C         2.45009179813583    5.37318890716922    5.38866098536498
H         2.45362774252097    5.65123732093664    6.43210242868228
C         3.60616491938172    4.88325988260105    4.80799682519705
H         4.49002899187471    4.77022115507036    5.41621098454508
C         3.06027547959298    5.69324085393174   -1.44735958396251
P         4.50506819294960    0.51469580528657   -0.59961455407256
P         2.80822249679845    1.23185826472598    1.49502424178402
P         5.99200902370144    1.19280724623245    2.70292497483172
P         5.09469441152355    3.85360210327619    2.63109710999222
F         1.89840691882769    5.68919025048062   -0.79369660577860
F         3.41479032620274    6.94978818530304   -1.67743912232570
F         2.87416504661565    5.08306266049903   -2.61881065436676
S         4.32189163908793    4.74502591374628   -0.44803836844492
O         3.68891154274776    3.43216239158313   -0.42446622611913
O         4.38038278128517    5.40843625516930    0.82701046515831
O         5.54231480205823    4.76764508931490   -1.22155083759467
O         6.85422880685892    2.82963416700594   -0.03544808130128
H         7.27284430520862    2.19965526708099   -0.63569330325152
H         6.60505335043508    3.61829703027897   -0.57155367212985
Ru        4.87046603651458    2.19936291024212    0.96115852266427

