48
CSD_code = AQOWUY | q = 1 | S = 0 | Stoichiometry = C20H24O3Rh(1+) | MND = 6
Rh        1.28459898474092    2.02910072678754    2.42498411879990
C         0.25191899620839    3.64376469373357    3.00780289644647
C        -0.71309069313570    3.58002549439939    4.04629977991475
H        -1.16501731953205    4.50973199183879    4.36512846979117
C        -1.08218820708560    2.38593670067442    4.59574453001273
H        -0.60216027955425    1.49106025739957    4.18525301885805
C        -2.03722047320097    2.15847335629948    5.62350311780773
C        -2.32298901510305    0.83704857856741    6.01315922158048
H        -1.81185829778883    0.02259046399946    5.52003113671001
C        -3.23942381086158    0.55311127821377    6.99606649274565
H        -3.43152848064171   -0.47422956322934    7.26094037702099
C        -3.91671695861800    1.59556724528872    7.64390357760113
C        -3.63683369047396    2.92297275778578    7.26664472938132
H        -4.16589173016253    3.71223565862664    7.77617497149812
C        -2.72625758916688    3.19724050574773    6.28468607273649
H        -2.53360429095256    4.22349261464686    6.01761397210840
C        -5.17750367100097    0.14885731999539    9.05200075609786
H        -5.92684410769082    0.30037022489678    9.82628023352246
H        -4.31733205667590   -0.37483762551849    9.47732205379793
H        -5.60837965110685   -0.44458107767983    8.24143178315376
O        -4.82304156883998    1.44369434315146    8.60857106241105
C        -0.10183418231467    1.75865208307157    1.22405381614928
O        -0.97997365162386    1.61139514459219    0.51530398876232
C         1.29269351017295    5.09063768079667    1.44380535843600
H         2.06625961835637    5.78002429624044    1.78705072284214
H         0.73198334096024    5.56442304663978    0.63681078646286
H         1.74613439402994    4.14939302510808    1.08680876717818
O         0.39707611164097    4.84928111491557    2.51286269986230
C         2.44306430363517    2.00172262007948    4.33722101566133
H         1.86055539489738    2.59036529702648    5.04713822297257
C         3.21001860183509    2.67279125892989    3.42461083350948
H         3.17304282675658    3.76242357147302    3.44255191128268
C         4.40933683591828    2.09234898108839    2.71313367500614
H         5.13079349972687    2.89211485405570    2.53904086932511
H         4.89053415130582    1.36419326003400    3.36500422237426
C         4.06287814850583    1.45745623406166    1.35124693031246
H         4.84493346703870    0.74537201191572    1.07104529071959
H         4.05956010568371    2.23840902351668    0.58509655842961
C         2.72973213624098    0.75466330092439    1.30569456896010
H         2.33004124771877    0.65324648040584    0.29525833162107
C         2.19316971341690   -0.03438861004607    2.29201819866488
H         1.36643448215035   -0.69127331500499    2.02011587057501
C         2.90298103785603   -0.40667870079174    3.57221058688523
H         2.58849912815293   -1.40879701604457    3.86731054516040
H         3.97554566733245   -0.45083645898340    3.38743204341935
C         2.58798858136724    0.55517016404125    4.73457673629330
H         3.37331122115833    0.48164571347513    5.49349198927722
H         1.65660421877656    0.24111899282561    5.21446308786329

