231
CSD_code = AQOYAI | q = 0 | S = 0 | Stoichiometry = C84H122N4O17SSi2Zn | MND = 5
C         4.21630075207103    3.10051590105248    3.78317748158164
C         4.84175272437003    2.73841848070594    2.54186195522227
H         4.72758571588233    1.78954929295104    2.05443286042385
C         5.56719710962653    3.81236911170707    2.14952120947243
H         6.18138179506963    3.91586267595379    1.27655426679747
C         5.37725176284231    4.82717707154304    3.15115085104786
C         5.99001959014949    6.07903963250324    3.12594101556247
C         5.84979091394982    7.05134247872726    4.11562984355184
C         6.46374255871812    8.35013112041558    4.07096339691859
H         7.07588752593554    8.71520436804364    3.27020205673708
C         6.10248082642540    8.99095106182573    5.20885960242842
H         6.35846202888970    9.98118428755844    5.53338197646447
C         5.26161191475101    8.08413159862159    5.93798628051040
C         4.67770745347548    8.38383690507698    7.17607002281420
C         3.81448160288360    7.54292663226130    7.88936109144243
C         3.17049328508010    7.91618691539958    9.11791756017242
H         3.29362489692814    8.86200781065487    9.60932869799940
C         2.40365655858365    6.86247522181746    9.48367173041023
H         1.75680289066942    6.77836223822245   10.33472967381038
C         2.59546361444235    5.84336454978956    8.48488488875088
C         1.97654470694760    4.59303680708985    8.50693732499669
C         2.13605043433923    3.61174188754610    7.52808733538905
C         1.55010033524732    2.29801923366900    7.59131164731823
H         0.92927254775396    1.93703888500243    8.38733363726642
C         1.95160713242632    1.63974923007886    6.47896673910226
H         1.72511230115856    0.63668687510800    6.17263138416686
C         2.78204350337517    2.55184323377965    5.74234283540113
C         3.39192603591894    2.24063434523069    4.52100427862588
C         6.87720630011278    6.39392718340846    1.98423342192067
C         6.34541897260714    6.53117886939817    0.70418032996120
H         5.28429831654473    6.40183997774361    0.56836055037036
C         7.18238283906416    6.84682162670659   -0.35601174815747
C         8.55203777408642    7.02054066771780   -0.13979972795674
H         9.16084914494098    7.26212485952084   -0.99460154829731
C         9.07991274276478    6.87543940577045    1.13232383935991
C         8.23380087847777    6.56135480121813    2.19710018798859
H         8.65464741180222    6.45166223998050    3.18363526259933
C         5.42071378024829    6.79829347270505   -1.96254138917495
H         4.78366914025229    7.52906253454432   -1.44602426253582
H         5.11815984767492    5.78385309692080   -1.67752684586590
C         5.26165357341163    6.95109065773995   -3.47093849981652
H         4.21831110560657    7.19461549552807   -3.71129516545850
H         5.90868520151628    7.76782272987690   -3.81665160630781
C         5.75180613349467    5.82963530540268   -5.49218861880996
H         6.22612971269332    4.89352142313716   -5.79664944687538
H         6.39207808794572    6.67407520088282   -5.77838129917166
C         4.39636824541548    5.94810605360431   -6.20925972188871
H         4.51333460403899    5.59383557267033   -7.24294879294258
H         3.66892238897532    5.31239770376090   -5.69688591244089
C         4.33581636079454    8.17415039193440   -7.12297702221707
H         3.46907672493578    8.65645461250922   -7.59040746147583
H         4.93105318594659    7.68058750911264   -7.89868094426577
C         5.18548640478016    9.26893229340488   -6.46842947115163
H         5.16913166432024   10.16607604239289   -7.10671402965940
H         4.74913863758684    9.52892334289684   -5.49314196475382
C         7.34713818507282    9.78338051901567   -5.70962049727508
H         7.39756480807076   10.69850904747270   -6.31241435010593
H         8.33689458441104    9.33661461542531   -5.64189516128130
H         6.99374259753796   10.04420724297888   -4.70425976523017
C        11.29156588926041    7.43629811207101    0.44382050749162
H        10.95643265706154    8.38494330116433    0.00820196204266
H        11.37396083258916    6.67724743778986   -0.34614723013493
C        12.65532438695829    7.65145122423584    1.09064891554739
H        12.86054308563804    6.82088539708929    1.78280336376979
H        13.43619223310804    7.66217988083230    0.31397687855305
C        13.81382179215082    9.11509086209646    2.51600444885680
H        14.69154215823265    9.10484189238993    1.85414652760078
H        13.94230518407603    8.33783410908583    3.28576395829539
C        13.71074980624961   10.48558546102246    3.17486908439942
H        12.66478979353024   10.65561602476708    3.46816536670847
H        14.34095800071361   10.51709610005070    4.07754715987756
C        13.94537567118040   12.77803925009048    2.73334932361539
H        14.42557302480636   12.90621876240930    3.71427217763635
H        12.86979025764397   12.99051601360993    2.83623860834923
C        14.57927413994551   13.75412076957136    1.74952697914985
H        14.45537337476613   13.35854563259605    0.73158109851129
H        14.07509566956944   14.73176625912293    1.81225047108517
C        16.63618136674990   14.69545368208481    1.13725141326413
H        16.60317030597934   14.26052624910898    0.13052186138841
H        17.66819000532594   14.74344679995243    1.47831579356405
H        16.21788389588775   15.70976068351883    1.09442817162666
C         4.98092731899744    9.63816103020356    7.74443392533041
C         5.26959473133967   10.70641387611432    8.23940833373244
C         7.16737254503040   13.02646660020528    7.97933664271783
H         6.85210114066597   13.14435287657837    6.93801801515707
C         8.32192327578369   12.02904082118490    7.99141406763566
H         9.14286923681077   12.38231822040337    7.36817532510881
H         7.99637601225532   11.06128716001240    7.61761499162687
H         8.70135696674831   11.89188539099603    9.00158145210518
C         7.64403630420797   14.38708135001646    8.47953332008644
H         8.01510447441803   14.31051458918204    9.49952110928028
H         6.83657056447811   15.11592736988693    8.45975682196684
H         8.45533737757333   14.76332053717134    7.85634107199898
C         6.12269463053113   12.10827542973310   10.82889527495252
H         7.20169264275896   11.92929882317591   10.88421533183468
C         5.81787933651858   13.33773877650683   11.68313251202532
H         4.74831415257839   13.53369687170026   11.70700981224422
H         6.31785540475552   14.22232124391491   11.29542856322028
H         6.15260803655612   13.18134485461279   12.70865011787256
C         5.43480762942786   10.88014369941216   11.42006135713757
H         5.74485729007162   10.72743359139423   12.45346190180973
H         5.68262399446029    9.98867279265681   10.84966385728476
H         4.35423800791401   10.99976231210837   11.40667437850716
C         4.11412940637658   13.46400895507955    8.72930223221580
H         4.24724499116235   14.41088350151155    9.26287651696137
C         2.86583170471922   12.78564542491496    9.28761790511812
H         1.98677902526550   13.41099042242387    9.13379246746027
H         2.96350616244024   12.59880898115976   10.35395862892742
H         2.69933262719062   11.83362461639320    8.78867415298990
C         3.89945141514529   13.78792033900890    7.25288152924601
H         3.78129005116588   12.87160917777294    6.67875606904214
H         4.74234474767203   14.34098362760429    6.84639869825071
H         3.00214126574569   14.39160892222071    7.11997783565458
C         1.09610114598568    4.28105483839338    9.65437581959593
C         1.62986077322555    4.23271017430569   10.94205823443691
H         2.68408054847598    4.41324992438653   11.07322896997999
C         0.80355052434511    3.94220880507399   12.01571110747097
C        -0.55565865706129    3.69455533359301   11.81031966754983
H        -1.15633758797892    3.47652185829223   12.67718251817638
C        -1.08367699054242    3.73778936834540   10.53019365816079
C        -0.24973777530622    4.03578159641346    9.45064501612073
H        -0.67538579801133    4.07788725150285    8.46141764069871
C         2.56091479609792    4.14090536982531   13.61505591508102
H         2.84722012090537    5.14764075483477   13.28480573855020
H         3.22219931559573    3.41157101665113   13.12993152252458
C         2.72312570650101    4.03760253981904   15.12875563457069
H         2.08602200112839    4.78383422343893   15.62355293313423
H         2.40394718696301    3.04458426473002   15.46583057798509
C         4.35744949316750    4.33679273317092   16.81146692021476
H         3.67971053237224    5.04385127506859   17.30926503594599
H         5.38383997618149    4.70441248769788   16.87714210963127
C         4.25688321310131    2.98871653551130   17.53339261851464
H         4.64756930253971    2.19322303268732   16.88011213081614
H         4.86966801797663    3.01815638903483   18.44744834371468
C         2.72222232524528    1.52384726222986   18.55031041054083
H         3.35782522628598    1.48368278250066   19.44626210386729
H         2.98199722462484    0.67713945059573   17.89518330361830
C         1.26268491945703    1.42331132187564   18.97651075902857
H         0.63397679883054    1.86801395696035   18.19176152120917
H         0.97976931566601    0.36529895618591   19.09780656707537
C        -0.24768107658744    2.17696695634762   20.60151732224834
H        -0.86246600793603    2.71113778226844   19.86654365096009
H        -0.25824823044778    2.71775440153801   21.54537880096438
H        -0.67012048449421    1.17446655801939   20.74972974045728
C        -3.27345788522599    3.12770151629528   11.24848451803876
H        -3.40821680461679    3.94760393146524   11.96737644984833
H        -2.89560210542904    2.24038228801829   11.76993333306240
C        -4.61174930963352    2.77883648377727   10.60599630297792
H        -5.41471898585736    2.84286164621666   11.35729081643349
H        -4.82260011576022    3.50123937260192    9.80359217720122
C        -5.66901773940783    1.10225360987317    9.34523224890372
H        -5.77442740178808    1.75583099128978    8.46533332451609
H        -6.57676653852659    1.18689804683500    9.95967308698916
C        -5.51040404118866   -0.34621398246057    8.89910971687465
H        -6.10997384967645   -0.52821031796735    7.99355201463981
H        -4.45173572036897   -0.52684668733777    8.66409950261794
C        -5.69809007375814   -2.55450261262235    9.67104847666211
H        -4.61420069225187   -2.74326279508762    9.62268864107929
H        -6.14951598484836   -2.84545242892132    8.71141695842003
C        -6.32501395205655   -3.39235333731693   10.77913179463098
H        -5.78623093479944   -4.34828505374079   10.87908679646571
H        -6.24269684364649   -2.84091602487079   11.72635354716412
C        -8.36488021848041   -4.30283325451806   11.48691705897835
H        -7.91476032399804   -5.28213227240510   11.69728973877207
H        -9.38536057543095   -4.44134140157684   11.13596132798185
H        -8.37311935059306   -3.71528950601136   12.41355793742643
C         3.16454451041333    0.95416091316486    3.98973171085856
C         2.96689219246396   -0.14878082924007    3.52723399309272
C         1.41423861186619   -2.70098027161439    3.93608712727897
H         1.84348353788004   -2.76639945105831    4.94074823073804
C         0.13455332545268   -1.87700628129746    4.04362319409801
H        -0.36256111422625   -1.81077498605115    3.07836796088898
H         0.35430427309779   -0.86691422032043    4.38025406487607
H        -0.55928517394162   -2.33330408899016    4.74896006524856
C         1.08724681340518   -4.11861986167204    3.47468901450862
H         0.40461086477041   -4.60231913697053    4.17341916989110
H         1.98741227504157   -4.72594900697713    3.40572831269089
H         0.60737431976803   -4.10081119199523    2.49822985384785
C         2.02391105639182   -1.62708630051960    1.01347926689285
H         0.93151265293128   -1.58617296243526    1.07594869021909
C         2.38755727391073   -2.80046099861656    0.10490025146521
H         1.92715761069917   -2.67900720747351   -0.87557598616829
H         2.04762973580945   -3.74497300789199    0.52343601458810
H         3.46449138119693   -2.85808229165322   -0.03652046947502
C         2.48439457224805   -0.31576770710015    0.38132400792500
H         3.56638078820652   -0.29712228568156    0.27468879339477
H         2.19122230471677    0.53124613774692    0.99609343811762
H         2.04578020424661   -0.19367052506453   -0.60861274082242
C         4.39967856108383   -2.72969012086165    2.86053390706705
H         4.33381543738565   -3.67880690978604    2.31870412295394
C         5.48511622303026   -1.88782371563918    2.19475291651523
H         5.57976048560718   -0.92858744184374    2.69898473681059
H         5.25196906198246   -1.70136857481344    1.14961607206383
H         6.44865312439459   -2.39527124572930    2.24026119575813
C         4.80851752379872   -3.04253740775935    4.29784964110437
H         5.78642556579590   -3.52302298946091    4.32256519322433
H         4.09248111777632   -3.70839963294686    4.77248152288047
H         4.86382047173857   -2.12665201959554    4.88217546324689
C         8.19172442042961    3.40212304314774    6.22811602149394
H         8.27717424040573    3.20774927968952    7.29078334051309
H         9.15903745868803    3.61674841776231    5.78962724534766
H         7.74437544176068    2.54631292680796    5.73359565029983
C         8.03543176003032    6.01475100908928    6.96636058082848
H         7.49199448071933    6.95414028616784    6.97310089409187
H         9.01048941216167    6.15747243381312    6.51550442279489
H         8.12191280102188    5.63395645315443    7.97745760077086
N         4.55462109011453    4.36305738469911    4.12968790779225
N         5.12054127807755    6.92266506544343    5.25766415600783
N         3.44726335677804    6.29336400053652    7.52680727167745
N         2.88097818115246    3.72975518132655    6.39848929198818
O         6.77717654391695    7.02218793817958   -1.64161463719938
O         5.64220327378487    5.74252939288275   -4.09076983761561
O         3.81777203813797    7.23626409576874   -6.20696446809494
O         6.51466287255366    8.82629409425550   -6.31285916534587
O        10.39822746838479    7.00741546273904    1.44628633988658
O        12.63802790443098    8.87418767506773    1.78261593688458
O        14.13307817656316   11.46661322362446    2.26038801033629
O        15.94427545068852   13.89810796239805    2.06113642433819
O         1.20900114470307    3.87482855179490   13.31686853890545
O         4.08155243243154    4.27155929049527   15.43530376709030
O         2.91186425303414    2.73827289702577   17.86689093516570
O         1.09300914747461    2.10924508463024   20.19280305384608
O        -2.38953302573921    3.51716392597070   10.22219560920869
O        -4.53359271997687    1.47516916718673   10.08716190871380
O        -5.93759105674344   -1.19439806598040    9.93680094060877
O        -7.67535877257773   -3.63460612391855   10.46436726244886
O         5.89031918251570    4.50587883635162    6.78257584144081
Si        5.66516117241104   12.35831330342918    8.97501160430268
Si        2.70092055237774   -1.83237061471474    2.80453077667324
Zn        4.14340211132959    5.23878863344537    5.93896572023452
S         7.06905405351197    4.83284955765309    5.94689921184406

