29
CSD_code = AQOYEM | q = 0 | S = 0 | Stoichiometry = C11H12ClNO2PtS | MND = 4
Pt        3.59772895035116    3.92819639434294    0.35151207997084
Cl        3.14992130898684    4.38937581063189    2.49390148471536
S         3.51511420767164    1.77282150988886    1.03831804664038
O         3.73963401646209    0.72414343116197    0.04773267402475
O         3.64352639123508    5.88484404265593   -0.14721883921663
N         4.01083512395526    3.69978429967833   -1.61363349269949
C         4.18890123215584    2.59801999055406   -2.31150088054048
H         4.10275314330664    1.65749595510752   -1.78423725090371
C         4.47858317540809    2.62460922904430   -3.68260994078394
H         4.61556636550350    1.69010946718956   -4.20298502780730
C         4.58286494802872    3.82413665438560   -4.33642986317278
H         4.80580804766758    3.86740590950882   -5.39253945201264
C         4.39622428177754    5.02400114966617   -3.61909062966285
C         4.47576190929806    6.31144545103933   -4.17433649784595
H         4.69435582460782    6.41846862125580   -5.22529780818836
C         4.27514247690263    7.41388473471237   -3.37698149501792
H         4.33749714121902    8.40044064008132   -3.81248063676340
C         3.99251755386856    7.30522750738252   -2.01731851135845
H         3.83965268060570    8.18481642400581   -1.41312252596662
C         3.90329020269681    6.05402131381833   -1.41550209441455
C         4.10797333662955    4.90426664638747   -2.23524677791965
C         1.95158169252124    1.37655922091025    1.87351566547069
H         1.82344626154281    2.08923777056487    2.68002900712018
H         2.00297990133198    0.35589905144394    2.23436102829467
H         1.15162232919064    1.47555353743823    1.14706587959340
C         4.65565369805969    1.44474435027395    2.41354320176494
H         5.66749221383472    1.58409350569430    2.04723365321892
H         4.51560948756016    0.42096138428229    2.74045913513611
H         4.43316209762143    2.15813599689362    3.19855986832486

