29
CSD_code = AQOYIQ | q = 0 | S = 0 | Stoichiometry = C11H10ClI2NO2PtS | MND = 4
Pt       10.41923382154354    6.15041407502727   13.83072620537436
I         8.93696000986773    4.56183580223634   18.51973252965368
I        12.87925803054098    8.86352521236131   20.05376747176951
Cl        9.04925300928727    4.67863222516902   12.86932711010671
O         9.88212870134012    5.56818715312311   15.69631257366644
C        10.31017653630890    6.05007498116135   17.96659070988699
O        11.92436374433668    7.76956876971037   11.51909378078875
C        11.88791170606477    7.77011266898602   18.53770667473956
C        12.14460485808697    8.03578535655238   17.17943759108973
C        11.43751813670096    7.25998469476910   16.22180968161130
C        10.50517858667513    6.25125874931113   16.60351952308569
N        11.60212300578993    7.42756966925458   14.88294444598993
C        10.99124998947714    6.79887749306601   18.91741332219237
H        10.80778697212346    6.60920829875964   19.96399010243147
C        12.44601160626657    8.33729619528981   14.44502525413233
H        12.55005218866865    8.44008076443039   13.37316834776226
C        13.03796285309474    9.00032910405810   16.67368100026913
H        13.60060111698887    9.61773932008262   17.35794160170895
C        11.47296660973761    5.29700746464071   10.71793578898211
H        12.39003138142737    4.91360931319569   11.15320000021346
H        10.68995342520236    4.54899676658884   10.76225197881355
H        11.65586048934266    5.63723834265764    9.70521697696659
C         9.46438143379829    7.19656982482249   10.75762332083626
H         8.75326760508795    6.38089150042320   10.81900985039927
H         9.05344517584109    8.09492410884257   11.20667195897878
H         9.76713909457958    7.39678594638760    9.73633234303580
C        13.18395352668529    9.14514177618361   15.31899983763282
H        13.86199963691418    9.87605218595225   14.90971578570129
S        10.93262674822044    6.71690223695712   11.70915423218082

