67
CSD_code = AQOZAI | q = 0 | S = 0 | Stoichiometry = C16H36N4NiO4P2S4 | MND = 4
Ni        7.02568992254042    3.40888775117218    9.59526887034480
P         5.11836663133534    3.33232473449836    7.05781312214297
S         7.01433561791796    2.75983403993409    7.42543852496125
S         6.12488385843640    5.46673752713935    9.24063254453271
N         4.83498800353434    4.91874138914797    6.90500321397568
N         5.02466469333876    7.08472275771748    7.58713283921449
H         5.37408119884928    7.72050784226542    8.28753088669913
O         4.67457479514006    2.68600608820726    5.68311651743733
O         4.04944018611874    2.73580971453594    8.05290590579644
C         5.27064240052936    5.78333190028033    7.78500665262430
C         4.25935335902879    7.61273431969887    6.48906164962720
H         4.89982269853545    8.17568362297192    5.80533935282522
H         3.47038286980378    8.26868250037972    6.85979543954507
H         3.81583748017208    6.77433984379351    5.95742128373526
C         5.38683589220153    3.01220573774418    4.48185150191685
H         6.26098678024956    3.61976676263633    4.74803625463158
C         4.46254751284538    3.81692231733468    3.58152877091877
H         4.14154831037948    4.71363514717320    4.10456302986142
H         3.58591215300596    3.22557317910309    3.32978888321613
H         4.98196063904121    4.09758183576688    2.66944801138634
C         5.84673579514759    1.71107178417726    3.84121048384515
H         6.50465172356097    1.17866142601756    4.52358148236388
H         6.38420356060488    1.91988884840579    2.92060857790648
H         4.98605109219716    1.08434260625256    3.62119475804199
C         4.23725774084336    1.49177703148680    8.75416446611397
H         5.14738576366684    1.00360923079184    8.37700743057221
C         3.02638785227970    0.61504551860800    8.48278635028089
H         2.93297073064376    0.43342936231900    7.41509369172873
H         2.12497098793656    1.11200032282334    8.83262742503759
H         3.13714561000072   -0.33441211760367    8.99933009273527
C         4.41701057461100    1.82384770483914   10.22752662122878
H         5.26831693843146    2.53616460413621   10.33847065129174
H         4.63770260051120    0.92538164361669   10.79700537572983
H         3.52482893587590    2.30440089540023   10.62148397441199
P         8.93755457538312    3.48233170940801   12.13236229430351
S         7.04357841358202    4.06121391438749   11.76447751224749
S         7.92625823661507    1.35127399558577    9.94824861012946
N         9.21943256732974    1.89537833288952   12.28270306745689
N         9.02974654999941   -0.26951499832113   11.59609318159402
H         8.68378670369467   -0.90293150725895   10.89180516464739
O         9.38368867508948    4.12488486422696   13.50805204692218
O        10.00705293987791    4.07860028794745   11.13773668592165
C         8.78339139052738    1.03232238860252   11.40148611453435
C         9.80487595352674   -0.79949058406771   12.68626176635798
H         9.17457920130962   -1.38550135390291   13.35928850079758
H        10.60721545465699   -1.43366016274224   12.30666619946791
H        10.23087982574125    0.03910786650680   13.23107499076218
C         8.67455247113833    3.79317047412835   14.70970483753948
H         7.81772805519171    3.16024691479428   14.44640776326248
C         9.61636859288405    3.02165977771499   15.62092979880891
H         9.96135012653224    2.12748131333580   15.10893681871054
H        10.47722784566255    3.63753739586841   15.86820877976351
H         9.10172845540625    2.73814626505727   16.53480739372019
C         8.17856994420230    5.08793747929844   15.33615755123897
H         7.51039571516193    5.59687459984195   14.64585077147281
H         7.64242243973007    4.87409620268892   16.25637726369768
H         9.02197601170118    5.73849845237573   15.55394976157585
C         9.82108282476400    5.32456712484604   10.43951591751569
H         8.91307738365700    5.81434612640907   10.81966517334862
C        11.03498515293534    6.19726174225374   10.71052796655447
H        11.13114005701844    6.37597243243976   11.77847071525605
H        11.93425295061236    5.69859490622314   10.35762952918819
H        10.92590244477501    7.14830512119135   10.19657316404879
C         9.63711495232399    4.99610491171876    8.96587285157037
H         8.78242965311718    4.28756087554057    8.85500420681137
H         9.41929612790388    5.89665992384123    8.39856417825363
H        10.52668339863918    4.51272533440141    8.56941478583827

