39
CSD_code = AQPRLB | q = 0 | S = 0 | Stoichiometry = C10H20N2NiO6 | MND = 6
Ni       -0.00005263369928   -0.00002230269043    0.00006524304772
C        -1.68880157096438    1.24970363270837    1.69402681976558
C        -0.30019981665008    1.82397603673236    2.11235652766547
C        -0.32969698475102    3.33171850135211    2.40618205553886
C         0.59665390593513    3.95099625720511    1.35437536514412
C         0.60034489683498    2.90197918086933    0.24213291392146
N         0.61531911836022    1.62059909259731    0.96444591112250
O        -1.61380927520775    0.27259076798324    0.87378571595513
O        -2.71790977230297    1.71924618161548    2.13313340837273
O        -1.26829081499827    1.32884287147828   -1.67624649589103
H         0.02986661241857    1.23410627606247    2.97296153767989
H        -0.00564636045045    3.55639799385223    3.42088409592402
H        -1.35663403456745    3.68411670703552    2.29692147383782
H         1.60401298275882    4.07863442817353    1.75666135833425
H         0.24349949729495    4.91814445361486    1.00544778909172
H         1.45454663789738    2.96610266812528   -0.43074851002703
H        -0.31764129907519    2.96923922828608   -0.34292918296323
H         1.56947224798306    1.49971978027474    1.31048763089837
H        -1.45924699113502    0.89531746311919   -2.51080349509739
H        -2.07517783221628    1.31898180670992   -1.14559500220479
N        -0.61532545960789   -1.62063930782337   -0.96436072387408
O         1.61370098375255   -0.27260845432065   -0.87370880718507
O         1.26835128324297   -1.32883836531351    1.67628476095475
C         0.30009266367725   -1.82397902299403   -2.11236538017789
C        -0.60023865329781   -2.90204270411106   -0.24210110552775
H        -1.56951645659840   -1.49977471697338   -1.31029489715820
C         1.68867153897693   -1.24965860353195   -1.69404543967182
H         1.45938943682909   -0.89511346381393    2.51069510252920
H         2.07519085592213   -1.31902390571798    1.14559616535209
C         0.32967898730974   -3.33172258760262   -2.40623720096428
H        -0.03009777653230   -1.23411536700253   -2.97293207665317
C        -0.59658405496708   -3.95103110689496   -1.35437859784386
H        -1.45437920351285   -2.96622573682301    0.43085355460127
H         0.31779814187673   -2.96927247047888    0.34288681337580
O         2.71774070078175   -1.71899188325448   -2.13337153816530
H         0.00561149729117   -3.55643019216971   -3.42092996170291
H         1.35664460838942   -3.68405557428492   -2.29700829489395
H        -1.60395976014103   -4.07868759406366   -1.75661774299054
H        -0.24337784685753   -4.91817996793078   -1.00550979011985

