44
CSD_code = AQPTNA | q = 0 | S = 0 | Stoichiometry = C12H17N2NiO11P | MND = 6
Ni       -0.69399133178836    2.35184489034766    2.09737841288507
P        -1.39449399363423    5.25607714035016   -0.49361904701221
N         2.87088495243585    6.09013215086800    1.21601099345964
C         2.21581429832044    5.30625289100352    2.06827302822975
C         1.43667945656953    4.20946363323983    1.58874862258207
C         1.34660152937474    4.09316964473853    0.15038900559963
C         2.06749168000703    4.94691400296586   -0.68533859843435
C         2.84757763150241    5.93443382171880   -0.11592973182680
C         2.29561968412496    5.57106270549059    3.52834464890511
O         0.85055246649122    3.47542283795139    2.42880119238470
C         0.37707514041663    3.14970564269829   -0.37199159619180
C         2.04548969704068    4.85944855518853   -2.19714999157274
O         1.95186719662149    3.56206941144945   -2.71760185716730
C        -2.10531344251924    0.84866742085498    0.26943844967829
C        -0.93997652244630    1.39589370443779   -0.66748830704076
C        -1.44632606343873    2.52533846236406   -1.59318813398474
C        -1.42624331535920    2.17128765882785   -3.06984139961169
N         0.16365811113670    1.96890597078245    0.04881802233182
O        -2.02937805362741    1.11916360493810    1.50220985381279
O        -2.96086987873320    0.19124838341727   -0.27873687337637
O        -0.52902549407261    3.61507580539979   -1.32423028213786
O        -1.10172798725695    4.85985807311191    1.02753587701638
O        -0.41376080913908    6.27048541754178   -0.87018573835044
O        -2.74301783509442    5.04066116027558   -0.98952062033340
O         0.18305899100521    0.76825834460243    3.10141662014181
O        -2.07790129998409    2.51746179422399    4.07050153813907
O        -1.79537423195860    3.71021318013513    1.46851701220799
H         3.40592972058912    6.86177319708747    1.60451544599959
H         2.50014753735173    6.61865369184544    3.73597487033774
H         3.07566791836291    4.96043827143280    3.98437186600449
H         1.35275595397166    5.27700974057761    3.98455907678629
H         1.02505434713145    3.30076655926405   -2.75101095689203
H         1.22544896820692    5.49952750360118   -2.54763326370005
H         2.98592019882404    5.26697455961480   -2.57942382718067
H         3.41913655324844    6.62709803872680   -0.70930987750997
H        -0.58710108484755    0.52663667041850   -1.23273206378367
H        -2.44536853898576    2.86824500002223   -1.30535391984083
H        -1.69102311336084    3.04154336796066   -3.66634928025897
H        -0.44837034403719    1.80110320334826   -3.37820722932970
H        -2.16413473102004    1.39256209698319   -3.24214536127487
H        -0.36818577708517    0.01898999783136    2.84147421903633
H        -0.04925352454471    0.98853941866045    4.01314598118532
H        -2.27470439400735    3.44494612884359    3.88752511180401
H        -2.78089026578932    2.01857624485725    3.63323810827917

