80
CSD_code = AQUGUP | q = 1 | S = 0 | Stoichiometry = C36H41OsP2(1+) | MND = 9
Os        7.63371479378112    6.95181054265365    8.66371928769546
P         8.57984724535391    5.18058147395451    7.49262500400875
P         5.55114543174307    6.03558255010976    8.16837271708871
C         7.19462126165066    4.45670791349034    6.48121415640357
H         7.07344438192477    5.08542350788230    5.59639851850532
H         7.46584628197121    3.44644115182945    6.16061953010460
C         5.90690479199704    4.42364809530124    7.30438423400913
H         6.01320899141289    3.69193284530800    8.11470866208180
H         5.04631045741252    4.13697496060456    6.69190786497446
C         9.00184294950074    8.71176387856255    8.54364597479454
C         9.38531015962744    7.96191188121051    9.69234261991763
C         8.28497655198001    7.97571626683267   10.61475118642461
C         7.22317648345199    8.74502284815976   10.03754081884008
C         7.65488355226490    9.19418861139535    8.75632051163205
C         9.92774181829562    9.16203320628727    7.45803316172543
H        10.43786118604555   10.07326877419212    7.77603833646070
H         9.39065024311253    9.37815753681804    6.53703041763640
H        10.68319085577002    8.40861768306801    7.24155343905932
C         6.94790908064843   10.21231374337747    7.91780255950663
H         5.87596612915648   10.02167570474155    7.87785777790328
H         7.32887098335431   10.22046895350143    6.89935110509810
H         7.10222331990605   11.20366732647294    8.34773147226582
C         5.99662665003911    9.20273197086821   10.76376419352242
H         5.53901039871799    8.39601065016513   11.33484971346287
H         5.25745724132375    9.59901512174048   10.07163799853949
H         6.26737762256697    9.99681170877728   11.46245900461838
C         8.34856287799038    7.54223483887853   12.04474010230015
H         8.76282699082638    8.35817330537528   12.64034073073153
H         8.99049877200547    6.67356389502449   12.17611855371729
H         7.36075890223330    7.31007594662511   12.43755096836330
C        10.76441389104303    7.46266218017410    9.99154246704128
H        11.33784643194991    8.25171155600226   10.48179226049311
H        11.28733772555121    7.18087342621467    9.07913934856690
H        10.74175711203705    6.60055698141243   10.65526721737483
C         9.28283955952166    3.69397590751322    8.27668984783386
C         9.35831252232533    3.55876241300925    9.65568546631216
H         8.98389612527421    4.35315682714887   10.28632184220046
C         9.90143797126959    2.41439664143013   10.21446846551034
H         9.95737461487919    2.31292567384052   11.28777109236741
C        10.37409268739554    1.40199801683977    9.39680260665426
H        10.79825290932022    0.51031799938699    9.83186875941966
C        10.30771678151966    1.53475648119275    8.01767056677920
H        10.68164280240750    0.74809172126660    7.38022888442615
C         9.76729340329486    2.67546006276381    7.45630471862947
H         9.73341723930339    2.78825376511153    6.38086015254045
C         9.86201400836686    5.65053300890083    6.29835746418547
C         9.54002329128229    6.36949515741902    5.15075968344239
H         8.50770405840413    6.60024270796876    4.92897618609264
C        10.53998868111723    6.80299626261852    4.29999873906745
H        10.28436644646722    7.34892628994207    3.40443270193577
C        11.86888174913926    6.54445638592974    4.59776849473067
H        12.64733456674288    6.88579783893795    3.93319958664687
C        12.19727720443459    5.85605546364984    5.75455013662935
H        13.23195500681001    5.66425855999771    5.99539878851047
C        11.20041762374137    5.41416875862873    6.60568183648262
H        11.45598324378148    4.87639172910717    7.50849557726548
C         4.49162240959606    7.01117237547865    7.06400679447828
C         4.50557334117764    6.88186457735898    5.68038280928401
H         5.11819399688391    6.12699561558135    5.21024468925672
C         3.72189868390082    7.71605294019261    4.90212562431682
H         3.72574957236864    7.60682959840071    3.82806998777214
C         2.93455227536613    8.68928950746385    5.49544741067400
H         2.32639823033236    9.33765477968714    4.88387698451664
C         2.92663546792949    8.83005801176067    6.87476919463306
H         2.31286875929244    9.58805284603538    7.33788617681219
C         3.70463461501424    7.99710815013361    7.65602526141641
H         3.69916338567395    8.08857437313913    8.73469197028999
C         4.36646784065193    5.48825506231556    9.43452841396540
C         4.71784260919031    5.45401088003652   10.77717148110211
H         5.71217379451173    5.76229084112499   11.06992229269872
C         3.80632088738904    5.02040947061426   11.72384111237264
H         4.08119469356727    4.99668572290465   12.76769847324359
C         2.54075776461676    4.61775532594663   11.33082618263646
H         1.82867020334212    4.28172466395015   12.06864566347445
C         2.18682336172701    4.64666536310891    9.99033851027080
H         1.20097727508558    4.33060577570728    9.68522331030631
C         3.09274980116066    5.08226909247434    9.04187791043785
H         2.81566317848927    5.11597121763125    7.99740799002807
H         7.39690224884646    7.26818958769402    7.14162200009972
H         7.48552154041501    5.79446551164859    9.70272624338712

