67
CSD_code = AQUHEZ | q = 0 | S = 0 | Stoichiometry = C16H32B14Br2P2Pt | MND = 4
Pt        7.59427689106059    4.12671198169763    5.51071373057523
Br        8.05273435909244    5.20605376179273    7.69549073402887
Br       10.01928054309527    3.79315082220677    5.16540853998648
P         7.34853166093452    3.75200735771551    3.23888516036598
B         8.03865286241706    1.41743403848470    1.21278275251070
B         7.21120377148794    0.35302941511341    2.37706381004228
B         6.29168437391861    1.48034008191217    1.35428104828338
B         7.22882864038113    2.91277733284093    1.17122441444755
B         8.64090150307353    1.21075048731539    2.86485800149363
B         7.33303128606256    0.76002849624387    4.14242268481018
B         5.76716770678442    1.38274918468512    3.05038397913048
C         5.98023832105919    2.86639314866592    2.36981839195765
C         8.53867790109637    2.72124376358693    2.26418792219495
C         7.41458033253616    5.45164720537001    2.54263754340908
C         8.49525440896879    6.24825153196249    2.91563008554778
H         9.27660941136704    5.84379228016196    3.54324758037980
C         8.59370163584055    7.55587350632625    2.47616734155158
H         9.44168805651478    8.15542345281716    2.77035113024262
C         7.60840964412858    8.09000345804780    1.66426541971311
H         7.68160124342846    9.11039174428819    1.31950250759321
C         6.52609849809245    7.30918077415545    1.29484962911493
H         5.75429043141348    7.71861316359957    0.65990311742530
C         6.42519192743310    6.00258572576320    1.73420766133735
H         5.57223984458515    5.41464349558287    1.42958655170067
P         5.35581267407184    4.50194952346502    5.93373785681381
B         2.87305277925974    2.76095246710033    6.85327362898360
B         3.95952230067514    2.14305740805966    8.12728282834399
B         3.31449568420072    3.78978942929215    8.21174008489866
B         3.23140939362760    4.40754295818722    6.60772246104633
B         4.34619798578086    1.86859404955873    6.47039621901906
B         5.74410253630028    1.98431228023876    7.73157241652556
B         5.02070213217229    3.62806046645547    8.66188864112567
C         4.59582671260978    4.80177335179572    7.58770708611267
C         4.03462773658203    3.23407522721528    5.63589129593733
C         4.96714381740508    6.01197405572674    4.96959931694914
C         4.02544858357848    6.08438725022404    3.94910475183969
H         3.42594162315591    5.22033640126258    3.69771440983985
C         3.82907292643545    7.27020234917346    3.26525463485740
H         3.08444803295535    7.32097210663100    2.48426355230802
C         4.58289106324357    8.38916152853448    3.57834576145200
H         4.42366016481008    9.31383611321345    3.04483041309059
C         5.54331868342313    8.31845645008436    4.57321626498463
H         6.14046718220975    9.18435860418610    4.81512763853042
C         5.73706619690221    7.13564403832850    5.26170259208267
H         6.48444176152932    7.08582171710862    6.04264122530900
H         8.73643645137510    1.13086875309116    0.31937317475440
H         7.11857459297186   -0.79867655687499    2.17261017386914
H         5.47400848803413    1.22406411909273    0.55492107105416
H         7.22983698765881    3.72831327377783    0.33333731333011
H         5.07909480685568    3.44253587311953    2.17568629663777
H         9.47738128062036    3.22623934649998    2.05070611417161
H         9.70510578920506    0.78652593370880    3.10526954462142
H         7.20612109031372   -0.24061793121435    4.74864124207644
H         4.66739632988964    0.97016533457941    3.16346243538714
H         8.01085236119786    1.52482115499126    4.76734643791253
H         6.21375142682389    1.42727011764366    4.25387021107570
H         1.83998192786705    2.34469738573918    6.49431326178037
H         3.59333020806482    1.33481517521695    8.89436899277814
H         2.61934877979799    4.26010199716079    9.02819812296323
H         2.55986920770718    5.25182406101469    6.15609636789919
H         4.66824314592299    5.82688527162226    7.94176891337664
H         3.74197035457549    3.11184478579744    4.59597084245772
H         4.34211728065058    0.85485114990962    5.88048861777681
H         6.15399819165874    1.09990960734901    8.39176359727547
H         5.22233558397881    3.93250446991338    9.78108766929066
H         6.42767069654514    2.10848896531509    6.75031575781991
H         6.12384979259214    3.09343372637901    8.29942102379982

