73
CSD_code = AQUHOL | q = 0 | S = 0 | Stoichiometry = C21H39B10IrN2 | MND = 8
Ir        0.22388028119099    6.45929766352517    9.43589218191802
N         2.61833102034782    8.30852477555285    9.68614803706707
C        -1.97104751263206    6.43988135888958   10.26290627170791
C        -1.42150576303514    5.12428362369901   10.30030438241878
C        -0.38785796906506    5.11766076875861   11.28605118081451
C        -2.09449519701449    3.91452553894315    9.72001390722808
H        -2.32206915701117    4.05329191331323    8.66400511204179
H        -3.03279963145964    3.71819797656189   10.24541471921455
H        -1.46734750446625    3.03219091360664    9.81446192949537
N         1.23928352858194    8.82227644107551    8.11285633405341
C        -3.23161036043557    6.81397499324788    9.54747040857994
H        -3.23355332101324    7.86049374967827    9.24597843086832
H        -4.09112733884091    6.65435847062574   10.20368871151942
H        -3.37332580470726    6.19984588938354    8.66033576190415
C        -0.37459581578046    7.16843444741457    7.52509689849146
H        -0.01187771135055    6.55122390340220    6.70634880088961
H        -1.46149467733694    7.13128320939322    7.49941849196187
C         1.45725221948917    7.93696789837498    9.10584178554809
C        -1.25294866841587    7.24935486870086   11.16896997677754
C         0.19846374936130    3.89054537339221   11.91879146404284
H         0.41461306204910    3.11566868406867   11.18619802226522
H        -0.51466987908862    3.47728663633030   12.63680165708850
H         1.11275766716745    4.11685196503932   12.46768950352157
C         0.06891535595000    8.62422348517704    7.27065144143246
C         0.53130597159603    6.86487041373525   12.99416263235160
H         1.39181277077345    6.21780122628155   13.16438028886449
H        -0.09078763799657    6.82224276438170   13.89228326159309
H         0.88511806023079    7.89130102588908   12.89075931273674
C         3.28329872041337    7.46076364899741   10.63140459490300
H         2.51211807677428    6.94288902919454   11.20396288826838
H         3.88634666524566    8.07098097970415   11.31036639957248
C         4.19532488382865    6.44986573024990    9.92354944641955
H         4.75992049178719    5.94150639873885   10.71038695057046
H         4.91729328803841    7.01926666709349    9.33153522023113
C        -0.26692523920790    6.43830726505030   11.79807421400559
B         1.80456131715302    5.28797183983226    8.60406530677200
C         3.12133037536269    9.41673905853912    9.05309004235230
H         4.03674280151266    9.88470152158341    9.35219305790034
B         1.86213014104145    4.47886861063555    7.01312647090504
H         1.00386812890211    4.64998887914714    6.23073752050124
C         0.44947185665054    8.84491693393337    5.80640522894023
H         0.70410924973208    9.88529321107069    5.61384297739313
H        -0.38946194062126    8.57644038482924    5.17145284767780
H         1.29608811673541    8.21508182452688    5.54713036148667
C         2.75292994547321    4.20664048339556    9.58996936158818
H         2.56143367970712    4.23486044390588   10.65301672379255
C         3.57004806976118    5.40919184025386    8.99665602402843
B         3.54121933488064    4.24349881009247    6.47621585327940
H         3.83204459811138    4.30582487210655    5.33775644884053
C        -1.57259146883256    8.65725498549367   11.56852986312974
H        -0.67864619959543    9.28317887618230   11.59144220299235
H        -2.01340087722591    8.67521685337684   12.56839169048752
H        -2.28801667913626    9.10751499800724   10.88331939933756
B         4.60721766444290    4.85481135102436    7.73018578258497
H         5.62159999827627    5.43602562631960    7.58664582344820
C         2.24517581187207    9.74348316488624    8.07202133535910
H         2.27701211704865   10.54996549268727    7.36967475010943
B         4.33993226693879    3.10014478843520    7.59460167434256
H         5.19220127056744    2.36092147275638    7.26169113336037
B         3.08062209762943    5.70765793415608    7.41231810220447
H         3.15273980003420    6.81194302203502    7.00941201810210
B         1.64290887026438    3.53221519164235    8.49113754444455
H         0.65591271296764    3.04204630509533    8.88807434895970
B         4.38892390017396    3.86944820280547    9.15966316621002
H         5.16068480107545    3.79507237360172   10.04515213990728
B         3.14499866089488    2.69285149044626    8.85411588584740
H         3.10816883146662    1.72826244007734    9.52725304169791
C        -1.00240427911397    9.62809904584954    7.70444720719496
H        -1.26516243979388    9.45198832557960    8.74307956630617
H        -1.89095958821134    9.51426729297055    7.09026175339411
H        -0.64023645852006   10.65015986448859    7.60518148998333
B         2.63157726632629    2.87582838439398    7.16740912041702
H         2.26472962205114    1.95898410641533    6.52823211420428

