99
CSD_code = AQUHOJ | q = 0 | S = 0 | Stoichiometry = C44H44B7P3Pt | MND = 6
Pt        9.31499953739031   13.16462588797765    5.81066516416522
B         6.75477202504767   13.48138685333078    3.26211135731750
B         6.95079893008545   13.07901509142575    4.96843438386383
B         6.08560019332392   14.61241386280354    4.45595742632614
B         6.92495915915811   15.29743499165235    3.11832756043133
B         8.17931660258056   14.24376995881420    2.55976795239047
B         8.37642665958332   12.90065082809847    3.75172531994264
B         7.39613436841731   15.92232981950493    4.73826622585866
P         7.26844307462715   14.63947460396796    6.12106250572884
C         8.57106689710118   15.50343593087829    3.70135338463312
C         9.30539933085997   14.20933421876347    3.85619752581992
C         6.03284139195477   15.02941831225378    7.40206636397726
C         4.98793250288313   14.16277407976691    7.71589636277610
H         4.84280322531735   13.26751919283713    7.12760123924535
C         4.13125093433989   14.44868698710486    8.76197990335359
H         3.32043126445377   13.77203827530808    8.99302862767689
C         4.30792713412022   15.59835385726223    9.51593541769127
H         3.63870327653857   15.81786983566152   10.33506135124898
C         5.34534683273281   16.46584337623533    9.21358628704982
H         5.48424441586103   17.36543527043362    9.79650035719729
C         6.20408642084238   16.17984431434013    8.16965153619404
H         7.01266848809948   16.85761239886105    7.92883962642494
P        10.92146500979839   14.57729457423829    6.78368687377781
C        10.91350479449588   14.70517632436613    8.60818859141628
C        12.04365026764103   14.59993435903275    9.41126693622062
H        13.01650656902196   14.44809657608519    8.96585420683224
C        11.92795168370885   14.67614425251599   10.78839753664115
H        12.81219030817375   14.58762642258550   11.40320560932291
C        10.69074136987444   14.86851792676293   11.37895588740673
H        10.60828689002600   14.93575674238744   12.45357199626561
C         9.55801047476289   14.96036150787108   10.58698674501281
H         8.58627830901393   15.09783561506210   11.03726454015544
C         9.66842249871699   14.85934423114239    9.21428673787475
H         8.77768262095744   14.88167121785890    8.59889357545808
C        12.66021571327127   14.22338143288436    6.36084031003876
C        13.70650300043142   15.08726249655816    6.67337906092264
H        13.50033038633802   16.02167926954555    7.17838733038604
C        15.00207045484971   14.75544619123887    6.32272133924496
H        15.81380131582293   15.42469966414867    6.56964774886311
C        15.26192203510734   13.56930385136480    5.65268512957174
H        16.27683986259750   13.31556950361588    5.38359201046908
C        14.22168325617067   12.71916482200927    5.31735692546101
H        14.41980822420737   11.80139303607423    4.78376264372053
C        12.92487846107846   13.04855979303778    5.66794572612942
H        12.09523148227289   12.40111433796787    5.40210266552013
C        10.82980519905071   16.33549288194360    6.29952995814020
C        10.07695985256601   17.26463984859733    7.00933850157366
H         9.61278322944447   16.97992418841052    7.94223281963765
C         9.93268662062305   18.55609607261439    6.53645902977499
H         9.34817909402607   19.27023613462331    7.09832767613902
C        10.53085223945732   18.93611795372146    5.34709610491150
H        10.41331323939307   19.94390318904949    4.97754481837728
C        11.28039570979536   18.01612256609902    4.63187592321542
H        11.75014771913846   18.30632482756845    3.70275093297112
C        11.42394117104566   16.72465026782159    5.10039339833642
H        12.00526607803175   16.00785495708893    4.53567404280635
P         9.40397432095437   11.25187166109336    7.19151345430037
C        11.04621718436047   10.49037536324855    7.41223458615078
C        12.04811478948036   11.24715776376058    8.01734930447668
H        11.80491343647669   12.22971386742566    8.39921199268345
C        13.33378512750455   10.75558540149535    8.12621888245383
H        14.09963694545746   11.35122444197350    8.60211908381677
C        13.64192301984864    9.50466700354292    7.61502568730670
H        14.64787538082161    9.11965269500936    7.69487096427512
C        12.65726634743399    8.75378627348549    6.99498075744673
H        12.89614174416071    7.78164215461043    6.58823192241491
C        11.36655268052687    9.24168085816927    6.89011172713963
H        10.60530899686327    8.65199013183124    6.39976834741914
C         8.88505418741311   11.60999840896165    8.91086210279935
C         9.61087857195981   11.32110543566960   10.05934571644605
H        10.57487172533093   10.83827155146829    9.98988939345417
C         9.09571487865411   11.64349346829477   11.30319210702403
H         9.66835903211154   11.41791894039291   12.19147627941117
C         7.85388908295359   12.24468912848974   11.41529577239430
H         7.45907093227546   12.49128058201396   12.39015687858157
C         7.11893235560049   12.52621351306438   10.27440808552906
H         6.14902237326349   12.99635858381416   10.35040159408339
C         7.63575515315872   12.21192710399520    9.03382698235666
H         7.07150102741086   12.43012769937450    8.13680427804902
C         8.38210058289406    9.75886931609689    6.90428763256468
C         8.06313776137723    8.88190729332692    7.93660081225960
H         8.40864897458665    9.08318371495014    8.94079368396333
C         7.30587331909304    7.75444923323177    7.67844873052617
H         7.05990382575421    7.07740652092388    8.48393406853311
C         6.86280939665026    7.49038761579888    6.39184143117832
H         6.26963285909566    6.60913259896014    6.19585804279540
C         7.18060492899958    8.35802498993211    5.36057237715766
H         6.83693426377430    8.15637486404753    4.35670376007859
C         7.93659960746240    9.48853272720501    5.61609128483974
H         8.18220188006945   10.17513947488154    4.81935751913487
H         6.03996745982169   12.82816962072972    2.59147119931989
H         6.40646194856067   12.14350098484078    5.44015863378443
H         4.94751332314658   14.76934773317918    4.71384656336316
H         6.46978313147371   16.04502340144117    2.33261310018944
H         8.62149969663045   14.25288504494350    1.47274971042587
H         8.81420576767286   11.87761035937577    3.34437719862499
H         7.20556022275039   17.06103545907808    4.97960139725338
H         9.17162681758920   16.32376753485808    3.31570408853013
H        10.34741713214706   14.24245449780084    3.52947365344763

