71
CSD_code = AQUJIH | q = 0 | S = 0 | Stoichiometry = C19H37B10Cl2IrN2 | MND = 8
Ir        2.62022762781905    7.83148248510442   18.30738422396247
Cl        0.74130702193573    8.78954880462963   19.40345766741641
N         1.42444506162412    5.37873351855960   19.71390915328004
C         0.07150690366897    6.63258189121610   13.26642350743631
H        -0.78910997016139    6.05554676045004   13.60503096040644
H        -0.25795139665620    7.25668105346220   12.43771216486596
H         0.38268217680947    7.29340002794337   14.07604627193061
Cl        1.35442403292023    7.97170450508211   16.34507785903779
N         2.01798761806187    4.90979385741293   17.69970317435288
C         1.20093410079972    5.74096831905442   12.80417609098039
C         1.95290619517488    4.80607492674604   13.88380038632553
B         0.92787357517431    4.04651076997832   12.72900698979688
H        -0.10661671073736    3.66174592818270   13.13511587624961
C         1.43603838516123    4.81449766795524   15.31148296548362
H         0.76341148621369    5.65928304375295   15.46856837652306
H         0.87811466425231    3.89348107378035   15.50546435170269
B         1.13165833170386    4.98530386254628   11.26673691357685
H         0.18806054384803    5.20316515294054   10.59964655649976
C         2.54788275681460    4.94541345582480   16.35735825496538
H         3.26188046916329    4.12328874118690   16.25914039961322
H         3.05632783643512    5.89722534493246   16.21513237980747
B         2.27899846815209    6.28701862363537   11.59406789273106
H         2.08357354187487    7.35097214064557   11.13411615589360
C         1.56031206043250    3.75110009481908   18.26067713398804
H         1.54462896040005    2.82335213030940   17.72740582815420
B         2.79588333779162    6.17037534713665   13.27055071237182
H         2.89679243971927    7.09155877704507   13.98564980426038
C         1.19000449788541    4.04601844024061   19.52669171576618
H         0.78362371957151    3.42440243055195   20.29747533497421
B         2.47317886451612    3.33822618020127   13.16742256059866
H         2.48147807023572    2.38341482356203   13.85851513353310
C         1.92785502636220    5.92883897617314   18.58621112082310
B         1.97130741478789    3.42616189240778   11.46023063451597
H         1.67458616038720    2.47014160248678   10.84220924201433
C         1.21257822446346    6.01398356396811   20.98766999363482
H         2.06564976756974    5.83227829201040   21.64401547044693
H         0.31628950206598    5.60454653477066   21.44989113346386
H         1.08203469039453    7.08595798868784   20.84220218669557
B         2.81757228101331    4.82653944363905   10.73834287714653
H         3.11179468879055    4.85260963039060    9.59937711983945
C         4.72766683951741    7.42369133737519   18.96802091632849
B         3.85223527999174    5.57127450352331   11.99294312171781
H         4.87092171747724    6.10589867644579   11.74505600902513
C         4.74281693518732    7.86220177404760   17.60602693266930
B         3.62246508418100    4.63666424236596   13.47921201292897
H         4.40962794734292    4.52065021606970   14.34581010612909
C         4.29241216667484    9.23718135325328   17.58012752695149
B         3.65511467376899    3.79231961371726   11.92231042005002
H         4.54753115457187    3.08092331058003   11.63396915659597
C         3.93995018595019    9.60724052833663   18.88675331783779
C         4.16913333688075    8.47118975983867   19.75473341800545
C         5.31248487347248    6.14514608553914   19.47889969229788
H         4.82610117109506    5.82644996982976   20.39820003201780
H         6.37371049624526    6.28911282508125   19.68928099899330
H         5.21926423176640    5.34677637454672   18.74568311239178
C         5.44576910050257    7.19615493636004   16.46655536568758
H         5.52741093168573    6.12280529917275   16.61903234638465
H         6.45591598277274    7.60143820991714   16.37864484574316
H         4.93352579519357    7.37759534959692   15.52398497906668
C         4.31489324778125   10.08834447429227   16.35355752172138
H         3.74833969876448    9.62049655402738   15.54882312388140
H         5.34289458162325   10.21767812237947   16.01192846244379
H         3.88399709949149   11.06748545584093   16.54563772440262
C         3.50863868850108   10.94665488939899   19.38345991229417
H         3.38900410573205   11.65229413465122   18.56538532224445
H         4.24960259175115   11.33975633996996   20.08118069614173
H         2.55702155471764   10.86994819829002   19.90968324988290
C         4.08406115434409    8.53821827748222   21.24404060344915
H         3.13834855025870    8.98048609105494   21.55178728374387
H         4.89062213878045    9.16261299111949   21.63294016693990
H         4.17058625753636    7.55118200247824   21.69143504698581

