69
CSD_code = AQULIH | q = 0 | S = 0 | Stoichiometry = C32H32N4Pt | MND = 4
Pt        1.10135876442193    6.18544955318040    1.94688095116408
N         2.07658931008985    4.88162365105279    0.75390549052802
N        -2.06416224367248    0.74869095289521    5.77875267009388
C         0.19985114283101    4.83296080964201    3.02901952493225
C        -0.31885249786790    3.92425668002339    3.64830951591647
C        -0.91320716023299    2.86418106661263    4.36731780555556
C        -0.55654890102881    2.59956145235309    5.69369454949156
C        -1.16122940203515    1.53885380280516    6.34064445566553
C        -2.40466388783996    1.00253317427535    4.52407561174787
C        -1.86935251934011    2.03263942304995    3.77455797340915
C         2.03538398695031    3.55206599836692    0.81766536418290
C         2.72215276503550    2.73689999373578   -0.05570872810160
C         3.50587052177734    3.29566675273051   -1.06906229656243
C         3.54235319102099    4.68115407840870   -1.12330339690997
C         2.82701566089999    5.45175158477927   -0.20861001766503
C         4.26078099810986    2.40302930534447   -2.03357012722426
C         3.25385450693638    1.50322328751759   -2.76420479745461
C         5.04753361523919    3.19775311703531   -3.07906243803090
C         5.24742563265341    1.54045814534736   -1.23358415413980
H         0.17436820208132    3.21816404610903    6.19200304279509
H        -0.91350019500687    1.30200224498365    7.36836221875576
H        -3.14761051495631    0.33680186439779    4.10114039459479
H        -2.18040015495251    2.20176273887689    2.75423362379313
H         1.42290028631755    3.13400404417578    1.60559107208545
H         2.63972428882253    1.66892128460125    0.06098136570740
H         4.12700754960105    5.17672789702138   -1.87777609262992
H         2.53124262448158    2.10717687698870   -3.30949820437955
H         3.77484818430496    0.86578167823292   -3.47452815563113
H         2.71254530056788    0.86611118821415   -2.07055439452799
H         5.56395676780163    2.50748604942311   -3.74203975630591
H         4.38558672292713    3.81087440201466   -3.68718260545974
H         5.79732272160807    3.83162503620745   -2.61017676569925
H         4.73185366722526    0.91020216362513   -0.51441206906160
H         5.80870469076377    0.89812166706156   -1.90788609999277
H         5.95110361594403    2.17086576613842   -0.69345112801835
C         2.82727210124136    6.91622517019598   -0.20943965816344
N         2.07798859335851    7.48773323270394    0.75319042855198
C         0.20266618429657    7.53813328652365    3.03110021782372
C        -0.31702023950003    8.44478244628560    3.65250398393490
C        -0.91210776710044    9.50271131880334    4.37406480063068
C        -0.54174460117080    9.77687242262352    5.69474610260739
C        -1.14837570064097   10.83493423341266    6.34419827438554
N        -2.06551136746990   11.61403334450250    5.78988576149425
C        -2.41902392039158   11.35100444200945    4.54073705828588
C        -1.88330811253093   10.32248960151615    3.78941300492243
H        -2.20511865243241   10.14555622516971    2.77380450098506
H        -3.17305240958362   12.00800768324724    4.12383101605903
H        -0.88997940986437   11.07920259599037    7.36752617695166
H         0.20118487895482    9.16772224463564    6.18690935496735
C         2.03769984263246    8.81736730589636    0.81573936206999
C         2.72422717528576    9.63130030089132   -0.05900695658495
C         3.50650382751416    9.07108677475045   -1.07268198104825
C         3.54206275344601    7.68553362175972   -1.12562987007230
H         4.12556291799167    7.18884410766219   -1.88025562032888
C         4.26143875417004    9.96221062149280   -2.03857259631102
C         3.25559383386281   10.86526185142019   -2.76668700473458
H         2.52984458142721   10.26368462177525   -3.31043463810266
H         3.77698406320219   11.50114811513824   -3.47812022516218
H         2.71790520572364   11.50406049316824   -2.07178030826305
C         5.04371877231095    9.16587678373902   -3.08621457216618
H         5.55965316590163    9.85512117948674   -3.75062567121580
H         4.37885198160010    8.55402999290275   -3.69244865364252
H         5.79360908934277    8.53054918806547   -2.61946272245152
C         5.25212084115877   10.82160043522697   -1.24014069934610
H         4.73981521729448   11.45167466675083   -0.51846170032505
H         5.81269818708221   11.46387085312449   -1.91507923700486
H         5.95611697397244   10.18896646864613   -0.70302756830568
H         2.64259711578235   10.69943636886487    0.05679146781289
H         1.42631888168003    9.23658622440446    1.60390376910794

