58
CSD_code = AQUSEL | q = 0 | S = 0 | Stoichiometry = C26H24ClCuN3PS2 | MND = 3
Cu        9.66489135534923    8.20625207328615    3.89280175680770
P         7.95162481967906    8.97921148532734    2.68565861531721
S         9.85218254280439    6.23868869988341    3.10682737795706
S        14.55939503347254    8.03603260575606    7.09627722923717
Cl        9.54602232587848   10.25199161172285    4.51007130116947
C        11.42402051752897    6.38913683940973    3.95524840825811
N        12.10184428982849    7.82615225811522    5.61237294893259
N        11.35225254778164    7.61156118110459    4.56911046884377
N        12.37451003556481    5.57880212848818    4.02165977029962
C        11.85535855962026    8.37749630647056    6.73597038636715
C        12.98836315937676    8.58057428808524    7.60067730676064
C         8.57300309753195   10.29252786694220    1.61623991987205
C         7.10893077487834    7.83330464619791    1.53966041762463
C         6.51771319722790    9.60561305015293    3.59627093995412
C        10.11163710200523   10.86218468757465   -0.13739085027451
H        10.85644266405241   10.57022819470606   -0.86287047096570
C         9.53236792072171    9.91023881384836    0.67945599082639
H         9.81787586042936    8.86648888688891    0.60945882329480
C         9.74159169358669   12.19283391504567   -0.01429444720980
H        10.19691385449408   12.93798879980396   -0.64957609995131
C         5.47493866803097   10.19195720563086    2.88330255447736
H         5.55070207607511   10.29661133943993    1.80904817848097
C         8.80237594947043   12.57279421151036    0.93108035457747
H         8.53049555020819   13.61284872616102    1.03455439717280
C         6.65962855997571    6.64781968495575    2.11633932527654
H         6.84990551070398    6.47108008113323    3.16822955042511
C         6.41728103227934    9.43322514723922    4.97047503790528
H         7.23250885904613    8.97053906223484    5.50969355508374
C         8.21826108872798   11.62808065521739    1.75607306640641
H         7.50855517898103   11.92253908375896    2.51561586084534
C        13.04519282878942    9.18447379671052    8.83159468818099
H        12.19249448974625    9.60960252172727    9.32905151637773
C         6.89394868337242    8.07576692236556    0.18892503410265
H         7.24316179146032    8.99306799866471   -0.26484869805019
C         6.22780588932652    7.13307555093909   -0.57446121117978
H         6.05941095365543    7.31960452721164   -1.62519538220939
C         5.78239492628060    5.95429453024450    0.00032933096911
H         5.27055096357779    5.22091548473989   -0.60496218917991
C        15.25896990077737    8.62141643789863    8.55076650978859
H        16.31103450558046    8.50041396899149    8.71715071916776
C         5.99719397808480    5.71113988185577    1.34818453092691
H         5.65514107324770    4.78963149680456    1.79477838716763
C        14.34365368529921    9.20440212533532    9.37146432098812
H        14.58554432452588    9.63418723202302   10.32718289903126
C         4.35200025371943   10.63375950951803    3.55654890868459
H         3.54559416165580   11.09863712457022    3.00863824913617
C         4.25865251458829   10.47717629268390    4.93115617600734
H         3.37906328559048   10.82413929210760    5.45270204770120
C         5.28672297202059    9.87315070226030    5.63577480861361
H         5.20827010784240    9.74506131874895    6.70499986681529
C        12.33256399421934    4.33000477244400    3.33645441929364
H        12.29708904455846    3.52677291573175    4.07472318214903
H        13.24918289955810    4.22423253041357    2.75524312404968
H        11.45695088818872    4.24672018471169    2.67805785286338
C        10.49186099713707    8.77487269249843    7.22054290038571
H         9.73239154230260    8.24520988836542    6.64307187492132
H        10.33392920086558    9.84425843636071    7.08817410138808
H        10.38283631904920    8.52260832800852    8.27221035813252

