39
CSD_code = AQUVIR | q = 0 | S = 0 | Stoichiometry = C11H19I2N4O2Rh | MND = 6
I         2.09575943077110    0.53216524281636   -7.42636923913055
Rh        3.80392997195591    1.65572185483576   -5.70136456928587
I         5.53811471417904    2.77103498392961   -3.99706720397780
N         3.49310929612975    0.19203038772020   -4.34414707207183
N         4.12159697189880    3.06485488454045   -6.97374447002481
N         2.29979530411999    2.39030750913660   -4.70554906011790
N         5.34253161986989    0.88371184401481   -6.67206864029482
O         3.37796690311031    4.09218522320947   -6.96400837100518
O         1.73442777439276    3.56973990950552   -5.00951596664196
C         4.36132478892994   -0.95320197396268   -4.27176677434864
H         3.82391028703660   -1.82065574492975   -3.87058633754169
H         5.18434340963888   -0.71404398877984   -3.58396408390303
C         4.93347869452307   -1.33853789502854   -5.64462727028250
H         5.44211740588471   -2.29706607517101   -5.52522770809824
H         4.10799234292291   -1.48435860362853   -6.34462402389175
C         5.94571182618049   -0.36052557082167   -6.26151689993654
H         6.73567592547450   -0.13966691417443   -5.52943798838493
H         6.40739317243360   -0.85777042759199   -7.12227963462999
C         1.83711623619895    1.68719656270796   -3.71870150427389
C         2.55523868090904    0.44112159876997   -3.49364526455173
C         5.11945682846536    2.88377069050635   -7.80629861436308
C         5.82454532970777    1.64903852989161   -7.60472922333432
C         0.67940556784140    2.13042582388151   -2.88935699645340
H         0.27504579070881    3.05143067361067   -3.30229613574011
H         0.99453251011815    2.31678517894387   -1.86317263806246
H        -0.10078726242870    1.37092783969481   -2.88649637126680
C         2.22991770676364   -0.44555313999432   -2.33716026310101
H         1.43084329147256   -0.03258853935186   -1.73248152037253
H         3.11447231870604   -0.57456376507543   -1.71310963532704
H         1.92490585036589   -1.42971407900005   -2.69496025937651
C         5.46037705823482    3.90470763267199   -8.84375787998255
H         4.72566232077836    4.70579440189316   -8.78726581808288
H         5.43187820361152    3.46980829751637   -9.84174773491964
H         6.44958473236017    4.32572028960607   -8.66654663513383
C         7.03927658447259    1.30175382868139   -8.40072568670254
H         7.88611735826096    1.14065754347455   -7.73377586939455
H         7.28572810481987    2.09493421387315   -9.09750764515633
H         6.87009942044125    0.38267671906542   -8.96260520203826
H         2.27270352873956    3.94814505301232   -5.80489378879794

