87
CSD_code = AQUZER | q = 0 | S = 0 | Stoichiometry = C34H48N2NiO2 | MND = 4
Ni        6.33521249555148    6.62284660251840    5.20945299323662
C         3.91704660482284    4.22807282735810    2.77753124847200
H         4.11558904792944    4.94792953603857    1.98758373489071
H         2.84638255160451    4.15937762287559    2.95243966637685
H         4.27787475088060    3.24892494910621    2.46811391875877
C         4.62857825766470    4.66221629279672    4.04091879504830
C         4.38017580611076    3.97698984745610    5.21702759688957
H         3.68184460255766    3.15598437863036    5.20748805157950
C         5.04609252418243    4.26682908972994    6.41800237433610
C         4.76535924278030    3.32324291101132    7.56185287309179
H         5.36541324006796    3.55884300103517    8.43657203261037
H         4.97147287242937    2.29958423886791    7.25433630662615
H         3.71068864374402    3.38568978973642    7.82583331310160
C         6.59194128448854    5.42932850304968    7.76833587698091
C         6.07547904747288    6.21841258047111    8.80383936717456
C         6.84407028191992    6.40689450092768    9.94342545616917
H         6.46465598595383    7.01696887867543   10.74978450669943
C         8.09509448231432    5.83274138808428   10.05761227667709
H         8.68811108969370    5.99910155977031   10.94562016801839
C         8.59133238001257    5.04241630862836    9.03566712055145
H         9.56926790519993    4.60087387169940    9.14407128961594
C         7.85097809400729    4.81615598985893    7.88651048574777
C         8.37201684810418    3.95335245956723    6.75601582027061
H         7.51899338365586    3.42559502496573    6.31415156566781
C         9.37857536072640    2.89817753591575    7.21405295802455
H         9.56688332904482    2.19716099105428    6.40322359602821
H         8.99449245624608    2.34157805768664    8.06631377679086
H        10.32810168293719    3.35113366036788    7.48915074900893
C         8.99043114923959    4.83491248086583    5.66508728670978
H         8.22576859989621    5.50481852495990    5.23355272194859
H         9.39125532048717    4.21872031477071    4.86270230483279
H         9.79085558661561    5.44560177910506    6.07817619288525
C         4.71543364503943    6.86567485581625    8.68308240410269
H         4.28455323907349    6.58707917447611    7.71559825802614
C         4.83995790938351    8.39003147482803    8.71099218075154
H         5.49476592578430    8.71628187961909    7.90773785491002
H         5.25240023855838    8.73235230306625    9.65722654968997
H         3.86250958867019    8.84899893452575    8.57524221136369
C         3.77536275357609    6.37712930511124    9.78731922655141
H         3.69743132117417    5.29213533199744    9.77518982705497
H         2.78117787469832    6.79568941941524    9.64410890546739
H         4.13533751713253    6.68200993019340   10.76717922272111
N         5.86790393747237    5.27709306673979    6.56134354264472
O         5.44143872740971    5.62528854455708    3.92236588295524
N         6.80257765683130    7.96855598519503    3.85753549766310
C         7.62439119274597    8.97881806696368    4.00087206568005
C         8.29028804215044    9.26867574416321    5.20185376675329
C         8.04187430931762    8.58346209840948    6.37796876651540
C         8.75337275742271    9.01764539542943    7.64136233598525
H         8.55482842327997    8.29780251030615    8.43132146522577
H         9.82403822300613    9.08635793535746    7.46647471275625
H         8.39252057031672    9.99679407408216    7.95075091667874
O         7.22902385341567    7.62038412393145    6.49652898208724
H         8.98860575270604   10.08969433525214    5.21139412608177
C         7.90512729170383    9.92239539885525    2.85701529251540
H         7.30505543856581    9.68680650615636    1.98230529980841
H         7.69904544784653   10.94606136334132    3.16453000721788
H         8.95979193830221    9.85991834886840    2.59302263149565
C         6.07853265560090    7.81632200117291    2.65054727880151
C         6.59498741717297    7.02723698419198    1.61504132592080
C         5.82639357490292    6.83876335551972    0.47545568438820
H         6.20580525532341    6.22869321255502   -0.33090763078021
C         4.57537184199028    7.41292237783198    0.36127412290000
H         3.98235360382409    7.24657009114089   -0.52673410064670
C         4.07913688432741    8.20324118602425    1.38322580591587
H         3.10119944281523    8.64478074760458    1.27482806969409
C         4.81949373869984    8.42949400086694    2.53238215630958
C         4.29845294191930    9.29228497336882    3.66288588775287
H         5.15146887888172    9.82007333989145    4.10472534554200
C         3.29184639219655   10.34742353071662    3.20487012285108
H         3.10353677711424   11.04843837708403    4.01570000663764
H         3.67588282475136   10.90403245175246    2.35259436760442
H         2.34232904515937    9.89443099112973    2.92980353159924
C         3.68009493303771    8.41071312586276    4.75383714099115
H         4.44478953087504    7.74083032817295    5.18536032742543
H         3.27926983292338    9.02690050801484    5.55622453499115
H         2.87967880290711    7.79999934753981    4.34077062200782
C         7.95502738674077    6.37996363071602    1.73579865922994
H         8.38590899153473    6.65855665120510    2.70328319951113
C         7.83048493283122    4.85560831592979    1.70789265044414
H         7.17567868509916    4.52936869164738    2.51115270517932
H         7.41803115278392    4.51328984203664    0.76166229787111
H         8.80792867048756    4.39662918961584    1.84363605972749
C         8.89510467322294    6.86849495365465    0.63156076036958
H         8.97305483574657    7.95348760528268    0.64369021750769
H         9.88928276793103    6.44991806339230    0.77476992172958
H         8.53512504529131    6.56362052182115   -0.34829942901249

