81
CSD_code = ARADOO | q = 0 | S = 0 | Stoichiometry = C34H32FeN10O2S2 | MND = 6
Fe        3.54513465587799    3.73349753660281    7.36889463079129
S         1.52220881021756    4.92661581526358   11.17393120387213
S         5.31719786320007    2.94659268050677    3.33633145635547
O         0.89289271873508    3.66590151818125    1.67831985185364
O         6.49918510296067    3.79898796866408   12.87626905021952
N         2.24074715578809    3.75748553962374    8.77739646789292
N         4.82761812196797    3.73111583329926    5.94014645008730
N         4.89618301000201    3.88672163177757    8.78846040494363
N         5.70314936782056    5.08150208378022   10.43669045191799
N         5.60820467372011    3.07009420544651    9.56798169131093
N         2.19524326482039    3.58297090959715    5.92907878433090
N         1.43056800174415    2.36718764335142    4.27777806336307
N         3.46730315669936    1.77505993257714    7.23575950821729
N         3.58759963732402    5.70213597939465    7.53579768362514
N         1.58514145161371    4.40504135798504    5.07265385308294
C         2.73529164932340    1.28787808154803    6.20356101045601
C         5.03139958353687    3.39504565090001    4.83355637641848
C         1.20512057421410    1.30857293976764    3.36536007136564
C         4.26841821490960    6.17014083146550    8.61029336073100
C         2.11234678841584    2.34580576130239    5.45716572358990
C         2.05786934795439   -0.26785000527716    1.78541352816600
H         2.89460145873939   -0.69940698292244    1.25675014746655
C         6.08919531564672    3.77916532268769   10.55298423762205
C         4.09476661686662    0.90169481681224    8.01637902736461
H         4.68105348319832    1.32860026200734    8.81629190096507
C         2.61585825319171   -0.07419315237490    5.94303285378813
H         2.01856474949660   -0.41765964962588    5.11317007263755
C         5.91450865335746    6.11304049297206   11.38222451792411
C         2.90425587653995    7.93447346610754    7.05918890223241
H         2.34628057964245    8.60097100168304    6.42134774882700
C         7.37856617915548    7.63290609559695   12.50578537863084
H         8.36675140841702    8.04651468607838   12.64583797673412
C         1.94192120824061    4.26407201131336    9.79501722901530
C         3.27468842666351   -0.96824447848570    6.76678850422164
H         3.20284833524430   -2.03017720458192    6.58952736794982
C         2.28324004553157    0.74905498232241    2.69205351305069
H         3.28200615369821    1.11799835207377    2.87457999111663
C         6.32306063426650    8.09843501236056   13.28099869124299
C         0.77196541784365   -0.73755454561529    1.53843957772932
C         0.40982233425098    4.20234007045491    2.88219571970860
H        -0.64740689505577    3.91923815532684    2.92646720857251
H         0.48623922191161    5.29908757230450    2.89618132052975
C         6.94314571569806    3.26156063273379   11.65475414195180
H         6.88116742614681    2.16360873059916   11.65160768428538
H         7.99631067126863    3.54354045957483   11.47396578840723
C         4.94502869274283    5.10975295825176    9.30395473429134
C        -0.29169495114713   -0.16560205939275    2.22553899381080
H        -1.29620607883066   -0.51942535909407    2.04572527247912
C        -0.08436589023246    0.85397301311380    3.13588530306930
H        -0.91442889387199    1.29223555497701    3.66984387379516
C         6.53909425062489    9.18130265743920   14.29231680890855
H         6.38732851449853   10.15695375809513   13.82931929361875
H         7.55222256882956    9.15056895710702   14.68594976849434
H         5.83511606341377    9.08803919848178   15.11538649488324
C         4.29753910345596    7.52070555713421    8.94815634302497
H         4.85048725927129    7.85212140806697    9.81257725610968
C         3.60059789015581    8.41732218197073    8.15962905848845
H         3.59879057663424    9.46923828305997    8.40038752745248
C         4.84516836437907    6.56583067868076   12.14348453374207
H         3.86370217137620    6.13877609543061   11.99900187359749
C         7.18287185288965    6.64500964573708   11.55846013647449
H         8.00631372918824    6.28904308133781   10.95662888732177
C         5.05812428953183    7.55445507239682   13.08429271160356
H         4.22796182552038    7.90328886362938   13.67998583025985
C         2.92691384460705    6.57673946825604    6.78709451427439
H         2.38820748993228    6.16005908667466    5.94882229367539
C         4.02833341103301   -0.46701838823189    7.82094759928956
H         4.55988483353407   -1.13015949076056    8.48444722763443
C         0.54064171319134   -1.82104904657085    0.53177113261663
H        -0.40060527694284   -2.33260258122703    0.71675652679415
H         1.35004391938087   -2.54725462805095    0.55109432792170
H         0.50174670350204   -1.39074002720839   -0.46914601268416
C         7.26566592310434    3.37560717585668   13.97356573598334
H         7.22754595238105    2.28616255803510   14.09007272580386
H         6.83206471957562    3.85191127443721   14.84971390116971
H         8.31333050168333    3.68452812878448   13.86821426605433
C         1.12865456648980    3.68417924359287    4.08446821146832
C         2.20241083944659    4.08727311244157    1.35419957505728
H         2.24769852154699    5.17743032758147    1.25525511158237
H         2.44036999450057    3.62235454110602    0.40056251434316
H         2.93580658374528    3.77041969357216    2.10182652304050

