46
CSD_code = ARADUU | q = 0 | S = 0 | Stoichiometry = C21H15BrN3O5V | MND = 6
V         6.83562553578538    4.83018726782942    1.35434149999198
Br        9.45305553426178    1.61447957659452   -0.39903759826349
N         6.90600591445058    4.11720346067226    3.21006498701778
N         7.32251876027131    2.85634056346432    3.33331877535156
N         8.69268283290083    5.16920552344168   -0.55245454677425
O         6.77512663436795    6.37208916181541    2.07696313323216
O         7.65943965227412    3.11672430942895    1.12874640882573
O         9.17415435641825    5.17447040784177    1.62602664700800
O         7.39114494068083    5.17621585857214   -0.24240498280453
O         5.38348321188452    4.40234872422886    1.20563880707594
C         5.95977425410666    6.06092767785294    4.25466897703098
C         6.17063065476517    6.87471680496499    3.10593246637769
C         5.75043011030854    8.21409194916941    3.14046126845881
H         5.91509749348252    8.82281770288478    2.26315853753281
C         5.13446211769152    8.72542893195372    4.26073230565519
H         4.80944808191206    9.75523366617801    4.26644583847389
C         4.93025193897987    7.93069204987773    5.38734916515022
H         4.44876372915716    8.34651951635720    6.25877575208038
C         5.34466264613245    6.61916303857964    5.38427989589099
H         5.19105419257941    5.99604122051859    6.25336391978776
C         6.41884592776894    4.71021551551212    4.24939931909317
H         6.36348146813058    4.13658971350709    5.17618615929934
C         7.69124239353591    2.38593324867545    2.16595847931775
C         8.14698876241453    0.98595544895408    2.09259913304945
C         8.89669834123252    0.49545732208317    1.02597623598700
C         9.29202784443831   -0.83234185949717    0.98179723558544
H         9.87396246983874   -1.18596000749115    0.14438018762549
C         8.93630256972210   -1.68916967939037    2.00690386624867
H         9.23981389194982   -2.72406603333945    1.96492873741180
C         8.19643885284017   -1.21717440182252    3.08137165313712
H         7.92108820899808   -1.88459924650825    3.88337381080225
C         7.80785012681156    0.10649966303947    3.12218546667983
H         7.22925223608688    0.49866145199508    3.94283112734937
C        11.01114347658480    5.01488480340051    0.11237594974589
C        11.52588497252755    5.46198809298165   -1.10248651689012
H        10.88378994586486    5.93761318400880   -1.82855908057571
C        12.87637916703852    5.32998803252134   -1.36782260603921
H        13.27416801150174    5.68305520553695   -2.30738968187582
C        13.71975441641173    4.74916192544584   -0.43404664158726
H        14.77227931446844    4.64462362594603   -0.65067628823732
C        13.21392642005369    4.31013290744546    0.77831458102359
H        13.87054551462818    3.86284025787098    1.50921557855005
C        11.86690290964308    4.44742297053966    1.05391496467198
H        11.45438967346479    4.11515516430011    1.99490804426909
C         9.57736192615782    5.11890144127145    0.46378323186107
H         8.91206856547403    4.89503384079015   -1.50689420360012

