47
CSD_code = ARAFAC | q = 0 | S = 0 | Stoichiometry = C23H15BrN3O4V | MND = 6
V         9.19409324305584   -0.91994165577590    2.17512154382930
Br       13.29230141777467    1.01607733183542    2.01391124918104
N         8.28581195516742    0.71995151620402    1.49180258392712
N         9.06645600877102    1.58087896406924    0.83233013756347
N         9.90061247541659    0.57449725733986    4.01488057735095
O         7.82884087443467   -1.08952800870459    3.18151454483244
O        10.64840966743981    0.12763536705798    1.49866268234073
O        10.35358125383925   -1.83712519172775    3.02927905906576
O         8.84827159775446   -1.67082112613345    0.89183708455013
C         6.07103369579452    0.06959905685581    2.14667342208804
C         6.54996757813262   -0.94322575351238    3.02468174660624
C         5.61901846200745   -1.72581916382218    3.72503920560584
H         5.99357486757749   -2.49174102315989    4.38877529812300
C         4.26690380329579   -1.52661205350950    3.55306817575212
H         3.56483828309885   -2.14475188838789    4.09257629841291
C         3.79668424529433   -0.53581836581616    2.69384652835550
H         2.73474742329967   -0.39049898043354    2.56990194455898
C         4.68891255853210    0.25433726709599    2.00619732036577
H         4.33304420344310    1.02463120412497    1.33739452835761
C         7.00721127415488    0.90128576011407    1.46033990289672
H         6.62895038750324    1.74366236697463    0.87844519212291
C        10.31458391342846    1.17489582894462    0.86721918329657
C        11.31948076119541    1.98262221221228    0.14942426998414
C        12.66607781009162    1.98596513205089    0.50589725909825
C        13.58853666303961    2.73672880168995   -0.20645400806595
H        14.62563868607100    2.72398745982937    0.09134818688207
C        13.17210372880674    3.49141794446279   -1.28763416445635
H        13.89516262841705    4.06808469617251   -1.84406632721045
C        11.83297095344898    3.50906783511281   -1.64883354293508
H        11.50673433559541    4.10260301865565   -2.48894624384382
C        10.91705187635565    2.76188571783099   -0.93543824188720
H         9.87150474894485    2.75368046794299   -1.19824970003500
C        11.18024988473210   -1.41310964061174    3.93205645365031
C        12.27247009101609   -2.14345721707526    4.38407198985429
H        12.44199940820005   -3.12936880417982    3.97643201104203
C        13.14426565267546   -1.60719210935419    5.33503833707618
H        13.98665283135525   -2.20071736308052    5.65808917066526
C        12.96174186398991   -0.34960382697126    5.85070985766670
H        13.65175508440488    0.05977886105805    6.57270323193910
C        11.87036259021732    0.43493743150937    5.42856558034282
C        11.61504661778580    1.74823938682219    5.87241306287508
H        12.28180521390281    2.20466261949415    6.59005514114857
C        10.53238564450809    2.42695004200573    5.37767271618325
H        10.31312100167865    3.43648712067244    5.68965508490412
C         9.69381001641127    1.79313773695451    4.44650447580509
H         8.82666785588164    2.30858567327848    4.04720627202791
C        10.96675486205718   -0.10344190611758    4.47738091810536

