47
CSD_code = ARAMIQ | q = 0 | S = 0 | Stoichiometry = C22H19ClN2PdS2 | MND = 4
Pd        4.20756038684566    3.79752348258403    3.53686936851706
Cl        3.17056627020109    2.43434795175478    2.07632348317419
S         6.29926153201543    3.53686830112929    2.61410751369517
S         2.30663373691801    4.30251390688585    4.72733137674345
N         8.51081508394458    4.66981868584110    3.47548741148750
N         2.17442849868934    5.89590970067566    6.81365932125991
C         5.11337579070282    4.98228997775719    4.81914847526432
C         6.50598245828305    5.21935198565371    4.72955581670225
C         7.13786858870211    6.05863848784816    5.65051920165279
C         6.40850497758117    6.66026555672234    6.66006127425497
C         5.04700937373167    6.44295179455537    6.77105370190653
C         4.38997812579044    5.61216707380025    5.86021105797374
C         7.19256004184749    4.53761104732426    3.64595278736059
C         9.27875218398196    4.09362163807702    2.39337830359075
C         9.62498413797825    5.13804539272159    1.36076849553530
C         8.61209558866831    5.73310967090316    0.61726298720201
C         8.91382809528516    6.70726301758454   -0.31670699803563
C        10.22865256156941    7.09440573456792   -0.51829291686004
C        11.24106267222260    6.50561572274654    0.21902205011771
C        10.93933850391737    5.53458743361566    1.15889583336823
C         2.96544798329351    5.33115032018463    5.89689751049873
C         0.76783441174308    5.59846149430698    6.99317657960529
C         0.58462386062375    4.55732962851189    8.07032417386361
C         0.43587059489453    4.94027329122154    9.39700671697551
C         0.31513213328569    3.98657925808424   10.39245796733953
C         0.34985921967279    2.64090271773920   10.06901027166845
C         0.50290052871698    2.25286627690876    8.74853195974555
C         0.62094830812759    3.20560178613252    7.75200416192267
H         9.00067682211295    5.33893904597136    4.05185749370186
H         2.61083907437430    6.41907714563863    7.55914839194696
H         8.20065278257116    6.25261169206928    5.59730565129004
H         6.90684233447588    7.30480848027794    7.36856431397702
H         4.51141620166019    6.93020049997322    7.57460176045513
H         8.67428237079345    3.30184891761073    1.94499673390117
H        10.19061266756620    3.65715403196800    2.81135241055240
H         7.58853444627746    5.42426143017977    0.76873063399875
H         8.12141505263199    7.16187765838626   -0.89208606234978
H        10.46391181173745    7.85210623774864   -1.25079013003934
H        12.26795502903143    6.80233110749112    0.06418089306200
H        11.73315195973047    5.07590905705019    1.73195014937661
H         0.37867742003252    5.23791779152626    6.03963032415427
H         0.25921512759705    6.52672122257469    7.26761805764243
H         0.40445934604635    5.99077202481112    9.65243548382582
H         0.19389247478197    4.29448828421545   11.42060583252751
H         0.25573818206059    1.89636377218749   10.84539372843299
H         0.52943757421175    1.20452474829703    8.49233666599252
H         0.74011367308334    2.90281551618457    6.72294978103083

