47
CSD_code = ARANAJ | q = 0 | S = 0 | Stoichiometry = C22H19ClN2PdS2 | MND = 4
Pd       14.31730296251506    2.28530213109110    2.34407627574867
Cl       14.31461715255222    4.53636634072454    2.34862114827875
S        12.63136873294077    2.07909557036734    0.79358508641430
N        11.64793995303657   -0.18219717430407   -0.11848565111634
C        14.32264884310188    0.31837309581996    2.33988665198930
C        13.42190576470501   -0.40738951396956    1.52403990458667
C        13.43527366809269   -1.80434943314931    1.53079435364550
C        14.33146900353356   -2.48915579847103    2.33141470078149
C        10.65582770496189    0.52266726419192   -0.90411944380230
C         9.31630181098180    0.49833293370817   -0.20961114831691
C        12.52389904109473    0.39316512454811    0.70994367149382
C         9.02686650502920    1.43015009203729    0.77945698264954
C         7.81622325390312    1.38296769477354    1.44735060443058
C         6.88593068159358    0.40583890026795    1.13483619034889
C         7.16985736748980   -0.52682917687410    0.15224148820210
C         8.38216481816063   -0.48281709765993   -0.51405473841031
H        11.53646661066043   -1.18472131175826   -0.06936192116332
H        12.75413033586430   -2.37584255887416    0.91483879302330
H        14.33538546525599   -3.56885998102157    2.32757873101432
H        10.58841031378452    0.03478983577913   -1.88054052393585
H        11.00231243869233    1.54936437725722   -1.03364551879235
H         9.75107876468137    2.19309878805829    1.02099127680919
H         7.59792917978905    2.11290754094958    2.21211841762217
H         5.93999060957590    0.37216375570957    1.65442873777602
H         6.44697253458222   -1.28969966774724   -0.09648479620167
H         8.59913899770696   -1.21081550154965   -1.28369822277771
S        16.00678434500912    2.08040639610278    3.89178358593717
N        16.99576367907267   -0.18018963033567    4.80024438589382
C        15.22702789406204   -0.40666456764789    3.15235597381398
C        15.22277858464195   -1.80360215989483    3.13682468324033
C        17.98765079655821    0.52505225511985    5.58587544490764
C        19.32671004958748    0.49818459287411    4.89060388575930
C        16.12006546683290    0.39460913103195    3.97112639476826
C        19.61732066762487    1.42972809550047    3.90158348672663
C        20.82651561509185    1.37893148034945    3.23133273967055
C        21.75403263901359    0.39832268301906    3.54128098601413
C        21.46901690237275   -0.53392108223175    4.52401805838170
C        20.25819702574239   -0.48623378365846    5.19276465918572
H        17.10871792247529   -1.18253187692476    4.75033841765538
H        15.90808974522031   -2.37455559686070    3.74867119920995
H        18.05460279407402    0.03822998911636    6.56284746841241
H        17.64183788475765    1.55210321172152    5.71413616941791
H        18.89507454288617    2.19508273323859    3.66186427461097
H        21.04573239874280    2.10845547155069    2.46650623465330
H        22.69867088888186    0.36156062759153    3.01952801614916
H        22.18977380064264   -1.29941815629597    4.77078443948759
H        20.04022384240663   -1.21395604328968    5.96232844580750

