77
CSD_code = ARARER | q = 0 | S = 0 | Stoichiometry = C30H38N2O5SZn | MND = 5
Zn        4.25498228276128   13.12134113859043    0.09680825096019
O         3.59760033663118   12.24295044670443    1.68720081131864
O         3.13801694309304   12.23899588722339   -1.14190103960437
N         5.18151567311612   14.45241564019101    1.34630924912754
N         4.25522753946614   14.76584332200789   -1.10793470117935
O         2.56990877992038   10.49293767571140    3.31214123046319
O         1.74673974697613   10.44326380868429   -2.42663497819911
C         3.72985486400832   12.50096481216825    2.94086275938133
C         2.66901993021284   13.95736915029436   -2.73416285919657
C         3.46479379919323   14.94810831345363   -2.10900311528740
H         3.38513265196757   15.94761309712139   -2.55163236949331
C         3.24155443305584   11.81745011481178    5.23862363861614
H         2.80024718395520   11.13046494542502    5.94553116160886
C         6.67275388389966   16.51004620707612    1.19771335732168
H         7.34186707725401   16.13120023581791    1.97314949739667
H         5.94595821506719   17.18066583762767    1.66308413815303
C         5.84658207363268   16.62718202478404   -1.62348713228245
H         6.55043269522968   15.92327830335718   -2.07251096236175
H         5.20899016855216   17.01589603992510   -2.41870600156554
C         3.99239860492860   13.16645751995398    7.22896278774989
H         4.09760786735728   14.22851914948573    7.45458235807500
H         3.08326627426429   12.79600170100920    7.71121562360039
C         4.42557966827305   13.61858667888188    3.46485769304219
C         5.00779944165969   15.88293933356728   -0.57802999289871
H         4.30472542318708   16.59146164062011   -0.11133135912673
C         2.57398870741295   12.63813800549500   -2.21344619916346
C         3.16442632624075   11.58234492516496    3.88963460770848
C         0.94366902164040    9.47552212634599   -3.04694631185226
H         1.27937189543006    9.26466501154114   -4.06910742649325
H        -0.10900770708367    9.77818791014248   -3.07152400561308
H         1.04434266336318    8.57434048690926   -2.44318473888945
C         1.76632546752915   11.70328740399652   -2.96089278828656
C        -1.05073850541460   13.66905286868374   -5.56036624628397
H        -1.41813445143804   14.31404166576844   -4.77273022659093
C         3.89336123781012   12.95711639346762    5.73916947269720
C         4.48310248679672   13.82285472812628    4.85846658611276
H         5.01245353381509   14.68915282563850    5.23114190878077
C         5.12782884356192   14.53069484623687    2.62142892368249
H         5.67324454267437   15.31589336410072    3.15356436522694
C         1.10942434136249   12.08521617926046   -4.09819649904039
H         0.50203757843871   11.38616191983436   -4.65319491081371
C         7.49016705068707   17.27664949996377    0.16088184619931
H         7.99453978582499   18.11862861463743    0.63952930176382
H         8.25711519463760   16.61699371079134   -0.25070876050260
C         1.95565390998315   14.31228338819850   -3.90305424632664
H         2.03870437442278   15.32918608529632   -4.26321679350612
C         5.94749632302221   15.34732911641314    0.51961984573476
H         6.68853073888162   14.71063683762368    0.01774528919315
C         6.59941605324491   17.78137405340252   -0.96896322187972
H         7.20549552346631   18.29567836565191   -1.71740044952798
H         5.87997692199521   18.50061782744067   -0.56996113330202
C         1.19486698745428   13.40597020876250   -4.58280424735602
C         1.97256836564125    9.54107318386808    4.15064936109217
H         1.16112211833094    9.97490505499234    4.74555711283446
H         2.70406066821830    9.07882466255110    4.82375186256239
H         1.56179781965933    8.77910713700667    3.48950444132849
C        -1.86967211972199   12.84653430652784   -6.18810684090794
H        -1.52413868601574   12.19054236962959   -6.97142618142866
H        -2.91998026883284   12.79471892286901   -5.95514941725194
C         6.19575880478303   12.97100345388825    8.38730820492240
H         6.23708669920747   14.03210007037611    8.57300467831347
H         7.03073162527621   12.39328346180532    8.74649860801955
C         5.17395716569008   12.41494862013636    7.76524991446928
H         5.15692610399341   11.34740172633199    7.58717222102610
C         0.42061461616369   13.77051411933930   -5.82436658896380
H         0.66712594954602   14.79472304324306   -6.11518535593654
H         0.69331791807551   13.10266500608207   -6.64542659104860
O         5.67499037530193   11.75796925687485    0.01751786482212
S         5.33182743777104   10.61446041907708    0.92495348631575
C         6.58402927466205    9.36769529307039    0.35716765017754
H         7.56832111911898    9.76457989887843    0.57977333252374
H         6.48471332099296    9.21729431091548   -0.71081043736339
H         6.43367156210459    8.43828109547918    0.89393938504255
C         3.91824523816122    9.74175657169609    0.18886374909582
H         3.98412093982887    9.80131003320393   -0.89084493878949
H         3.02458140081060   10.25615406399040    0.52157145272524
H         3.92390814781344    8.71598252476443    0.54124103910809

