82
CSD_code = ARASIW | q = 1 | S = 0 | Stoichiometry = C42H30ClN8Zn(1+) | MND = 5
Zn        6.25722208292080   -1.82790900200838    3.66711349214104
Cl        8.00378379596232   -1.21864783832050    2.59091622841655
N         5.18085108325879   -0.09002800921364    4.21349103756224
N         6.23443415918392   -1.96947245247860    5.84906372758800
N         4.75159094875252   -1.85506622994496    2.23449657612144
N         4.47458680745756   -2.91222403772271    1.55198344028418
N         3.99218811523418   -2.54371598575666    0.38922841456292
N         6.50293888172776   -3.83019904288324    3.85477699676844
N         6.51498381401327   -4.46607662225168    2.73567672474721
N         7.17436348522024   -5.58597530374183    2.90045649332061
C         4.75544137471698   -0.15219448256466    5.41721231423981
C         3.75101621916488    0.58259828408800    6.17519536033128
C         2.89515100595011    1.62693300807983    5.90632010804200
H         2.90423802650851    2.14085511844309    4.95744895115065
C         1.98624046764673    2.02494189615756    6.90174309519739
H         1.32690351025851    2.85228539586655    6.68712981957711
C         1.90354041291960    1.40051306133659    8.12348204591668
H         1.18822452511701    1.73621197362762    8.85889119447403
C         2.74467535418586    0.30573700583587    8.42379339883643
C         3.66082360600903   -0.06318436016224    7.43210030926900
C         2.75042402075658   -0.47268795899910    9.60236679924553
H         2.07174370547711   -0.22613032890489   10.40468397422639
C         3.60269264669251   -1.54501309566105    9.71943148606129
H         3.57952797483549   -2.14052718664266   10.61949480279643
C         4.51361635870903   -1.90468982550135    8.71206888510602
H         5.15071957791888   -2.76364488610963    8.85642012086726
C         4.56337453090009   -1.14745823554386    7.56219877892990
C         5.29834163331022   -1.21837036284922    6.30300747567922
C         4.95140332287970    0.92231983546127    3.30819186689622
C         5.14969172319886    2.25405685930680    3.68509144426177
H         5.44760244204349    2.46501275842280    4.70170309371385
C         5.03481954169277    3.27343925868138    2.76330911562237
H         5.21135898287988    4.29345501231958    3.06704625246802
C         4.69942810472360    2.98179040826375    1.44941912034642
H         4.60516145590694    3.77530432283384    0.72519983693598
C         4.50535195864409    1.66987206345643    1.06270174754781
H         4.26546539076231    1.45268995220919    0.03428154142498
C         4.64194178538423    0.61820813730903    1.96786667613752
C         4.44434203732049   -0.74688917720357    1.51257814971804
C         3.93962019181348   -1.20346256302996    0.30315970918565
H         3.57081313026567   -0.69663449908800   -0.56252488308565
C         3.53388999387802   -3.51675833469238   -0.56706199492780
H         4.17058599263888   -4.40047467648838   -0.46310025008077
H         3.64764689334919   -3.10657766841944   -1.57224770684057
C         2.09150698332085   -3.89511321538485   -0.30799802931203
C         1.16455818818543   -3.89300321901162   -1.33960056448806
H         1.46751584805364   -3.60995764418895   -2.33702041532654
C        -0.14735859045349   -4.26383162434393   -1.09650733303094
H        -0.86183727380095   -4.26464721425064   -1.90504258977675
C        -0.54103325319241   -4.62952719994304    0.17907223732126
H        -1.56381246651471   -4.91712940224078    0.36750054946600
C         0.38037439695167   -4.62529177310117    1.21336470784463
H         0.07781286200468   -4.90986438602976    2.20990252000899
C         1.69321483073350   -4.26157712807951    0.97174361353053
H         2.41435411065016   -4.25845704454155    1.77742779635562
C         7.01430786769869   -2.80757158871425    6.61999756457063
C         7.47298347323403   -2.35948154073727    7.86612031155299
H         7.20179833199318   -1.36479936080057    8.18749821574113
C         8.29702867237287   -3.13699560645377    8.64985894418770
H         8.64569335233367   -2.76195812542617    9.59931427914898
C         8.67198285335537   -4.39894990882756    8.21208904715675
H         9.29811981678302   -5.02495116769857    8.82767279104801
C         8.26806712592064   -4.83761603676114    6.96746953967903
H         8.59422392701823   -5.80506398462404    6.62190731630760
C         7.46657369056550   -4.05300045480815    6.13536848773213
C         7.18281933683944   -4.53088269850417    4.79459239478656
C         7.61282239229372   -5.69333728883008    4.16562889451395
H         8.17911358547634   -6.53305678683247    4.50696754800397
C         7.32672085376000   -6.51494609133301    1.81199528336949
H         8.15414682810385   -7.18968396449808    2.03792717866047
H         7.57457210343881   -5.92990301568966    0.92038229770832
C         6.05467478546672   -7.29688436695702    1.56135756066622
C         4.84145167225087   -6.62964778903576    1.44344992570028
H         4.81215727014093   -5.55644132062067    1.57234072367666
C         3.68371579598228   -7.33935883333488    1.17658546769669
H         2.74318467540323   -6.81715533400208    1.08070445792692
C         3.73116931422483   -8.71559809629831    1.02538727626312
H         2.82832202216419   -9.26696644633267    0.81269311579215
C         4.93778249425173   -9.38245639539622    1.14771891378975
H         4.97916532289974  -10.45455088599980    1.03302600554551
C         6.09767444591743   -8.67576835926145    1.41765110449409
H         7.03797128208339   -9.19988688660479    1.50714709093576

