49
CSD_code = ARATOC | q = 0 | S = 0 | Stoichiometry = C18H27IN2Pt | MND = 6
Pt        2.61536517501540    7.00660471583638    1.76451225664533
I         4.69016908011958    8.60624956572617    2.54964659753413
N         3.00756856902116    5.76441224299608    3.66638609714887
N         4.25633789377021    5.34018997062184    0.97445696542846
C         0.88553534951760    7.26135915955804    5.44871132395227
C         0.12957902301623    6.14831655443895    5.02380106150750
H         0.64356900850498    5.27369978262103    4.65366364360381
C        -1.23612055680869    6.16821437300581    5.07375097747351
H        -1.80392744959766    5.31159735750952    4.74099386785065
C        -1.91314548029322    7.29762588251178    5.55810795478282
H        -2.99275973287993    7.29739653383618    5.58648560667508
C        -1.20915327310677    8.38265048236611    5.99746725527211
H        -1.72212149665993    9.25166078409243    6.38379998047887
C         0.20132792658026    8.39432684577261    5.96317433235746
C         0.94316057077774    9.50163573787128    6.42400215330223
H         0.40880751926576   10.36446052270638    6.79440921584979
C         2.30982554375881    9.48251521118187    6.40830079301027
H         2.87684662837045   10.32878419512219    6.76453075671583
C         2.99452698580786    8.36448254687718    5.91773402235526
H         4.07371876952273    8.37462875219615    5.89085278406714
C         2.30586787784152    7.28691030955964    5.41046445575323
C         3.06214629583166    6.15882376412835    4.86840621847102
H         3.72295792898529    5.64915757702247    5.58498462458999
C         3.76122155435945    4.58834759500169    3.30870755546412
H         3.05265333813217    3.84264626901720    2.93218685938017
H         4.26861218741022    4.16218746428005    4.18883316280950
C         4.82118205321532    4.89097104044140    2.24927264200299
H         5.47542010509403    5.67764490521670    2.63537893939313
H         5.43406885875101    3.98612473213949    2.10112087521445
C         5.34897526743790    5.86807935588069    0.15449032212746
H         5.78341362765658    6.75202213931527    0.61541200411702
H         4.97469183951969    6.14047883171549   -0.83078240927634
H         6.13842774121595    5.11558025191865    0.02565968914985
C         3.68491045179179    4.20442032625332    0.25464444334977
H         3.27754703897371    4.54387372623549   -0.69641134242876
H         2.88372659923873    3.73899173670058    0.82307419127498
H         4.45388551674298    3.44500558221848    0.05164782633392
C         1.03123331209156    5.81181569057518    1.20354450214362
H         1.19585609820661    5.38576792448080    0.21395829008333
H         0.07450209242353    6.33134598079567    1.17684681870598
H         0.94067054668819    4.99520347830742    1.92301767774110
C         1.21781300545045    8.35240995962060    2.46243837143178
H         0.38922559290928    7.82818754715739    2.93613149620607
H         0.82461811340757    8.98317166722609    1.66524001221367
H         1.70649737481014    8.98685261785289    3.20189772114217
C         2.46935527652374    7.94245912385245   -0.05423045078447
H         3.20104731312105    7.47124525514071   -0.71526864712560
H         2.72508365943103    8.99864572776114    0.04354846508349
H         1.48357927909221    7.86491820331475   -0.51300196056541

