71
CSD_code = ARAXAT | q = 1 | S = 0 | Stoichiometry = C26H36AgN8(1+) | MND = 6
Ag        9.10630664280877    4.81151007230208    1.91938650474121
N         8.53435052606391    6.90014101421949    3.35377420080007
C         9.31615973799423    7.91592305564481    1.25774221419964
N         8.89326243908951    2.73400877890180    2.90220344481267
N         9.14806812520347    6.75568150696857    0.63864035919077
N         6.82552590774387    4.45185931924038    2.85605097948431
C         9.98188044182616    1.97279290398433    3.00958460073473
N         9.68943623049201    4.34162050662936   -0.64488117460428
N        11.23170799153054    3.63115110786555    1.87313631730506
C         7.20318112829084    7.49043835554128    3.19187918403638
H         7.07043926462503    7.72257520094635    2.13208131634704
H         7.15265177183778    8.44011613719834    3.75210403399772
C         9.54711713240722    7.79615167844319    2.74537446722370
H         9.51397304307355    8.79160701633347    3.22227275184468
C         6.66848166555682    3.34067268421486    3.44253532967060
H         5.71549302336340    3.03468515739996    3.88804735569669
N        10.88682524569677    7.28084363801964    2.88386459509104
C         7.78789283210023    2.41411182296840    3.57384900792511
C         9.01994799046297    6.70660195120673   -0.67938181078283
C         8.74679452219389    5.32599253453773   -1.22569316282753
H         8.82315795150065    5.32744205898812   -2.32762050999800
C         9.22449442784142    9.07545226680646   -0.82059726993652
H         9.25357358060650    9.98865173315426   -1.39490015708864
C         5.74732654805649    5.38943386541915    2.78040640588811
H         4.79766805639426    4.94048575479802    3.11062761888768
H         5.64831853632619    5.70688889052650    1.73801235318715
N         7.37705477845783    5.03937715022549   -0.87530778003498
C        11.15351707430610    2.42809090181667    2.27487337154523
H        11.95328693274584    1.69807683317716    2.11549679422125
C         6.02637572363668    6.62668218807524    3.64669041233106
H         6.15441292856928    6.31221085711663    4.68268582487519
H         5.13496529078330    7.25505053867422    3.60482233977506
C         9.05473854668020    7.85499931710013   -1.45692824135621
H         8.94830629529362    7.79515807688632   -2.52795243217850
C        12.37405841887608    4.04066949019489    1.10225251909798
H        13.26575209743724    3.46732365317324    1.39200259867620
H        12.55292929739917    5.10163788898100    1.29486507219496
C         8.85843063688487    6.72221994323964    4.77061620757039
H         8.12240795605405    6.05363245619753    5.21767036796135
H         8.81393443059396    7.69012708274817    5.29750352243427
C         8.83710088193955    0.45735742510799    4.46626834353049
H         8.81030248434390   -0.43843377721944    5.06720947116365
C         9.32459978476636    3.00802203047879   -1.12738186355730
H        10.00382893923577    2.27716910833215   -0.68768023404402
H         9.42548956860897    2.95863502902920   -2.22485039164042
C        10.24807776316402    6.11887892726188    4.93598836902690
H        10.47335684476481    5.98733138657621    5.99407182178046
H        10.27080208373126    5.13716452947141    4.44352324591935
C        11.05868314562291    4.68255471855159   -1.03678587746605
H        11.23099898712979    5.72766605019432   -0.76727541583958
H        11.16139892083921    4.59749046639337   -2.13274519212064
C         7.71629610007193    1.26951259496056    4.36719942036431
H         6.80512787999448    1.02240364669394    4.88910034462136
C         6.95596994113709    3.71689084811875   -1.29714325680518
H         6.96966119020341    3.69309262071492   -2.39087301036409
H         5.92900031633388    3.56023456343117   -0.96375051930849
C         9.35789167614660    9.11360495209651    0.55953151638408
H         9.49457631888937   10.04753475060851    1.08022859112704
C        11.26083507872460    7.04148878540526    4.26433055130254
H        11.29174647203242    8.00732534055590    4.77749287454805
H        12.26409586547765    6.61318252427610    4.27908059954007
C         9.99043044706066    0.81142845608004    3.78567072865844
H        10.88195789801293    0.20786381200872    3.85335980153276
C        12.16206357173857    3.83306941239058   -0.40600418580907
H        11.98931889566253    2.77363990254776   -0.59766842713841
H        13.09618728368252    4.10610743508335   -0.90022958389573
C         7.89523723765362    2.65573075020016   -0.73239636431280
H         7.82109179256042    2.65310352113498    0.36120436268318
H         7.64180298600544    1.66401290094910   -1.10663259073783
H         7.29408918114028    5.10933881426754    0.14127487405065
H        10.94207529252017    6.40160308443214    2.36439246386706

