11
CSD_code = ARAZUO | q = -1 | S = 0 | Stoichiometry = C3H5Cl2Pd(1-) | MND = 5
Pd        5.86073732752749    8.91922870357631    0.30068192906840
Cl        5.74018747863144    9.56553138506762    2.48762224577627
Cl        6.15785392000894    6.71635775378854    0.82058447759845
C         5.82237297125414   10.84702210409329   -0.57495981091069
C         5.32421062442481    9.86968878713262   -1.45859694321842
C         6.12692082741379    8.76192955878769   -1.79441099381517
H         6.88230675316629   11.10935786951607   -0.61450466301784
H         5.17040112842300   11.65879792724751   -0.26916793441402
H         4.26398170730937    9.86763639045429   -1.71977801325643
H         5.70678528590892    7.98099640354841   -2.41940953638370
H         7.20494197593178    8.90025311678768   -1.90656075742683

