111
CSD_code = ARECOP | q = 0 | S = 0 | Stoichiometry = C56H48FeN2O4 | MND = 6
Fe        4.91383000881292    1.36951025932679   22.21798048191173
O         3.99500208816624    1.67666631688534   24.03649047541839
O         5.43918363477125    3.11962969737097   23.30676978781940
O         4.43532653511086   -0.62411582696586   21.94593249107869
O         6.11285240539040   -0.01573829928045   23.17415915696266
N         5.96162502114822    1.36809694419643   20.64474974706307
N         3.35526709049556    2.06840182095262   21.26834733798275
C         4.67909714239208    2.71537247183532   24.21859117904909
C         4.54640559106893    3.45543197631190   25.51056049089174
C         5.65485949793908    3.65777789399428   26.33572066656361
C         5.48032068149035    4.32368697867916   27.54656565300064
H         6.33284213684414    4.47224253881225   28.19318452725116
C         4.22956131729236    4.76509722285533   27.93564894186586
H         4.10643281320363    5.27134476594229   28.88225258654488
C         3.13573814703914    4.56336733577742   27.11399865686537
H         2.16083840182370    4.92637332558819   27.40557085979254
C         3.28359144686367    3.91590537376218   25.89122907783486
C         6.98690648865579    3.16506449245266   25.95345896415148
C         7.16983948814665    1.86537002954953   25.49004234804092
H         6.32787471006962    1.19591910397622   25.40713533083052
C         8.42535663767934    1.41881398220140   25.12928360199158
H         8.54132337776184    0.41311414859488   24.75263209694410
C         9.53484628412709    2.25148815501354   25.22828384824884
C        10.88931064234383    1.75494219386552   24.82202011993665
H        10.84817007515014    1.34269051501955   23.81580312433033
H        11.21784288814078    0.96316378130599   25.49509817433741
H        11.62508723234650    2.55574234262118   24.84836487701834
C         9.35361549180832    3.54235292681784   25.70658920418013
H        10.20373994402547    4.20609490361166   25.79207683966277
C         8.09776269131948    3.99506262420695   26.06581549805033
H         7.97194944909451    5.01069759459398   26.41355587898112
C         2.12520868680904    3.77066026331467   24.99451578911997
C         2.20283984123985    4.17299041955908   23.66480556145496
H         3.12759238061706    4.57703298773601   23.27994910012588
C         1.09943671111411    4.08052800725726   22.83824825835685
H         1.17644371067271    4.40937348824319   21.81108830692690
C        -0.10734952656149    3.58063846965639   23.30906068502196
C        -1.31184611808928    3.50040061782114   22.41999165898206
H        -1.02584260114570    3.58445570102953   21.37450423946500
H        -2.00336152952216    4.31105968802309   22.65243605712267
H        -1.84141737554657    2.56080752860035   22.56693399671398
C        -0.18216552155615    3.17801695736484   24.63738710493760
H        -1.11606584019291    2.79456428455456   25.02576220135712
C         0.91569238087166    3.27381684044735   25.47059580594537
H         0.84195586766571    2.94812063902880   26.49860371916218
C         5.34713479843789   -0.92195457737097   22.75777010163335
C         5.52937922513132   -2.33004058064591   23.21448698889979
C         6.79702401183869   -2.91358459339931   23.15320482511436
C         6.96356354553665   -4.22284592691741   23.59185055949620
H         7.94307297717192   -4.67605448594975   23.54203251751538
C         5.88167486046190   -4.94700923279934   24.05970266845104
H         6.01849674232088   -5.96709907694913   24.38865871968805
C         4.62585270200423   -4.36941987940912   24.10857919142612
H         3.78293826184190   -4.92997062018042   24.48610084765957
C         4.43680270519033   -3.05282799647767   23.70034240841095
C         7.93211383191115   -2.15842031335361   22.59829878077667
C         7.83874350420215   -1.56741055879391   21.34147435777165
H         6.93172740305649   -1.68135163545662   20.76455903217843
C         8.89638939412020   -0.84537226182035   20.82814743521507
H         8.81248253908105   -0.39722892390173   19.84830307429332
C        10.07041314925051   -0.68199884161004   21.55448306528939
C        11.18416846369495    0.15912092884407   21.00779013495765
H        11.34088864892728   -0.04776143822766   19.95080674580096
H        12.11325487768011   -0.02311821390966   21.54304652112983
H        10.92852760831451    1.21517946079555   21.10770248395172
C        10.17033215827271   -1.29366492213155   22.79616728431616
H        11.08123946227094   -1.19501943274900   23.37025136092774
C         9.11764543948906   -2.02819894471001   23.31128366959124
H         9.20464785903412   -2.48592981044854   24.28667611632545
C         3.11319909420792   -2.41829558333178   23.80859541821270
C         2.96571372219036   -1.20237736912212   24.46936276355513
H         3.82376566782612   -0.72362131737506   24.91542404822836
C         1.72967581864365   -0.59248561197104   24.54813552694355
H         1.64092190765084    0.36164838484266   25.04719840181067
C         0.60761785568779   -1.17998053393343   23.97407758887814
C        -0.72704559835054   -0.50246076795655   24.06229669430955
H        -0.61079191952453    0.57318994306456   23.94631550353186
H        -1.17748041515942   -0.68750291571486   25.03836554442191
H        -1.40825453583562   -0.87716589299054   23.30084740238364
C         0.75308015162255   -2.40373969526400   23.33500902365624
H        -0.10898504280961   -2.87833492435843   22.88603284759318
C         1.98859239743264   -3.01981261926906   23.25574760515548
H         2.08936984499914   -3.96238208735121   22.73637701187435
C         5.44137771340700    0.85533649214778   19.52543402711328
H         4.51049445650460    0.32319120403037   19.65198520601450
C         6.03221697488570    0.96255575343383   18.28454314383294
H         5.55907564809051    0.52288261626628   17.42086066848597
C         7.23989373108164    1.64165177947761   18.17731095243198
H         7.72903274464313    1.76090323402749   17.22255214079073
C         7.81193561458045    2.12809072252351   19.33690427346236
H         8.77403122595393    2.61466221846280   19.31134536391826
C         7.16775275963851    1.96593391296433   20.56318468089365
C         7.80129207471319    2.37558314163526   21.80804946177696
H         7.51585874936726    1.79183170501696   22.66968502376406
C         8.66701957234634    3.37420147103480   21.92993599364205
H         8.93940607223349    4.01294524480319   21.10453920584349
H         9.10804114823652    3.60876423212214   22.88230948397399
C         2.29288304823116    1.35557765838544   21.65818396048600
H         2.41303137861609    0.80170826253314   22.57507396053888
C         1.10866685579720    1.27904787339718   20.95868979517665
H         0.30739285606470    0.66353029368977   21.33205940606619
C         0.98605534914875    1.99418122218970   19.77359016852312
H         0.08523106470649    1.94933237262303   19.17998814246943
C         2.05430485447800    2.77533163467047   19.38670659055406
H         1.99866929181180    3.37489013615472   18.49000249760502
C         3.22326027873892    2.81940313582068   20.15574649089193
C         4.26684761216348    3.73475076624093   19.70620493506314
H         4.18698428721696    4.00752317313932   18.65980250727097
C         5.20118470443584    4.29744353183589   20.46265027027885
H         5.29982831334536    4.07508570996904   21.50910130831425
H         5.90041807487580    5.00132988718528   20.04396156026554

