103
CSD_code = AREHOW | q = 0 | S = 0 | Stoichiometry = C50H42P4S6Zn | MND = 6
Zn        5.36217826850600   18.32610927305064    0.00020405742665
S         3.18482655245879   19.80910881014960    0.95858959658333
S         3.48850637203445   17.18221610497961   -1.62229143713375
S         5.87778771991870   19.82524963757866   -1.82574496054617
P         3.64404928264098   21.11285998987319   -0.40547726943437
P         3.10055866868016   18.89667012311394   -2.46576637755835
C         5.02616150550475   22.19785353100624    0.05390158276929
C         5.31110106730618   22.30263413235236    1.40973792755590
H         4.72577028525856   21.73473054896943    2.12101239726558
C         6.35536296310629   23.10418162160819    1.83227095506807
H         6.58712986114006   23.17126918958981    2.88455079325901
C         7.10912528353078   23.80089174584815    0.90387280323142
H         7.93296203336691   24.41814781887519    1.23113309923891
C         6.81976361440572   23.69935948922740   -0.44799244202355
H         7.41680970451151   24.23494893885432   -1.17151094721900
C         5.77892052692098   22.90120052745633   -0.88081870345767
H         5.58174696448099   22.80078928981016   -1.93786520584216
C         2.26080334461941   22.23958033807012   -0.76131715426055
C         2.36566151424736   23.20042609156535   -1.76157029058067
H         3.26465576243218   23.26995905708053   -2.35791721294031
C         1.31612085096694   24.07045067239192   -1.98486338630583
H         1.39238281418470   24.81463137520154   -2.76422209592877
C         0.17045373217506   23.99293729216108   -1.20800266251986
H        -0.64616253970361   24.67692397837433   -1.38616330755494
C         0.07504964235133   23.04741965506743   -0.20100355037115
H        -0.81295196398508   22.99353761725745    0.41087122833575
C         1.11975094971990   22.17070481959368    0.02612555369679
H         1.06569700982001   21.42448094792783    0.80638317547922
C         1.40922566224734   19.49273072417381   -2.20484509223245
C         0.90994056780040   20.51795189289314   -3.00371218241849
H         1.52837881302067   20.94250620940518   -3.78422268719250
C        -0.37832134185080   20.97101995899619   -2.80014951026138
H        -0.77327779294251   21.76339174741927   -3.41872496384691
C        -1.16071324624326   20.41072160616848   -1.80139990066870
H        -2.16685152945489   20.77109512067022   -1.64566977135802
C        -0.66161736107493   19.38967184828979   -1.00996985458751
H        -1.27456276274067   18.95358537916800   -0.23556940025339
C         0.62441779281853   18.92191391706677   -1.21239880686335
H         1.03271909187211   18.12089157553493   -0.61091718971206
C         3.30530046124928   18.75763436897098   -4.26107457657199
C         2.23586834010577   18.25639671236630   -4.99685578293577
H         1.29877530608106   18.04579533918857   -4.49748765146043
C         2.38062174236218   18.03793074794079   -6.35362325730178
H         1.54954679846691   17.65612157905743   -6.92841323565627
C         3.59251452491098   18.30319275463794   -6.97245252610141
H         3.70382675237385   18.13019280256888   -8.03284794717328
C         4.66372552435723   18.77652998841376   -6.23253277445928
H         5.61194956528307   18.96792610027314   -6.71260617807796
C         4.52978108770585   18.99886821749627   -4.87344270858049
H         5.36945954605128   19.34713120348590   -4.28768029457343
C         4.16721469069010   20.34722977985127   -2.00335360052180
H         4.09029944699649   21.07128291642417   -2.82377829099141
S         7.53923439564271   16.84284922955815   -0.95878665363864
S         7.23550188160929   19.46973285657559    1.62253061421297
S         4.84668536546504   16.82660268431304    1.82589666545214
P         7.08048059756675   15.53917272408023    0.40550239164169
P         7.62380792960358   17.75527603620251    2.46585988624054
C         5.69845192435680   14.45410656449658   -0.05391091796270
C         5.41344147734355   14.34940659562126   -1.40974686118805
H         5.99869094932973   14.91741277275503   -2.12101330660162
C         4.36925020598368   13.54776509636215   -1.83228137742919
H         4.13743011442330   13.48070955902258   -2.88455707237504
C         3.61561383890785   12.85089564761755   -0.90389657694647
H         2.79182384633998   12.23356985599392   -1.23115435672623
C         3.90503424137641   12.95236644331182    0.44796203333810
H         3.30807238941776   12.41667198387281    1.17147407836856
C         4.94581701784289   13.75060507955128    0.88078651752980
H         5.14302931060661   13.85097199855221    1.93783360110529
C         8.46380775210817   14.41250502352291    0.76128264765639
C         8.35906188371494   13.45167066006375    1.76156195560097
H         7.46008100859289   13.38204149793295    2.35791413190688
C         9.40870511202717   12.58176947548198    1.98486700621952
H         9.33252559225348   11.83759108330029    2.76423551989398
C        10.55435315010288   12.65938933373459    1.20799257798165
H        11.37105117553834   11.97550389132361    1.38616237921025
C        10.64964938690436   13.60489867840790    0.20097719172055
H        11.53764979968008   13.65889283131257   -0.41088533060472
C         9.60483923347285   14.48148075853012   -0.02617291484588
H         9.65884364202623   15.22773134624899   -0.80640547955969
C         9.31519716259504   17.15947374371212    2.20478985729078
C         9.81468377018949   16.13424923713889    3.00353300738782
H         9.19636636814086   15.70953533400240    3.78405012035443
C        11.10300867316078   15.68140631396560    2.79986180411288
H        11.49812575268021   14.88903802357567    3.41833834599106
C        11.88526313038183   16.24192238883735    1.80112496839902
H        12.89143948817513   15.88170384500616    1.64529184417077
C        11.38596462996528   17.26296793115754    1.00981978370881
H        11.99878430183690   17.69920378079451    0.23540714582958
C        10.09986729298091   17.73050417246771    1.21236229148847
H         9.69140637085509   18.53151154559712    0.61097127914522
C         7.41913730181505   17.89409871299080    4.26117708471060
C         8.48854043226373   18.39538317703610    4.99696085442066
H         9.42556216069720   18.60621946338834    4.49755361901997
C         8.34385163073372   18.61363302398675    6.35376790932880
H         9.17489795804667   18.99551794270503    6.92854914704752
C         7.13204167624933   18.34810296239133    6.97264480268356
H         7.02077713302282   18.52094093488491    8.03307326204625
C         6.06084563698816   17.87472527693629    6.23272680540150
H         5.11267596949067   17.68314438324797    6.71284054569240
C         6.19472904930286   17.65258573855060    4.87359485091422
H         5.35504694674061   17.30432368273043    4.28783113600004
C         6.55727801870737   16.30466307732811    2.00345325068816
H         6.63423245180652   15.58057049231916    2.82384995153262

