27
CSD_code = AREHOU | q = 0 | S = 0 | Stoichiometry = C12H8N4PtS2 | MND = 4
Pt        0.20706906625017    2.08628397488677    0.24815486845617
S         2.50870021092592    2.07856733363587    0.39040724501340
S         0.36977071707745    0.01184595681042   -3.93797871890355
N        -1.82442648749652    2.16667259153439    0.25212145679017
N        -0.04954715376113    2.93620861033613    1.99456340403369
N         3.57803181757042    0.90443855289418   -1.92530408791078
N         0.27715799794086    1.25029737971261   -1.48412304401644
C        -2.64347233394870    1.73944993523709   -0.70786561996366
C        -4.01625030896361    1.85155871844222   -0.61239166164322
C        -4.56400333120187    2.43304233123026    0.52643325850750
C        -3.71704582767353    2.87547358567586    1.52276334097342
C        -2.33663274935198    2.73207224320736    1.36878129508099
C        -1.34540905434232    3.15567929508140    2.34734281736385
C        -1.67068063537075    3.74394475369073    3.56994351519647
C        -0.67092915646144    4.11514120399914    4.44505085920182
C         0.65010454440310    3.88732179850700    4.07249775793788
C         0.91023331964863    3.30196402041375    2.85212596903744
C         3.07328297863108    1.37546953403714   -1.00705581477667
C         0.36908063747463    0.71229559421080   -2.53214587209515
H        -2.17550821320537    1.29511286513391   -1.57621358528673
H        -4.64268355268272    1.49262061250980   -1.41203467940258
H        -5.63242751757555    2.53803608459103    0.63210462379891
H        -4.12103738422683    3.32935823293451    2.41232762979005
H        -2.70324063535355    3.90670023514860    3.83054038414187
H        -0.90962205455171    4.56987162524022    5.39318728945373
H         1.46697654547666    4.15943195202200    4.72019622334829
H         1.93080856076853    3.11694097887670    2.54597114587311

