111
CSD_code = AREJOW | q = 0 | S = 0 | Stoichiometry = C34H64N2O6S2Si2Zn | MND = 4
Zn        4.64460377615752   11.81035421785213    7.18409038831805
S         3.71807695188175   12.87031120048931    9.02999507973955
Si        4.92497312690639   12.03864710657402   10.54149002951515
O         5.07309046576247   13.04457638947383   11.80854123012659
C         4.24952835317394   14.05838540457279   12.36713098828185
C         4.78791507991376   14.31533639733309   13.77904774134026
H         4.71478956972772   13.41457608496005   14.38380269020945
H         4.21901414840484   15.10837837708205   14.25628916296161
H         5.83312143845237   14.61070624521020   13.73004742054865
C         2.79289341890562   13.60348263236895   12.42311605297946
H         2.70547324780439   12.69082018223178   13.00780392088331
H         2.44023645752465   13.40832367040477   11.41413533375643
H         2.17658717480754   14.37444935644039   12.87721081780401
C         4.36489497939441   15.32692441937929   11.52018283651241
H         5.39844902643989   15.66436182292676   11.48979387142509
H         3.74925662537097   16.11624506370085   11.94224434677834
H         4.03105194587987   15.11522438491710   10.50779010367803
O         4.19581057261230   10.61997966884710   10.87057780849546
C         4.25507199094395    9.70745953288696   11.95489824827482
C         4.98385307122509   10.29538952232179   13.15863355743809
H         5.98709266607679   10.59279284653537   12.86800056006803
H         5.04023571736946    9.56141002504736   13.95897088583312
H         4.46158727289526   11.17589450271851   13.51706639666958
C         4.98852628647223    8.44495406262643   11.48899709623874
H         6.00774476454660    8.70191133459752   11.21258364258391
H         4.48311891747174    8.01254500805202   10.62810714268846
H         5.01085190156008    7.70938622556812   12.28942084898173
C         2.80587171137723    9.36785416094019   12.31975616981054
H         2.27340986116402   10.27525611953072   12.59192575265376
H         2.77627942951918    8.67168841562327   13.15381864510432
H         2.30580524369807    8.92235747906652   11.46348550210291
O         6.42315978545892   11.63496629496183   10.04959088240937
C         7.60230774420264   12.41769821895701    9.92877863362694
C         7.30457573492440   13.73738337272438    9.22317496483528
H         6.84324123066932   13.54698893502420    8.25373686272088
H         8.22258476293337   14.29858910223822    9.07091074882911
H         6.61663057237358   14.32826465299235    9.82006939669723
C         8.59454478124909   11.59676569740098    9.09920624005468
H         8.24252620124246   11.51512947262547    8.07447329968240
H         8.69416855774697   10.59738252752254    9.51763078730713
H         9.56749982007416   12.08061703051379    9.09962086418502
C         8.17066688675452   12.67302612979877   11.32718601841084
H         8.44002557061111   11.72956949567708   11.79743990455706
H         7.41576203319329   13.16034087933281   11.93610249286798
H         9.05315231637315   13.30434678332413   11.26782402200757
N         6.10262793246045   10.10067352477436    7.20892171915773
C         6.93892233773146    9.89781435374036    6.19961721150087
H         6.90619256122500   10.63211959795041    5.40623615869849
C         7.80153346443330    8.81486675992755    6.15391263825547
H         8.47200413674231    8.69031007084041    5.31799607699552
C         7.78729314768940    7.90782342882910    7.20120686061124
H         8.44775776896496    7.05264211822710    7.20080726140768
C         6.90785528880156    8.12247459767719    8.25062600909658
H         6.86175141000085    7.44095924992810    9.08585603848078
C         6.08379213621128    9.23528801436473    8.21158817124723
H         5.39369438970591    9.45951148971668    9.00896158235724
S         5.57156601725643   12.87020169850580    5.33830821911460
Si        4.36429063407017   12.03870775928085    3.82682542756372
O         4.21612314131206   13.04458791421951    2.55971279404859
C         5.03967399159886   14.05839976724262    2.00108965228356
C         4.50127237910152   14.31532758904483    0.58917656808202
H         4.57440402223397   13.41456064070848   -0.01556595578965
H         5.07015572927587   15.10837367304771    0.11191720620904
H         3.45606316745335   14.61067984878764    0.63818832947481
C         6.49631048831299   13.60351385875522    1.94508890699105
H         6.58373661327695   12.69085308053255    1.36040009317381
H         6.84897968567488   13.40836189935844    2.95406527819669
H         7.11260403452945   14.37448698005447    1.49098546769528
C         4.92430534703697   15.32695265131889    2.84801401096482
H         3.89074824705444   15.66437653207812    2.87841527314420
H         5.53992711541188   16.11627734002124    2.42593043516032
H         5.25816030698252   15.11527727991246    3.86040607875941
O         5.09340392341949   10.62002003445256    3.49770790950990
C         5.03418897380073    9.70749173399598    2.41338643289325
C         4.30536668618827   10.29538349984673    1.20965664868745
H         3.30211507606841   10.59273744967394    1.50029913757028
H         4.24901417820661    9.56139831543113    0.40932292151759
H         4.82758438080077   11.17591440896775    0.85121660277752
C         4.30080811740254    8.44495205977332    2.87930812126095
H         3.28156445850365    8.70184943741424    3.15568322931778
H         4.80621877764626    8.01260559091687    3.74022838870677
H         4.27855873123741    7.70935887190805    2.07890702504393
C         6.48340152697074    9.36795668773522    2.04851533823318
H         7.01581794247353   10.27538410683920    1.77634328206859
H         6.51301645286966    8.67179634214580    1.21444867289357
H         6.98349838676207    8.92247741088453    2.90477746793081
O         2.86606381465713   11.63500928195802    4.31869034136178
C         1.68690925248512   12.41773790380729    4.43950446913166
C         1.98464273140233   13.73742637919389    5.14509682767210
H         2.44598051143626   13.54703882185357    6.11453529584801
H         1.06663130821926   14.29862839387628    5.29736543004630
H         2.67258602574379   14.32830908214526    4.54820179973511
C         0.69468408894553   11.59680702323818    5.26909272906196
H         1.04669870626646   11.51520785847140    6.29383158266990
H         0.59508494960993   10.59741103908466    4.85069243786245
H        -0.27827753529039   12.08064428150648    5.26865292865475
C         1.11854819912767   12.67305644971424    3.04109720780975
H         0.84912888471883   11.72960240774862    2.57087567673464
H         1.87347381465811   13.16031022730662    2.43215635003193
H         0.23610074051529   13.30442944732176    3.10045281225379
N         3.18662335799571   10.10069834097953    7.15931681835905
C         2.35033744669074    9.89786721737287    8.16862871666629
H         2.38305391317093   10.63220148238307    8.96198052846912
C         1.48768706683013    8.81495244903850    8.21434301487702
H         0.81721881344308    8.69043005638602    9.05026478716588
C         1.50188878938577    7.90791106188272    7.16704686492430
H         0.84141100772280    7.05274081325510    7.16746617163170
C         2.38131984211398    8.12253180988816    6.11761763870136
H         2.42740738810426    7.44100712728474    5.28239463642987
C         3.20542146418864    9.23531623054210    6.15664509624626
H         3.89551111964224    9.45952669151699    5.35926175636244

