66
CSD_code = ARELAL | q = 0 | S = 0 | Stoichiometry = C23H35Cl2N5Ni | MND = 4
Ni        5.06433616703339    7.59755099588422    4.43601497604410
Cl        3.89044302291666    9.25281419643111    3.70065332928244
Cl        5.71191049277912    5.23093340603034    8.90869408991393
N         6.48143495614195    9.57965183082461    5.94190608240815
N         7.44891196550239    9.27684161231920    4.04790804634623
N         2.58465448978609    6.09004099632619    4.71198571621399
N         3.37731927608443    5.98608305605417    2.71809367070238
N         5.68779930147959    6.14193980051251    6.48151281356281
C         6.45854285614999    8.81674469870429    4.83548260209170
C         7.47360910941472   10.51576790885765    5.84883902970580
H         7.67174064193905   11.23334600347987    6.61771227742428
C         8.08176266806799   10.32867651829697    4.65470076619977
H         8.89662271037824   10.85637451678333    4.20477029513301
C         5.51914441806640    9.45649278219692    7.01957853924352
H         4.89849035014671    8.58562545890092    6.75593187166227
C         4.63447500461516   10.69887214950833    7.06773229283901
H         4.15391404946005   10.83942931054491    6.10172774628151
H         5.21796368043440   11.58642261414837    7.30421928197942
H         3.86454162498169   10.57628043186556    7.82449545362988
C         6.22435964583856    9.18455072249977    8.34304456732578
H         6.85401187357924    8.30225293082691    8.25590673528151
H         5.48764029058641    9.00322160167316    9.12044564790171
H         6.84039389376829   10.03048212722468    8.64137729854177
C         7.69645408052201    8.78271052189302    2.70963427474836
H         7.13416699948578    7.83819416354126    2.64364898123371
C         7.12602934191951    9.76477976714383    1.68823760227857
H         6.06853893059139    9.92260291173421    1.89159735984286
H         7.23528139540217    9.36785980986747    0.68257847359648
H         7.64058772180989   10.72162625195477    1.74582977916312
C         9.17979394847310    8.50573343201108    2.48974431847697
H         9.56635091505948    7.86474551334110    3.27930306297118
H         9.75213117807602    9.43025428694705    2.47644960254866
H         9.32195566482685    8.00533944102589    1.53556226828129
C         3.64587982878129    6.43174812241011    3.95971064542578
C         1.65362360150878    5.44319284438854    3.94582260178031
H         0.72381239626665    5.08658442931140    4.33732087391556
C         2.15283213368932    5.37584592878640    2.69016266842431
H         1.73388080407065    4.95091244585191    1.80181574760953
C         2.43101001619705    6.46079956102889    6.10570409087920
H         3.42147295073357    6.80964549781027    6.42845977799260
C         1.43334730396831    7.61114108199271    6.21952216626855
H         1.76220109949587    8.44031330417171    5.59623914193889
H         1.37199401623336    7.95095046558666    7.24967542105600
H         0.44261013283682    7.29978462397531    5.89370795915886
C         2.03416820525813    5.25588252823964    6.95106846857526
H         2.72948863955999    4.43567063186236    6.78579852993488
H         1.02717875219797    4.91847664365061    6.71491003498930
H         2.06725620781970    5.52442542915072    8.00317045892481
C         4.24275389950109    6.22325815679365    1.58158767763818
H         5.14526020430968    6.69744240759895    2.00438527201240
C         3.58197622275078    7.20764236389909    0.62073752951896
H         3.34868367801985    8.12720576641038    1.15365422889940
H         2.66331256563485    6.79366789005360    0.21078588636266
H         4.25689950559468    7.44015297687254   -0.19858756653057
C         4.62305278819185    4.90934996287698    0.90665612465501
H         5.04769035972736    4.22013311393456    1.63383187136182
H         5.35990022095348    5.09308698914849    0.12918876551995
H         3.75354192444892    4.44213880104635    0.44966855694918
C         6.00818402640875    6.21126933661775    5.18423348408435
C         6.92255601865258    5.28873261172416    4.65321983167266
H         7.19644190720657    5.32436137685803    3.60753771476748
C         7.47678576630172    4.32311843524005    5.47348158081623
H         8.18265245612539    3.60625823459779    5.07564560359460
C         7.12564487850087    4.26959371409749    6.81506235112496
H         7.53216717345985    3.53211495835790    7.48769274508606
C         6.21802765029443    5.21945759640647    7.24631090285212

