36
CSD_code = AREPUI | q = 0 | S = 0 | Stoichiometry = C9H19F5N2Pd | MND = 4
Pd        9.74216098424583    5.74514932837444    2.09078234699955
F        10.93741303090788    7.05015621937644    4.22098022889742
F        10.25238035924736    8.58989053950834    2.85305968912329
F        12.94627176209765    7.94220572636797    2.36031386143890
F        11.67673380050428    7.21852350121872    0.77005846410557
F        12.39839267972073    5.85510918421771    2.26601658123070
N         9.16735513998594    3.94373513238153    1.03434808900763
N        10.32707026132187    4.08278268020598    3.72871653812529
C         8.00914795085141    3.91411253520057    0.14666478096469
H         7.94597849137478    2.95338456181209   -0.38444937587287
H         8.08338784503383    4.71318559537884   -0.58813532978909
H         7.09411973353255    4.05527546365904    0.72164590665123
C        10.38705594493241    3.82992617645939    0.22839611242851
H        10.41430293164944    2.87260233636025   -0.31445908785039
H        11.27628235720973    3.90190669304933    0.86153890959311
H        10.41612174889433    4.64707234691868   -0.49833507447090
C         9.04995608977772    2.82922860261157    1.97812071475386
H         9.07869603152462    1.86806912354920    1.43510181768713
H         8.07150865973276    2.90582786133837    2.46175841290748
C        10.14706381059952    2.80149816690871    3.04523976099107
H         9.89486037209293    2.00667620181667    3.77044958989869
H        11.09978401896888    2.52957273980085    2.58167549076705
C         9.18089844803356    4.37815635954854    4.59785960940278
H         9.00405233858855    3.55951120862464    5.31259382373287
H         8.27598821100977    4.53954346151879    4.00006652761250
H         9.38591471163264    5.29250781300975    5.15702286225902
C        11.53374544088656    4.00853840329389    4.54598891108718
H        11.46034810895781    3.19903383335127    5.28693208078847
H        11.68055247416181    4.94961697003780    5.07000424870014
H        12.40269286164927    3.83034690567005    3.91394051946677
C         8.57278316050311    7.01855237013530    0.96230985899224
H         7.54839886610221    6.63153352114063    1.01410294112863
H         8.94305237769981    6.98106186621837   -0.06901854776539
H         8.57387059108503    8.05532872028916    1.29746588842636
C        10.63307370003418    7.28030495989541    2.88962329292024
C        11.92598470544601    7.12077289076328    2.09571955564881

