36
CSD_code = AREQAP | q = 0 | S = 0 | Stoichiometry = C9H20F4N2Pd | MND = 4
Pd       -2.05657426586790    6.95165421397756   11.84278159275771
N        -3.85765762652450    8.02871832934895   12.47739211849433
N        -1.11837541175643    8.54506400598281   13.37482702192868
C        -3.58779307653336    8.79060228896419   13.69834657725693
H        -3.67295506639348    8.10273219244704   14.54501477370336
H        -4.35038666723234    9.57858997766795   13.83185374387681
C        -2.20918889008209    9.45637311880225   13.71826555937733
H        -2.19444933612701   10.28467885546452   13.00381835201441
H        -2.05425291902634    9.88679073206780   14.72480000584756
C        -5.13349951343431    7.33988439166413   12.63629749778194
H        -5.94510232150182    8.05425720623109   12.83884164032155
H        -5.07570379618463    6.63363080196361   13.46440713000013
H        -5.37281136745544    6.78949333330414   11.72863880828545
C        -3.93265167269948    8.90962365379677   11.30825867207156
H        -4.17815353122761    8.31408253967208   10.42421899945987
H        -2.97128961496254    9.40075264874934   11.13417324512338
H        -4.70687377235444    9.68123699299177   11.44249136017829
C        -0.90873385214495    7.55349158284895   14.43589588042724
H        -0.03899203368605    6.94460535859706   14.18339596908435
H        -1.77724165674890    6.89015608400547   14.51949573087026
H        -0.72906473616332    8.04221978489218   15.40668710508419
C         0.10440662971768    9.32218940731931   13.20676023147524
H        -0.01903131614334   10.04399860026913   12.40055435749168
H         0.92607611978305    8.65897582867516   12.94797918574742
H         0.36179387314532    9.86160495069846   14.13055445702576
C        -0.40455959159525    6.28578818595159   10.98463981624197
H        -0.21143309935727    5.29388724837376   10.56034930102772
C        -0.47224190684794    7.29829293837874    9.87659622411278
C        -3.03651925219031    5.26755606669335   11.17645311947361
H        -2.39604820372587    4.45743473513665   10.82460630325959
H        -3.69350866472230    5.57273825658482   10.35350022899800
H        -3.63475616146150    4.89868052637623   12.01778502262730
F         0.69458345305572    6.59322219118622   11.78902878350737
F        -0.59184981894636    8.56853922849645   10.35248088201156
F         0.55458222469438    7.34055054463052    9.00329786929432
F        -1.58624315730478    7.10470319780003    9.12711243376073

