71
CSD_code = AREWEB | q = 0 | S = 0 | Stoichiometry = C28H36Cl3N3Pd | MND = 4
C         9.77268311398144    8.22190955874889    8.90427286840494
C        10.69439032806835   10.21805539660817    8.61328729113755
H        11.27662938741291   10.98940113561585    8.15577237177329
C         9.96139637687791   10.26650296894135    9.74249605857140
H         9.81796404728289   11.08392854624276   10.41671945072810
C         7.95274951055015    3.82311476771649    9.23576277736285
H         7.51293512596574    4.44056945074116   10.01457060550925
C         7.61090649688716    2.48870917569846    9.09983873906141
H         6.89970470329889    2.04037794204530    9.77520061701307
C         8.19140776096713    1.73960822617420    8.08934701178739
H         7.95075204157510    0.69781579311172    7.94970102572044
C         9.10072997144048    2.37402761960046    7.25316644055924
C         9.39356881778343    3.71627527180870    7.45186437647525
H        10.10463100012668    4.23208506411025    6.81207960273355
C        11.26187591312246    8.58396176354383    6.85254272736608
C        11.04581717862171    7.11987439288289    6.45147218740657
H         9.97051626995070    6.93741669436100    6.29000131864225
H        11.44367788635896    6.46374421038919    7.24275010745080
C        11.78909946589903    6.82225446576550    5.14584169561402
H        11.62087376103381    5.77423941538304    4.87430735308734
C        11.25598970607592    7.72338455071624    4.03450661113669
H        11.77383584662376    7.50812318308066    3.09774393314759
H        10.19117442890412    7.53669621427780    3.88153148880195
C        11.47616783009980    9.18097190755298    4.42982256146729
H        11.09656941731068    9.83784142660553    3.63987123261571
C        12.96954053408590    9.43769070164061    4.63292577773037
H        13.13504793316705   10.48272103954395    4.90542186498683
H        13.50656992120611    9.24775933625971    3.70158979092468
C        10.72353198589809    9.47802082883590    5.72657220485109
H        10.84388976878973   10.53190344736919    5.98317921304921
H         9.65593836921272    9.28325127569489    5.60016213186661
C        12.76859248683362    8.81218396919350    7.04223635042866
H        12.96805286948925    9.84170846551675    7.34333502761496
H        13.12952319496701    8.15466640454876    7.83661424747918
C        13.28416051453113    7.06246381318872    5.33902232383333
H        13.82227382161359    6.83981263470656    4.41557904658215
H        13.66995409255349    6.40480692424778    6.12059246081129
C        13.50273894476634    8.52037242889351    5.73357737156499
H        14.57266315304628    8.70578908961445    5.87722356271272
C         8.53213209881831    8.76031122091916   11.07751869871559
C         7.93981780435209    7.34578097730812   11.07663260678108
H         8.75746165170225    6.60575421893628   11.11293110658140
H         7.32419919676993    7.20639701206596   10.17418235688343
C         7.05987386385602    7.14964588498504   12.31466907130312
H         6.64447074842694    6.13592094671004   12.29557369494347
C         5.91859204999505    8.16350764096454   12.30629498599170
H         5.30177653107540    8.02407420986274   11.41615569771908
H         5.28335294229921    8.01936977211230   13.18258998828307
C         6.50860914099186    9.57066384956569   12.31377245349181
H         5.69973376373150   10.30923175074073   12.30538731764329
C         7.36272660667521    9.76463241838329   13.56689763402471
H         7.77741261486667   10.77524614179457   13.58331529081137
H         6.74318735217994    9.64483927048735   14.45772539040423
C         8.49350727922904    8.73593040417781   13.58116455224378
H         9.10282790497343    8.87468720160564   14.48062820185472
C         9.37643504331976    8.92916450188317   12.34858018898192
H         9.82903458399493    9.92192458948114   12.37785766849158
H        10.18349143951709    8.19286181767042   12.33751760260371
C         7.90485996807897    7.32751899487909   13.57402784369997
H         7.28936407656943    7.17559285844407   14.46295292111380
H         8.70913902465093    6.58926225894118   13.59058237764936
C         7.37291072587981    9.76752378355858   11.06873671169750
H         6.77819788558502    9.61572928492664   10.16502141711516
H         7.75062919469025   10.79079965496201   11.05336001271492
N         8.82568602984056    4.41884473986676    8.42605430818296
N        10.57520660979935    8.95097265951870    8.10096836082595
N         9.39140616201142    9.03048084426624    9.91477317645162
Cl       11.13690537487077    5.73216192832598    9.91882781341469
Cl        7.44451569951854    6.94707433926753    7.42845307928139
Cl        9.86609613623530    1.51141095461847    5.97524293014310
Pd        9.29261651912792    6.33654436804056    8.66770271204449

