31
CSD_code = AREWOJ | q = 0 | S = 0 | Stoichiometry = C10H10N4O6Zn | MND = 6
Zn        1.17842514178692    3.48783619171156    0.00007040550965
O         2.70321596635845    5.05279120205393    0.54854720609970
O         0.07385948330917    3.72836510553773    1.55983329123015
O        -0.54170292703734    2.67797671362848    3.42870289416191
N         2.15124319939011    2.13251248691316    1.24765100221139
N         3.21640801793666    1.41814542883088    1.01819323557235
C         0.16569943694849    2.83756801119604    2.45340198472984
C         1.57225446922985    0.78687481611899    3.11893776013470
H         0.88747232985119    0.61449569288006    3.93505244001994
C         2.67163851152207   -0.00153707575351    2.85721315576012
C         3.47891590327222    0.37930796403948    1.78144865631726
H         4.37513442082866   -0.16535520541269    1.52162907724784
C         1.34498604302515    1.86406006365365    2.25980776842693
H         2.79181807955035    5.20825637923928    1.49378186965015
H         2.91349210337466   -0.86677764816788    3.45541638151910
H         3.52063887004724    4.64856846953546    0.23454679554986
O        -0.34728430871441    1.92355576944891   -0.54787961765551
H        -0.43760426212776    1.76851337298082   -1.49295288507306
H        -1.16400488499206    2.32793999530058   -0.23241196306781
O         2.28326785909094    3.24702053573858   -1.55932513269946
C         2.19157402223808    4.13757935939338   -2.45310893440622
O         2.89871866589397    4.29651942304733   -3.42873016427357
C         1.01230506806665    5.11119563317083   -2.25988701401918
N         0.20596765549522    4.84316194059849   -1.24768721111929
N        -0.85910425776501    5.55776722121768   -1.01849364115683
C        -1.12142966767848    6.59640425650007   -1.78208175599993
C        -0.31405092675855    6.97680136393742   -2.85792846162168
C         0.78521581444168    6.18812998343294   -3.11936866640302
H         1.47009727699160    6.36018264344999   -3.93546697395903
H        -0.55576298785122    7.84188565737035   -3.45641576721599
H        -2.01760411572465    7.14125424840856   -1.52249573547073

