40
CSD_code = AREYEC | q = 0 | S = 0 | Stoichiometry = C15H13N8O3V | MND = 5
V         6.45606812700770    6.20711453839472    8.28531086201662
O         6.19399353922091    4.86636410254106    9.50695840520433
O         7.32335480654349    7.15550383676088    9.11567877148694
O         5.10849591463411    6.81609280215052    7.87472457781158
N         3.80037915484803    5.31170574689379   10.26436789003702
N         4.39877220049697    3.18309706612652   10.94308577960149
N         3.95643499316359    2.13926028949296   11.63377169421943
N         6.09847687225208    3.43131965771635    7.76476045390643
N         6.64991378926448    4.51426759133278    7.19558995912817
N         8.20749543845917    7.57118710551349    4.08210221346328
N         7.29096162622350    6.80857226004737    6.57166047208065
N         6.68487291504676    3.58261008876098    5.02967734341192
H         6.46301226919252    3.80732119724747    4.07416486425767
H         6.19365695844415    2.79133947075866    5.42343435430819
C         3.56151485359904    6.58423809699770   10.52826550371061
H         3.38170371381383    7.20910372650309    9.66213868265963
C         3.53263374916070    7.09092401305157   11.82133460211135
H         3.34806344764930    8.13937770214507   11.99261491160311
C         3.73035069551231    6.21846961300908   12.88080688133914
H         3.68972928069580    6.57094433746252   13.90124870521171
C         3.99918352924014    4.88651519449194   12.61522581133203
H         4.17314495833310    4.16268236918457   13.39484726146835
C         4.05498001760915    4.50041937309339   11.28128947601920
C         4.38985976893020    1.05382947564862   11.01293052015196
C         5.13836917243063    1.40832612292976    9.87682963633139
H         5.63185931918046    0.75935755243250    9.18364061126914
C         5.12984968765745    2.79157523931548    9.85934498457418
C         5.82963643632410    3.75360577735090    9.02282485248270
C         6.85690995489162    4.60693544900497    5.92102044555866
C         7.34750848292882    5.92416939943367    5.55959419454578
C         7.83367971547882    6.33007222908241    4.30857353361197
H         7.92960442904617    5.63697487570822    3.48404524875230
C         8.13211053323473    8.43134629682624    5.08628510354765
H         8.43233383977376    9.44646681276730    4.87288595407488
C         7.68743673192927    8.04855969068578    6.35238059959992
H         7.63174523952596    8.72652003291380    7.19558406858388
C         4.08040398151214   -0.30928679543567   11.51759060212861
H         3.46367787185956   -0.23330668871023   12.40800782331127
H         4.99913543354922   -0.84074609122581   11.76133448774613
H         3.54848655133741   -0.88142955838543   10.75926785734817

