57
CSD_code = AREZIG | q = 1 | S = 0 | Stoichiometry = C22H28CoN2O4(1+) | MND = 6
C         3.02232606398762    2.26863609294769    5.21190595400693
C         4.08636025183063    3.09538771836738    5.64329120589672
C         4.60950833403290    2.98142000969580    6.90395783696141
C         4.11064882721497    2.03523440216369    7.80588495966910
C         3.09080537879935    1.21111748851122    7.41657844182347
C         2.52391798497012    1.30103344553641    6.12720925558384
C         1.49634356907860    0.39581824018962    5.76725768602452
C        -0.11155645773679   -0.70282403973625    4.39799446744058
C         0.33120597438068   -2.06993337227600    4.93238602402887
C        -1.44186848864735   -0.28607454629534    5.04100941231082
C        -0.26207005150458   -0.82773090708967    2.86970080802723
C         3.11029717219031    0.34404721352613    1.49238834049943
C         4.00189009427477   -0.72280017011976    1.23023269073755
C         4.74425742203237   -0.76301533558403    0.07991467769836
C         4.64891245560061    0.25734300014883   -0.87265430532514
C         3.80584405027922    1.30998237872020   -0.64470381589708
C         3.02243719413194    1.38454202529584    0.52690360261415
C         2.19648244400770    2.51719430047083    0.72621164598508
C         0.69033439345180    3.99732208920906    1.82510096450096
C         1.53493788859292    5.20665580188294    1.40705716521044
C        -0.56990423458986    3.90176263438972    0.95361099335806
C         0.31339422648546    4.18418820583670    3.30732653250880
H         4.46749698604186    3.82123670708476    4.94220057053256
H         5.41924642795020    3.62924494443629    7.20356475732491
H         4.53348974890603    1.95719424422671    8.79429288580307
H         2.70196039407455    0.46964254684213    8.09910615440523
H         1.22675553778049   -0.32094192232058    6.53998331504604
H         0.20432732922237   -2.14353229492048    6.00844979356176
H        -0.27262795622058   -2.84953859727023    4.47518859614608
H         1.37416352996971   -2.24886119441295    4.68400699416510
H        -1.80058460801669    0.66067662980613    4.63989706908045
H        -2.19477849773348   -1.05175547262916    4.87121039288515
H        -1.31619404657633   -0.16182272357233    6.11353296730532
H         0.62833392250856   -1.30705967562857    2.45945646417012
H        -1.14548433617467   -1.41602973959512    2.60893960267423
H         4.07215951080011   -1.50495655440891    1.96978813491651
H         5.41342444943911   -1.59241003788140   -0.09166350944836
H         5.24042785141538    0.21184590980578   -1.77258447556028
H         3.72878302989027    2.10949071566511   -1.36697969127722
H         2.24351593392296    3.26256688807077   -0.06482544954063
H         1.06759849895917    6.11751056844243    1.77225324109961
H         2.53140089898208    5.13276429887065    1.83493355340983
H         1.61688285991153    5.28855330603529    0.32724737728310
H        -1.20879129579725    3.07622300426995    1.26383698880328
H        -1.13476690889744    4.82891725804049    1.01087270950754
H        -0.29506727781758    3.73227912366876   -0.08430885603450
H         1.20832149586229    4.44375906226934    3.87528788498689
H        -0.43466518592792    4.97215865212118    3.42586552049411
N         0.88676182707483    0.35096661275693    4.63129114490611
N         1.43015075995503    2.72947990707104    1.74193640162903
O         2.55626380398518    2.47092709632903    4.02149794987239
O        -0.32646884958973    0.45557483251996    2.24888446045712
H        -1.23513233641625    0.77069886246373    2.33487412861710
O         2.41398918151730    0.28391395434183    2.58176844809777
O        -0.16250649703941    2.96613457896611    3.87841324427880
H        -1.09087955855715    2.87578432104876    3.62868436810340
Co        1.24468888372852    1.52915751169585    3.19373231863419

