74
CSD_code = ARIGIT | q = 0 | S = 0 | Stoichiometry = C19H46N4OSi3Zr | MND = 6
Zr        3.10327004438642    3.99243084369928    4.00430148998312
N         1.97477006673005    2.25668775851985    3.74355044075373
N         4.27337362415942    4.85808668953280    2.44916131435079
N         1.67041472679592    5.29665035489929    4.95257185269147
N         1.42370874245156    4.48175146017755    2.27291280570625
Si        3.26886273695803    1.11619791691917    3.72526912956503
Si        5.97509021348087    4.82877064016025    2.29911168149855
Si        0.86750386897422    4.64991642407295    6.29947704657014
C         0.79249243405597    2.20252501039691    2.93624294130889
H        -0.09899183083785    2.46372291148892    3.53489483219877
H         0.60458274706752    1.20355245117245    2.51096321467860
C         3.60136860543957    4.72258895733134    1.16939799870623
H         3.59908405501658    3.66893026026165    0.82732794331519
H         4.10549609429813    5.30412171731482    0.38064063495994
C         0.97877640075878    6.14299107212549    4.00965913280277
H         1.68816449349611    6.86811113728556    3.56917157987914
H         0.16823723578212    6.72645797976215    4.47595289556258
C         0.92221930248264    3.20352275160623    1.76267905739674
H         1.65855805314028    2.79547489334327    1.06433835814077
H        -0.03574900191737    3.33372335520527    1.23083202267022
C         2.15732567090953    5.22921545993784    1.25512577942850
H         2.19372566177377    6.28517866383960    1.54432590229828
H         1.66337229327291    5.15747657216041    0.27004457638888
C         0.36720432364215    5.28888468903839    2.88209156281542
H        -0.36465463351020    4.62139888358155    3.34099190281224
H        -0.14415854276134    5.91564907737864    2.13139644334199
C         4.51415457448254    2.27732706894289    4.55517711727349
H         5.48289418406424    2.25265820997265    4.04762469437285
H         4.70090632654283    2.01207684714040    5.60499284917126
C         3.80790903011937    0.62469778475480    1.93257128432980
H         4.60707588682690   -0.10897098926685    1.92517321012115
H         4.15757214094417    1.50274452360763    1.39387428982315
H         2.97563102528591    0.20204779491044    1.37576740527359
C         2.81754003506246   -0.55985639641893    4.57160172101738
H         3.65766283866288   -1.24669090289052    4.57438538931852
H         1.99218348128853   -1.05153617086139    4.06536570461754
H         2.51912623641125   -0.39815511135605    5.60254355217941
C         6.91915645359532    4.87578070007056    3.95929111990027
H         6.99340691514799    5.88453636941958    4.34656091021794
H         7.93184136081110    4.52304339837151    3.79591227102512
H         6.46098463656743    4.24148556944920    4.70934543471111
C         6.59909926095260    6.38320056393636    1.32943275165757
H         6.18716750599041    7.30498110203763    1.73159113639912
H         6.32319810314716    6.33618362027849    0.28041727865437
H         7.68021178808798    6.46337995371433    1.37180424306515
C         6.68724647535974    3.34175392223006    1.29927114721022
H         6.27241054958230    3.31587403058566    0.29512671522833
H         6.45155956593766    2.39365079160598    1.77393987057558
H         7.76683002721170    3.40055478119534    1.19902447660502
C         1.93365451632000    3.16527488948959    6.86810249136696
H         2.83524196036290    3.11041512216398    6.24834762801701
H         1.39011862763636    2.23642848188775    6.72781883707906
H         2.21166605649305    3.22551003691625    7.91636087666048
C         0.74444808631770    5.92803703175483    7.74956631866027
H         1.69676999846546    6.40240278033410    7.96992366802436
H         0.39565260797467    5.45755025612068    8.66281254243743
H         0.04182491497242    6.71929609695268    7.50695400614888
C        -0.95388458822068    4.04314508108483    6.11609873387997
H        -1.01618286917235    3.15756440086410    5.49008888583214
H        -1.58069911109164    4.81129576487117    5.67076902009803
H        -1.38906473072817    3.79209381012758    7.07834974074121
O         4.35991363937793    5.29555970969142    5.50031685750040
C         4.68750111010941    5.17160784108460    6.88100195409718
H         5.07501384835230    4.16417133881464    7.04969914296293
H         3.79016904523334    5.33507524122012    7.49327777697897
C         5.72225915090291    6.27203682698303    7.13346410694005
H         6.71619674483925    5.91523925602109    6.86819932111975
H         5.73278164151739    6.59237854972168    8.17267416848632
C         5.27769239176604    7.38732309106992    6.17553997389968
H         4.82040613188878    8.21609884745506    6.71344182238833
H         6.12056167394689    7.77724037765836    5.60851999517066
C         4.24781606714700    6.69906801561858    5.25891917619510
H         3.22865844470889    7.01917250500297    5.51711295207703
H         4.43736885292475    6.84872925459860    4.19131289083680

