94
CSD_code = ARIHOA | q = 0 | S = 0 | Stoichiometry = C39H51IrOP2 | MND = 6
Ir        2.80649300415624    2.30433526701959    4.99056884880001
P         3.44097788032256    1.16503895904854    2.94238411289333
P         1.33856446429337    3.24622882791193    6.62799058495050
C         0.90319249698086    2.03272447640469    4.12093641367000
C         0.71524320392865    1.04272342608723    3.15312437756090
C        -0.52568141755202    0.84983348669086    2.56030929361867
H        -0.65552874463887    0.07391888848552    1.81684881375572
C        -1.59881354448777    1.64720447062345    2.91467639170315
H        -2.56168267706937    1.50049803104397    2.44732947559688
C        -1.43556591674314    2.63102817334806    3.87423261936479
H        -2.27494221062806    3.25316377973729    4.15732366941993
C        -0.19996609294648    2.81770813226198    4.47849557487664
C         1.88711803960879    0.17288727832078    2.77689087284282
H         1.77462747330199   -0.25303065317764    1.77697051638949
H         1.96296958012634   -0.65354323120763    3.49394063845104
C        -0.01049587767458    3.86837299942629    5.54332221615349
H        -0.92973079428461    4.08322991268861    6.09027435229438
H         0.34080041256434    4.79798626257030    5.09098692066431
C         4.81617705021018   -0.16673562195001    2.97181783867350
C         6.16868040518204    0.50575220218209    2.73542372652230
H         6.97153314418839   -0.18352256141009    2.99561391493901
H         6.26305069020388    1.38741137143342    3.36909599577474
H         6.30782424576891    0.79538213645315    1.69784943880751
C         4.60875260109559   -1.33844034929150    2.00818203317477
H         4.73882498760123   -1.06563299552903    0.96899307192258
H         3.62633587355701   -1.78668366014493    2.13496570327455
H         5.35003877864623   -2.10489726920827    2.23459117320780
C         4.85141688302578   -0.75721912328656    4.38065197316008
H         3.89764535234057   -1.20492422430961    4.65262385530866
H         5.11928197016430    0.00826600853110    5.10171522466796
H         5.60806039411759   -1.53986103861764    4.43181536378011
C         3.52671847461137    2.03082477098430    1.24055388960598
C         4.54558341654014    3.16961345390725    1.29450890730756
H         4.63252000399382    3.62794387921592    0.30969285421616
H         5.53053976909463    2.82669230233373    1.59558850143647
H         4.22583341197661    3.93268396632413    1.99408957591209
C         3.86932006372093    1.11255524213596    0.06624941737699
H         3.23330330936822    0.23092802396547    0.04091851704068
H         4.91282323215497    0.81229678516025    0.06914294396180
H         3.69571553387631    1.66561686881672   -0.85716247802764
C         2.14493206736821    2.62194010204040    0.95298467137083
H         2.22130452829188    3.33300344479914    0.13119470684886
H         1.76054777329730    3.14845865175036    1.81743036045675
H         1.43032305611979    1.85396221361172    0.66756731167393
C         0.35174607984957    2.02223905238979    7.72874674251097
C         1.21493064592561    1.60404187556008    8.92149159010227
H         0.77769868910732    0.73094184240472    9.40551198991042
H         1.27702265844786    2.39508683608180    9.66424464980571
H         2.22192741042259    1.34363105237766    8.60755240034934
C        -0.98499812433001    2.57689487965665    8.23870092611280
H        -1.71763513157880    2.63079860921608    7.43710450417980
H        -0.90403512317774    3.54978582863177    8.70491742953892
H        -1.37587593024992    1.88509394012273    8.98484248185641
C        -0.01562976915771    0.77575678954240    6.91597860310134
H         0.85332570698334    0.26784923660869    6.51438195062420
H        -0.67005004669921    1.02558268966743    6.08499197274599
H        -0.54367253529219    0.07519016121248    7.56278183832716
C         1.89588285307758    4.72881673482416    7.69686553439521
C         3.23243842850250    4.34350380402141    8.33308909923722
H         3.93979528544459    4.03601698762681    7.56533264288514
H         3.12389813338490    3.53042660582664    9.04484216973273
H         3.65239904906082    5.19923600782081    8.85990260641040
C         0.92585106303127    5.20080774541652    8.77892350803349
H         1.33736404272315    6.10148405181484    9.23541674294577
H         0.79732285759074    4.46902395705678    9.57091731586086
H        -0.04214148695840    5.46358700743190    8.35695521439088
C         2.13620198878887    5.91235160120978    6.75735977236912
H         2.65634342288911    6.70158896469689    7.29861106891853
H         1.20079060054632    6.32703865885406    6.38686990192011
H         2.75595686571916    5.62399647252325    5.91450929785172
C         4.77984213027726    2.80687557618329    5.65282171110741
C         5.22319237834416    4.02663204709864    5.08395166328462
C         4.29165933873223    4.75397380151741    4.28027567681966
C         3.00278517403939    4.18421376859637    4.08841405271253
C         2.12282554752441    4.93996694179612    3.33010292963559
H         1.11944449881133    4.58782919004713    3.12707914747906
C         2.47323749334032    6.17851710616436    2.77947890940052
H         1.73805861122699    6.71783895951244    2.19660337542776
C         3.72440804315812    6.70485079930346    2.96564086038187
H         3.99596751545936    7.65928918391153    2.53615210304044
C         4.66589168727446    5.99541695090734    3.72608359937012
C         5.98351006944160    6.48324559508647    3.95836063141802
H         6.25891210469830    7.43143916098069    3.51578150096394
C         6.86787177030742    5.78869600497564    4.71248808177873
H         7.86525886501398    6.17080235388422    4.88606507711721
C         6.51318441304228    4.54609162504917    5.31107020097265
C         7.39388046448074    3.82465975150594    6.12997952672438
H         8.39027547041701    4.20616325788184    6.30740954504315
C         6.97440466057748    2.65501360322961    6.70762793929143
H         7.64037465518928    2.10033120249655    7.35555159402310
C         5.68619905726426    2.15878109376379    6.47489122417411
H         5.42127167405901    1.24201015192987    6.98749526911572
O         3.26524629049987    0.02370417721159    6.91335075737870
C         2.98007415699015    0.75396323721011    6.06577848379653

