59
CSD_code = ARINOG | q = 0 | S = 0 | Stoichiometry = C20H28B2FeN8 | MND = 4
Fe       12.75052680306099    5.63841789215572   15.31384577371140
C        12.32114349413448    6.79681942888008   16.86208936641789
N        13.31522652732484    5.12660407995936   12.47694324878592
N        10.27900867476068    4.77796940989531   16.72074897722354
N        11.05832534486958    7.01884152583475   17.26882623250694
C        14.26433467321313    6.61942687904399   14.63465391216813
N        14.60733392198799    6.98153418515256   13.39865332796138
C        13.06192562238521    4.57039419506892   13.67566146627852
N        13.10030579146503    7.62756720618727   17.60964323948685
N        15.30395936260172    6.95956332100904   15.43721136537608
C        11.45224966496164    4.49017600076392   16.15671936726405
C         9.73089306732759    3.64866099789714   17.24663311453684
H         8.78480010794132    3.64703022254180   17.74714109597309
C        11.03766562494095    7.97578890739615   18.23270733912765
H        10.13158130140491    8.31132743384088   18.69096725591411
C        12.31286332455239    8.36667054232771   18.45931186729531
H        12.72254915708292    9.08709033386238   19.13820006259401
C        13.27846330345422    4.17810524650235   11.50460355740167
H        13.44223273212562    4.40497104700230   10.47274924198942
C        15.83620683881034    7.56705194938725   13.41325625856601
H        16.30746812714080    7.93946185041100   12.52759791346877
C        16.28612401995514    7.56610742287133   14.69305081544097
H        17.20042918139239    7.92358643245005   15.12249930809693
C        10.58468643638748    2.62019580378358   17.01185040504119
H        10.52810906452611    1.58085046772163   17.26616789112218
C        13.01556089542818    2.98810247300511   12.09063088395405
H        12.91362804900667    2.00399836326399   11.67955625273455
N        11.65654037121154    3.16445100532768   16.34722725219404
N        12.88948220121249    3.23871482380083   13.43560390528342
B        13.65132488311791    6.63601720767338   12.23125349852644
B         9.81514006297711    6.25527850603439   16.70930321633131
C        14.37651717533998    6.85845943446092   10.79688271371655
H        14.70050795063941    7.89128393283474   10.68426233567164
H        13.70217604868453    6.66112675363866    9.96637937539494
H        15.25533165942325    6.22762037869025   10.66283787046683
C         8.50017275136180    6.47564094126417   17.63005790174062
H         7.67089808944874    5.86915563831180   17.27132039957490
H         8.15711039749861    7.50761202347646   17.60475375422565
H         8.66522483839371    6.21094595173314   18.67434471734870
C        12.29481824662803    7.50511253175292   12.44725487057683
H        11.97929192794200    7.40321084300138   13.49381536532312
H        11.47650985033869    7.17168306141368   11.81361521385808
H        12.44552860173286    8.56433357863708   12.25143513580064
C         9.64823862007785    6.67700644143805   15.14691691302224
H        10.57621995169022    6.39590585112892   14.61665236742902
H         9.49124613131464    7.74433306831784   15.01135912609348
H         8.82332428270969    6.16270940910442   14.65939176126405
C        14.53112344770476    7.80970059598744   17.60698462786453
H        14.86860103992676    7.82881383784015   18.65050513217587
H        14.76961180954279    8.78304258913423   17.15773882708319
C        15.30499374386636    6.72576683020576   16.85170269786764
H        14.83541165451888    5.74761849030833   17.04449096901744
H        16.33773823357258    6.70810527474229   17.21063578172229
C        12.80246423193122    2.48151830308838   15.82370477379725
H        13.68172883098376    3.13381434879938   15.94256826125512
H        12.95890406682750    1.55563518589272   16.38385062911045
C        12.62335339381677    2.14621421542110   14.34061818676893
H        11.59367766816121    1.79623902554686   14.18734852272420
H        13.30028672515984    1.32411630277446   14.07746435633040

