130
CSD_code = ARIREA | q = 0 | S = 0 | Stoichiometry = C53H71FeN3Si2 | MND = 7
C        -4.10488144468770    3.09903127737892   17.88524667590461
C        -4.21760631761984    3.51639972355928   16.46857694505943
C        -3.91547231471741    2.62941590425073   15.43711761836057
H        -3.52134140647073    1.65637292352834   15.69158246246962
C        -4.10594496443114    2.97956445456832   14.11452378709465
H        -3.87787130671864    2.27034031511839   13.32936554926462
C        -4.60008378959213    4.23310323775100   13.78821967333390
H        -4.74999305881374    4.50843476678432   12.75410405853827
C        -4.90267865468050    5.12664113062698   14.80169074418008
H        -5.29218352859647    6.10571846504227   14.56022735552877
C        -4.72091717303079    4.77122362185961   16.12555314395670
H        -4.97801108978193    5.47255023598725   16.90659022650062
C        -6.27139077111144    1.06027408413749   16.87114877712392
H        -7.21307571725489    0.57936545527647   17.11776718852004
H        -5.57242698444930    0.28186621435755   16.58384963842393
H        -6.44014399785162    1.68840112493603   16.00328024192173
C        -7.00241140452705    3.34216214382630   18.81713190333536
H        -7.20189385937012    4.01079498181989   17.98468809803084
H        -6.70791542437253    3.95349448423269   19.66549815186164
H        -7.93481887820077    2.84811439535167   19.07428071024074
C        -5.47800876299845    0.82943828282638   19.80825306085124
H        -5.91084062682132    1.22839493604674   20.72043694523435
H        -4.44477367548812    0.57661975855400   20.01673694232862
H        -6.00763838121330   -0.09056285104239   19.57935978238362
C        -3.60378433146188    4.04705125441103   18.83897651451134
C        -3.50715794525867    3.62836945969042   20.20034172050521
H        -4.23941553776378    2.92874392633755   20.58178765752206
C        -3.03080421099152    4.60274842566587   21.16223918656146
H        -3.26639275435098    4.43252224816312   22.20579817803454
C        -2.37172632580025    5.70243033632691   20.79032566319219
H        -2.06995345044031    6.44601702294501   21.51475816835165
C        -1.91385896970318    5.90383931176537   19.37588737226001
H        -0.82614535223853    5.74692365196232   19.39582216564152
C        -2.51043048187088    4.86876735373871   18.43687594888408
H        -2.51237792965420    5.20053439382131   17.40285175307964
C        -2.07481900005365    7.36980972918380   18.85213134828554
C        -3.50581238857259    7.78217485118107   18.60667858199033
C        -4.60847548644715    7.03970915878461   19.00877811595941
H        -4.47840665130589    6.11962406987019   19.55084380244185
C        -5.89776833484033    7.47246641156153   18.74071713697588
H        -6.73634896638549    6.86761540197489   19.05648550996834
C        -6.11641151215787    8.66689563545715   18.08085578562843
H        -7.12185374027383    9.00102686692132   17.86963418487258
C        -5.02791282649162    9.43904315768484   17.70875258943640
H        -5.18076824839665   10.38711493152373   17.21224625602910
C        -3.74479191612565    9.00075896745220   17.97064018199747
H        -2.90698436701439    9.62314673826578   17.69355569953609
C        -1.46241104798982    8.27099229390040   19.90423014781037
C        -0.08585663274918    8.27069758079605   20.11588663229252
H         0.55004668406623    7.67446139282047   19.48047258192144
C         0.49097290332025    9.02563414924423   21.11985987195824
H         1.56278936083651    9.00207711649085   21.25941176695800
C        -0.29838021574298    9.81119875453964   21.94200003022940
H         0.14887975319933   10.40278292061838   22.72732594553861
C        -1.66756102217800    9.82647538838881   21.74442468122801
H        -2.29856980083406   10.43133350023156   22.37999477798274
C        -2.24165173082284    9.06313342091280   20.74290324373836
H        -3.31462392087836    9.07949182785271   20.62398918936491
C         0.33618930048409    6.23415413524997   17.05557430398560
H        -0.02335095271300    5.21849939281637   17.19347796485905
H         1.12323570432602    6.40373164971176   17.78387127980575
H         0.80042392944262    6.29369296944578   16.07502313141768
C        -2.17079527544511    7.29637331594736   15.62331054754281
H        -3.09231901592653    7.86477156986396   15.69372959370237
H        -2.44346498902750    6.26027388922082   15.45214100269530
H        -1.63899506960208    7.64133165897664   14.74131795190201
C        -0.27221811936274    9.26159926552707   17.01131366182817
H        -0.84081327917153    9.89161908070934   16.33435318121001
H         0.73127860854832    9.18155504135943   16.60497535724864
H        -0.19754495693128    9.78134876567019   17.96111075456385
C        -2.15407028263425    0.98795101587582   18.99183234511324
C        -1.19440415855277    2.68746854924511   17.11372930742369
C        -0.62898012466044    3.08170439561101   19.77243650071054
C        -2.09249617894847   -1.56597577275050   18.92849044700052
H        -2.29368946367542   -2.04867393406317   19.89551166052446
C        -3.17164105544266   -1.97454190686347   17.91501100945831
H        -3.19584923263991   -3.06476415852629   17.85468933658874
H        -4.14532453409930   -1.62640605260726   18.26470081751813
C        -2.86895692161743   -1.38168159378906   16.54302044756865
H        -3.63884336175703   -1.68771630910456   15.83165339565500
H        -2.88439752058823   -0.29163302566193   16.61913939285383
C        -1.49396037360399   -1.82975751364449   16.05883762804989
H        -1.29129026213031   -1.40613547329580   15.07358652261938
H        -1.47501099154672   -2.91884517226061   15.96432525651089
C        -0.42358738519294   -1.38439490759438   17.05094757819183
H        -0.42637010972567   -0.29312897616472   17.12597171629023
H         0.56417767563504   -1.70075886834506   16.70891290669658
C        -0.69992840918911   -1.97753970696409   18.42937276218499
H        -0.65825258798894   -3.06788792224310   18.38142067762715
H         0.05442346714416   -1.63561792580467   19.14086432323447
C        -0.08748907129844    2.75817367476384   14.79463726944923
H         1.00198361706207    2.86449421684007   14.90262538847416
C        -0.39768152541773    1.45891871328106   14.04297564334034
H        -1.48094627690694    1.32874830243446   14.00767036973917
H         0.02952823406362    0.61466120016319   14.58841218097316
C         0.16527103409422    1.51465791000010   12.62668130953926
H         1.25458394145839    1.59218809950496   12.67093380572456
H        -0.08177106681113    0.59133424299396   12.09877112628369
C        -0.39765394842036    2.71550649491316   11.87252826871146
H        -1.48119701607415    2.61345008433637   11.78406983554784
H         0.02027491478893    2.75062213340134   10.86450229404413
C        -0.07421393158616    4.00675688278243   12.61745964538264
H        -0.49248670121665    4.86155140027074   12.08313479359844
H         1.01009868783425    4.13801505175662   12.66291785683820
C        -0.64399170779864    3.96514331355227   14.03117170796441
H        -0.39656005456881    4.88173144224206   14.56824639717815
H        -1.73210787799641    3.88295850011391   13.99168807303914
C         1.12111975024150    3.80253909114294   21.50453884201500
H         1.90231371340096    3.03904421773581   21.63043245823493
C         0.37040817046144    3.99476352556416   22.82731779354699
H        -0.06873917302669    3.04420711735120   23.13704989787726
H        -0.44482298742338    4.70197811924764   22.66089932039976
C         1.31365527385881    4.52444828078019   23.90245066913756
H         2.09690298819935    3.78693918641434   24.09649304026328
H         0.75959150585379    4.67475296674961   24.83077678013408
C         1.95256281840427    5.83685861124821   23.45771307567186
H         1.17411727426474    6.58967705725138   23.31351293919825
H         2.63339412462843    6.19958458447026   24.23030715794934
C         2.70847319175038    5.63854398216652   22.14761201693344
H         3.52023109938906    4.92215589425814   22.29798389973469
H         3.15166296461457    6.58254751812490   21.82505215775153
C         1.76280400976833    5.12410933002251   21.06827550279433
H         0.96854279650379    5.85505519185752   20.90599705226663
H         2.29623172976241    4.97854841242268   20.12589548132179
Fe       -2.05660041879969    2.77719169787696   18.70718288401438
N        -2.13417813995795   -0.17866723238422   19.12820514409845
N        -0.63962320895822    2.70836873910695   16.08153841129824
N         0.23434871057583    3.35220049775337   20.51709727800943
Si       -5.63951263415696    2.07405862241678   18.36056950571363
Si       -1.07390895374661    7.52569673246068   17.17010789220963

