70
CSD_code = ARITEA | q = 0 | S = 0 | Stoichiometry = C34H29N2O3PPd | MND = 4
Pd       -0.16621099319315    1.45187420762337    3.30800317602712
P        -0.20870910827425    3.41904552180749    2.24537846390791
O        -5.23219575373908    1.46577038130384    1.30807905976548
O         1.86889668199960    1.39968730457698    4.11397438369566
O        -3.55348500063606   -2.40882783197933    3.72073114061068
N        -0.08907768134033   -0.28715539328294    4.18598656642034
N         1.04365898732855   -0.63967838096224    4.80473241346612
C        -2.04333032933690    0.82321352449175    2.88619676595825
C        -3.07753796521862    1.42861551324429    2.20738744583946
H        -2.99262740787677    2.43118334397785    1.80794851997701
C        -4.29362857148459    0.76207806270554    2.00406437672956
C        -4.48407580600653   -0.52271624821060    2.49399129854593
H        -5.41985931979421   -1.03180816401632    2.33492887477564
C        -3.45993428531212   -1.15311171394302    3.19559061771238
C        -2.24181484482617   -0.48781136739054    3.39147948136054
C        -1.12368011328524   -1.05497140123199    4.10313607141574
H        -1.13987731427613   -2.04699502855358    4.54201066155338
C         1.98840089721557    0.28537492078063    4.71640675182895
C         3.27563593643830   -0.02832660270390    5.37539496514384
C         3.44290630742017   -1.19745848502690    6.11255318685845
H         2.61383978284496   -1.88225600901256    6.19587911383937
C         4.65492651505415   -1.46161878841179    6.72098935966840
H         4.78410102629299   -2.36872991142568    7.29397959631337
C         5.70683690618770   -0.56665232011373    6.59918224532216
H         6.65315456079213   -0.77716899256098    7.07678447433521
C         5.54505145943457    0.59741189123410    5.86540105195976
H         6.36572456961734    1.29417372128236    5.76972688248510
C         4.33491253474594    0.86754603991943    5.25587497381629
H         4.18947006444597    1.76875026656383    4.67770910470022
C        -6.47357743650030    0.86310628141349    1.04058361699092
H        -6.35988766182086   -0.04468194373962    0.43849151574656
H        -7.04303898553407    1.59871436655034    0.47439797235827
H        -7.01373300965443    0.62276713380670    1.96255661271860
C        -4.75205187344194   -3.12543166660438    3.56275153785429
H        -5.59618309571359   -2.60987678271429    4.03292674865344
H        -4.59218295701688   -4.07927740215473    4.06351015654804
H        -4.97821267632671   -3.30761778495328    2.50675275089806
C        -0.73665383471672    3.17091014301802    0.52241937916999
C        -1.46736729694649    4.05670257686720   -0.25735662225124
H        -1.78476734205083    5.00555214874130    0.15047336738913
C        -1.80684980257202    3.70837048660135   -1.55408866774662
H        -2.37971141113970    4.39450598471213   -2.16087388221854
C        -1.41914698761412    2.48452557365079   -2.07298054621783
H        -1.68775128973865    2.22016550252270   -3.08512581064747
C        -0.69812762993736    1.59221364934673   -1.29315660268537
H        -0.40868436454845    0.63329683524567   -1.69684250369549
C        -0.36379154108673    1.93152746195848    0.00315526135602
H         0.18109838062875    1.23281484652755    0.64909292781242
C        -1.27751526636516    4.68373771212859    2.99907281510378
C        -1.31015669648588    6.01349087009704    2.59300365025003
H        -0.67557012395767    6.34658852208907    1.78306233582061
C        -2.13871429619423    6.90932952003089    3.24461859765408
H        -2.17053534156151    7.94168858131807    2.92757696187683
C        -2.92062548925731    6.48803798939898    4.30874173456142
H        -3.56473527953409    7.19283357356026    4.81367452406978
C        -2.86585129540871    5.17085530416764    4.73653399690212
H        -3.46160960309877    4.85095232559597    5.57852998902051
C        -2.04302580166857    4.26964636058985    4.08591880778328
H        -1.97333135149223    3.22810093971637    4.40987971503816
C         1.34827188040872    4.35245022127684    2.07463439457669
C         1.79960187054927    4.91812521792323    0.88876010685067
H         1.22153613744825    4.80945401187180   -0.01886943356443
C         2.99830770352912    5.61106369033263    0.87313807190077
H         3.35195224653151    6.04926082767985   -0.04912866216198
C         3.74590716823993    5.73927203993772    2.03175609663901
H         4.68280434352357    6.27655602270749    2.01086735969326
C         3.29968982315755    5.17022892197231    3.21519831575765
H         3.88950673649489    5.26294707104851    4.11546622969939
C         2.10504438227452    4.47741412505644    3.23721649307414
H         1.75089733338539    4.00384067988261    4.14625966335186

