38
CSD_code = ARITUS | q = 0 | S = 0 | Stoichiometry = C17H16ClN3Ni | MND = 4
Ni       11.60338424924770    3.46165662489537    9.37210859221293
Cl       13.03363919627052    2.88841529025049   10.73260740667407
N        10.32448251831557    4.05335210809469    8.15828595037994
N        12.71274516553950    3.23701603259340    7.83634621210812
N        10.20056623117888    3.80123719731487   10.76075531448793
C        10.80132596137050    4.28841092997735    6.91045173673223
C        10.23470066045684    4.98322995923928    5.84357225612525
H         9.28909962819439    5.48656428036413    5.95107323835689
C        10.90936654074513    5.08023195748396    4.62864865856467
H        10.43342366547959    5.61925150383126    3.82189920430639
C        12.14623724352905    4.51717029787792    4.42472896065769
H        12.64164067879964    4.59095551865449    3.46929035162074
C        12.79731850356774    3.86721522021229    5.48794029562242
C        14.09134618071264    3.31433303113711    5.41100466589406
H        14.63066833523531    3.35551028964545    4.47575000484376
C        14.64312007653933    2.74255724627188    6.52636423356812
H        15.63043467074239    2.30876057505232    6.50310577202305
C        13.92745263411675    2.72834435209689    7.72919540291584
H        14.37009980910101    2.30159988305017    8.61938269878129
C        12.13000935884377    3.78140514025599    6.73417688403271
C         9.06303835168367    4.25456222253952    8.65163173470703
C         7.87970979622132    4.45364329108428    7.92659323087900
H         7.88285195555199    4.39656356506390    6.85131285263849
C         6.68897353092780    4.66973694467075    8.59003451723115
H         5.78718768152723    4.82594717446057    8.01613302515657
C         6.63304010322152    4.68366205310643    9.97391839384883
H         5.70001224524883    4.87146191236443   10.48185016399045
C         7.77827981588133    4.41527639819150   10.70774042320225
H         7.71710778298704    4.38184699063741   11.78561608589809
C         8.97166221767869    4.17948443593654   10.05587203125574
C        10.60137806228199    4.87881237107438   11.67986338353216
H        10.75598426695149    5.79887893851567   11.11447033081519
H        11.53164302951985    4.60554003030930   12.17792820464019
H         9.83051701605494    5.05387469692027   12.43671551099453
C         9.95075070811180    2.56722265791544   11.52741175983070
H         9.17878672677326    2.72771605352626   12.28593066882681
H        10.87009525572972    2.24988597465923   12.01922928705738
H         9.61942014566424    1.78056685072640   10.84766055558444

