127
CSD_code = ARIWIH | q = 0 | S = 0 | Stoichiometry = C66H57O2PW | MND = 9
W         2.49782710816327    2.06262852043941    5.66079355798489
P         1.55864013246789    0.08706212598784    4.53628081534929
O         1.55690725280105    3.00577925641437    3.89199256338571
O         3.75153252480138    0.57300829083175    6.41999467410840
C         1.21850765321825    4.26362995786654    3.92078989213045
C         1.34409371304069    4.97870251714795    5.14328455636470
C         1.25051215242514    6.36467361191522    5.19370251684595
C         0.94461758591682    7.04553331133189    4.02288629462685
C         0.62961883759909    6.35593857778300    2.85486741587530
C         0.71417549903956    4.96163226526247    2.79369611817184
C         4.94590494940162    1.01800147011890    6.75951019313716
C         5.67812845312153    0.38701983712847    7.78349016760733
C         6.88836312528642    0.94503030093477    8.20239249850968
C         7.37378283594020    2.08704067066333    7.57759185263226
C         6.68060909889855    2.70406185478672    6.54060458676632
C         5.44138978078863    2.19460897532892    6.15197736819523
C         1.59170212226673    4.06685077398562    6.26239481540449
C         0.62556894703411    2.96896461797132    6.39808646663498
C         0.81236645549673    2.00676169199243    7.42447666688153
C         2.02988936857824    1.93874702474914    8.07967093114872
C         3.01901241973667    2.95041929118524    7.85698945522229
C         2.71479524383834    4.08185193549023    7.08525599524113
C         1.45746082666891    7.08747600783744    6.45837140154044
C         0.82830743171094    6.67533000003167    7.63055229077831
C         1.03452972398463    7.35575552662329    8.81594129935420
C         1.87420643285147    8.45673069090180    8.85045847848798
C         2.50126541474535    8.87737998527195    7.68957711075966
C         2.29297021911737    8.20033594599558    6.50212270528744
C         0.27246421694785    7.14185694867618    1.65987746403163
C        -0.65575083015162    8.17606587389536    1.74095014251566
C        -0.97214500164771    8.92792516552233    0.62439757589500
C        -0.35917313311569    8.66401238636694   -0.58848451533603
C         0.57501148371732    7.64513199515387   -0.67694896596021
C         0.88930182269847    6.89056910497537    0.43683372776656
C         0.18757781273844    4.21859127609360    1.63751314436132
C        -1.07312969367900    4.54104058770555    1.13363929553309
C        -1.61061020757119    3.83978255522160    0.07224609752417
C        -0.90497335835989    2.79603447205847   -0.50393773200392
C         0.33831940397755    2.45586152689172   -0.00003655999839
C         0.87911764655196    3.15722602229155    1.06250540303602
C         5.07979739591500   -0.78353586740237    8.44903163035104
C         4.68728349182048   -1.89209918600889    7.70620247195193
C         4.10132307926257   -2.98077094868136    8.32445911418858
C         3.89197243697177   -2.97452549960516    9.69296795954105
C         4.27238694473932   -1.87201645074415   10.44002027809635
C         4.86050539709006   -0.78367920695641    9.82385014797369
C         7.67707402622514    0.32646237244350    9.28159083565613
C         7.96072967042402   -1.03642850170986    9.27581350133097
C         8.70525773577029   -1.60214362822767   10.29330228201112
C         9.17784738564863   -0.81756992258468   11.33224781047712
C         8.90904094286663    0.54047304504829   11.34273148584351
C         8.16792007629193    1.10873543566840   10.32332591752585
C         7.31838684354005    3.84034183709824    5.85062856493853
C         7.78840305012312    4.93453610368349    6.56930671852492
C         8.41223719971915    5.98531083935953    5.92124553036239
C         8.58424218611678    5.95042844016141    4.54815818554932
C         8.13336660871802    4.85723322537351    3.82651675912275
C         7.50539561015772    3.80891033169747    4.47096269808929
C         4.58310518419299    2.77663139540208    5.09220596235447
C         4.62764642561116    4.17161199048533    4.78946889490721
C         4.28787680932872    4.65172954923298    3.56245348454674
C         4.00851772210045    3.75931059027899    2.50570067050665
C         4.00029269186067    2.41676411907108    2.72897769698170
C         4.17637993722163    1.86579429535857    4.03517929407321
C         0.42466684989523   -0.84137927961344    5.67112164995158
C         1.17156102540624   -1.42984196651336    6.86343969228039
C         2.64921618430249   -1.33621164011021    4.04237107461112
C         3.19165578535836   -1.30047699574275    2.61816680055393
C         0.47459794521904    0.23936785333963    3.05280680293629
C        -0.79400243225049    1.04005762273221    3.30636705505687
H         0.90207128573826    8.12433943128831    4.02883665617993
H         8.33866230899842    2.47689923330602    7.86724393740545
H        -0.36095322074593    3.10275947589325    5.95647664639602
H         0.00631298839268    1.33416882141754    7.69536569938955
H         2.21469128214112    1.18206197835326    8.83587096519124
H         3.90840588444280    2.94968535265571    8.47837710147960
H         3.37424214042225    4.94055745726615    7.08852159802654
H         0.15971087241133    5.82647391525928    7.60590259893968
H         0.53615215964856    7.02797174677429    9.71721280806037
H         2.03662880304355    8.98624467116783    9.77783596063821
H         3.15655072947084    9.73633327033335    7.71052198494240
H         2.79187400114468    8.52242624527643    5.59951205399409
H        -1.14528978082015    8.37701569749675    2.68365862755710
H        -1.70088307870630    9.72249108498488    0.70033278585627
H        -0.60671069789711    9.25136665311746   -1.46069256339768
H         1.06186941443761    7.43946779599641   -1.61944096409732
H         1.62442727669887    6.10254241946782    0.36772823566194
H        -1.63813640975687    5.34293416315269    1.58607466723019
H        -2.58720854664236    4.10600223688641   -0.30658794174382
H        -1.32477833500604    2.24979777701268   -1.33648499519593
H         0.89298158794685    1.63930069667497   -0.44239586069649
H         1.84362377674504    2.89164822290433    1.45858241245054
H         4.86038165918894   -1.89874705523755    6.64002544585924
H         3.81139729299826   -3.84184555649076    7.73861711612350
H         3.43551125488927   -3.82597143706870   10.17651754488034
H         4.10973979905634   -1.86079386749827   11.50841302498321
H         5.15293637407560    0.07693829660236   10.40891467155595
H         7.60302768164192   -1.65012218389110    8.46246110502128
H         8.91904291726589   -2.66109948058642   10.27596590326811
H         9.75570118024333   -1.26219151800220   12.12925752005476
H         9.27693534401393    1.15860270402356   12.14932787047390
H         7.95013746282760    2.16750192497399   10.33911801822162
H         7.64824681202207    4.96597473582201    7.64098602513716
H         8.76543469422066    6.83390019200152    6.48966688132914
H         9.07141524449797    6.77118245850114    4.04234978368688
H         8.27243749117740    4.82180350926806    2.75584543187078
H         7.16064452569987    2.95416942399280    3.90809841683754
H         4.98227816877370    4.85588756750440    5.54830621162165
H         4.29924945695085    5.71408320725761    3.37016573639076
H         3.86202825720573    4.15755489913106    1.51257151260594
H         3.88676337092449    1.73564691973391    1.89368268055878
H         4.61010423197340    0.86110277638025    4.06961149183399
H        -0.33896059102721   -0.13839807811951    6.00958319702279
H        -0.07936486028395   -1.62947103750207    5.10319906272078
H         1.68178198611371   -2.34798726890523    6.58705682338473
H         0.48857770507873   -1.65913309657931    7.67929681835950
H         1.92764619927875   -0.73164000381148    7.22018675013264
H         3.47288173791733   -1.33938882041227    4.76030452194360
H         2.07326209175422   -2.25538632447702    4.18148302198754
H         2.39158293246816   -1.41296324967077    1.89090409727636
H         3.89458110359144   -2.11983806042767    2.47404993460314
H         3.70928354986895   -0.36898381008484    2.41611134490511
H         1.06040058334480    0.74487990267031    2.28417809655799
H         0.22627627599268   -0.77023337162802    2.71079279271994
H        -1.44996601262445    0.53888568756053    4.01424810620297
H        -1.33667333273241    1.18080512367532    2.37373379921071
H        -0.52984671096190    2.02101364119000    3.69078809025008

