145
CSD_code = ARIWON | q = 0 | S = 0 | Stoichiometry = C72H69O2PW | MND = 9
W         1.31205201454356    1.61391132110718    3.94557635355575
P         0.50350252401414    0.00743751400922    5.62134821695264
O         0.34234941046946    3.07421881286141    5.24136171872968
O         2.58686494421679   -0.07223994375989    3.88377007169615
C         0.14717527095249    4.28284296788687    4.78879977734067
C         0.29767480437142    4.53450011674890    3.39681630092816
C         0.29545404486098    5.83139088724429    2.89447390583056
C         0.06771959752229    6.88296933713603    3.77317815333394
C        -0.19153290447590    6.65738248336122    5.12339769230141
C        -0.15427015083267    5.36563304984840    5.64975752084925
C         3.81539857554482    0.14513122365714    3.46456544543463
C         4.32220568155942    1.46272641299589    3.48726640871360
C         5.59757574243212    1.71742215737713    2.98127093155728
C         6.31988492677031    0.67687545218711    2.40472151337691
C         5.83559482445103   -0.62547751704055    2.38035691172457
C         4.58482869834906   -0.90840672569292    2.93224141755099
C         0.46839472149466    3.27841523898769    2.66001086536680
C        -0.59499140439607    2.29724304463621    2.90266240725424
C        -0.49173978183220    0.98813136163629    2.42500761046744
C         0.74059147956269    0.54688318325028    1.93774907763222
C         1.75952680028972    1.52153583795613    1.63188123881239
C         1.54047431962662    2.88763669312118    1.85118923671678
C         0.51236409714297    6.08120067420530    1.46105529767948
C        -0.16633783368306    5.34548877018697    0.49286102404958
C         0.04959686694262    5.58407233436629   -0.85143927620592
C         0.94921835634592    6.55858032897306   -1.25059766532687
C         1.62733840297611    7.29789798145132   -0.29595778125347
C         1.40897552742075    7.06337600675359    1.04893688748819
C        -0.53204889137843    7.81241868478238    5.97334744223753
C         0.26239449235573    8.95523587824532    5.96153408775370
C        -0.06091778415340   10.04608616840619    6.74740234052180
C        -1.18832472480628   10.01455841562822    7.55026605304772
C        -1.99161388503002    8.88614443165030    7.56063941378244
C        -1.66719701451627    7.79348940503221    6.77946935129353
C        -0.32270406821313    5.07630482644269    7.08199033462647
C         0.35185562615424    5.80141327592462    8.06144085162348
C         0.23077775857440    5.46287236536456    9.39582803419242
C        -0.56398383908407    4.39501815923228    9.77780863991459
C        -1.24894239462494    3.67496832998444    8.81367483446454
C        -1.13070168040155    4.01418169388124    7.47922703143429
C         3.44987708707444    2.47229688151814    4.13449154579467
C         3.54974232407099    3.84600436641638    3.75791507207095
C         3.20721903191756    4.85200376291618    4.60675020248202
C         2.84701616862670    4.55784204827407    5.93799320098944
C         2.78756500561504    3.26648981853002    6.36262126339456
C         2.99906192242437    2.16267744627306    5.47930340376973
C         6.25294053106387    3.03369615668385    3.09553428709960
C         6.79039092664736    3.65733359717483    1.97440847563557
C         7.43566665715736    4.87541142914069    2.08925493586116
C         7.56219993730890    5.47979039564171    3.32815131375615
C         7.04392259777329    4.85791981431294    4.45233237831743
C         6.39443202298234    3.64373829128621    4.33932888113979
C         6.67248105539655   -1.69159695051757    1.80315457608028
C         7.24614290983942   -1.52621607059658    0.54569695143396
C         8.03370121269719   -2.51978915820711   -0.00586252953926
C         8.26666047248780   -3.69089948546686    0.69477362911828
C         7.71206002779946   -3.85913208905091    1.95270666311048
C         6.92151821190355   -2.86865156164432    2.50368204023204
C         4.00311572429965   -2.26184950560592    2.91686808451881
C         3.88174022065310   -2.97943336291509    1.73018379451129
C         3.32251061615415   -4.24356704147562    1.72858987425203
C         2.87565796682387   -4.81069262498064    2.91070332052749
C         2.98661133343317   -4.10210670492181    4.09536793308649
C         3.54071051248386   -2.83532806148940    4.09798475294376
C        -1.07819215926599    0.30972182776713    6.52319992942234
C        -2.28605494168479    0.47733974436370    5.61135425267718
C        -3.56945949897304    0.79118092797415    6.38427533680150
C        -4.06168925525059   -0.38191086053881    7.22451056003248
C         0.17798654046192   -1.58183279156905    4.72588515140610
C        -0.33995901928624   -2.77942176476610    5.51807230068670
C        -0.71294542843767   -3.92201045063326    4.57268871998593
C        -1.14059666220979   -5.16994463095004    5.33560268478504
C         1.54246130211282   -0.54844972882213    7.04906596109035
C         1.48088656425245    0.45763695195360    8.20095107805437
C         2.72698753204172    0.42315641329574    9.08334972394223
C         2.59996700034329    1.38953936783089   10.25518434340045
H         0.02304538652958    7.89174088739320    3.39001996405439
H         7.31148124080583    0.87648943712464    2.02535958555812
H        -1.54826992102851    2.67988451663895    3.26286166973192
H        -1.34669690180575    0.32133499917179    2.46825921957068
H         0.87133569115137   -0.47553966724096    1.59800357713433
H         2.61704927071379    1.20368320626949    1.04659150959485
H         2.23712710883565    3.62346116930566    1.47068589355020
H        -0.88083618362827    4.59446911089292    0.79863469619706
H        -0.48822421113360    5.00952999557808   -1.59223391496133
H         1.11876832139373    6.74273066303015   -2.30136762695179
H         2.33002701518451    8.05969446579032   -0.60177626038279
H         1.94693360351083    7.63330948659482    1.79253806980930
H         1.14996631937781    8.97703683831348    5.34502614034141
H         0.56955582116643   10.92384707656552    6.73495518013519
H        -1.44089625327144   10.86663050760939    8.16438264964988
H        -2.87602538728543    8.85882065731658    8.18083459226106
H        -2.29879341543441    6.91730748025144    6.78432868415115
H         0.97957625811506    6.63249713311370    7.77519147772213
H         0.76437585560074    6.03252054984009   10.14351136484719
H        -0.65101878574163    4.12784719239663   10.82113967152315
H        -1.88025768121834    2.84723140673694    9.10824608740133
H        -1.67211478051106    3.46213042211771    6.72586049185363
H         3.95537076160860    4.08487118934888    2.78409485294789
H         3.27617573165300    5.88131672350914    4.28831121872363
H         2.68331079592842    5.36774305779556    6.63072147065125
H         2.61759041362273    3.06883076546779    7.41162989027140
H         3.41343207950674    1.26309599754278    5.94223193286756
H         6.68681510701428    3.18850343129950    1.00561205676549
H         7.84178665530866    5.35384951294717    1.20936839856944
H         8.06682516864077    6.43072467935218    3.41776933226255
H         7.14718163346781    5.32159760939391    5.42254493844011
H         5.99647645618631    3.15719778045308    5.21741787684920
H         7.05700286638032   -0.61677421038167   -0.00717353798653
H         8.46624384273972   -2.38114981774094   -0.98654099494345
H         8.88058027541881   -4.46807257442279    0.26350832793463
H         7.89773054435358   -4.76745729188382    2.50765861822695
H         6.50008435919606   -2.99946336039345    3.48929847547802
H         4.22813298136190   -2.54003449409558    0.80565579486183
H         3.23591048854808   -4.79096576119964    0.80080349536706
H         2.44418665988484   -5.80145642700742    2.90843367268770
H         2.64502380978789   -4.54199869190837    5.02182465816646
H         3.63399861215582   -2.28424181184747    5.02248369098624
H        -0.93145236473791    1.22921684681538    7.09211514837177
H        -1.23013373765293   -0.51479526374478    7.22336092728621
H        -2.44459230927154   -0.42848553501782    5.02160087800460
H        -2.07690452711827    1.29970240067474    4.92543508292924
H        -4.35029021813780    1.06129077022289    5.66898870286042
H        -3.40134186214396    1.65494578709980    7.03029262710285
H        -5.01634266444807   -0.14004740018029    7.68560581665592
H        -3.35733923557015   -0.62114675813579    8.01714045922513
H        -4.19747250874480   -1.26563262554801    6.60400275341213
H         1.11870782752486   -1.84371243897109    4.23577055675993
H        -0.54051891630646   -1.34141376257215    3.93785951628826
H        -1.21807291507451   -2.50478721192012    6.10574278246374
H         0.42822948801849   -3.13797657478701    6.20376959477126
H         0.14634533414229   -4.15633286946356    3.94108880118390
H        -1.52733562786600   -3.60113235216542    3.91862131163713
H        -1.41070423993078   -5.96590048149867    4.64603127270772
H        -2.00023424977563   -4.95790001421721    5.96810498928701
H        -0.33089338792789   -5.52633181866467    5.96843574316155
H         2.56479392689754   -0.64881547961292    6.67668357497593
H         1.20997383761353   -1.53316480616356    7.38316445242217
H         1.35557392885480    1.46166397126347    7.78877475316027
H         0.60867530129190    0.24810817904416    8.82307136296691
H         3.60240220353468    0.68999309181903    8.48754984567994
H         2.87904249176268   -0.59066678079885    9.46250733166000
H         2.43183294032277    2.40292021066124    9.89705138005549
H         3.50410886531844    1.38250076868979   10.85908258658996
H         1.76115540307452    1.11200926894674   10.88977708611306

