61
CSD_code = ARIYUV | q = 1 | S = 0 | Stoichiometry = C23H27IN8ORh(1+) | MND = 6
Rh        2.08082199579819    0.08834127370302    8.01079612218092
C         2.10474059744961    3.35592601426649    7.91411771737653
H         2.47564295742316    4.38052273122628    7.78095857002475
O         0.31685577292289    1.01430746547873    8.48245828125142
C         2.00494030760627   -2.40236018289114    9.88617444663545
H         2.64530838049604   -3.00005448508246    9.26680223921676
I         4.33898682973831   -1.22211739933689    7.41171533573891
N         1.46194227242677   -2.85671218930009   11.02377519824182
C         0.74396433622753   -1.83085743115987   11.56095188059649
H         0.20165059208298   -1.92842293137929   12.47822572266757
C         0.88613514897197   -0.77122863257034   10.71558350117509
H         0.46175400141702    0.21036565017147   10.78667637586851
N         0.88953166454621   -1.21886532250908    6.86848299794635
N         1.67892564714875   -1.14111974752354    9.67101153987104
C        -0.34211642565204   -0.89472823158616    6.38432747054696
H        -0.76061638336165    0.08422347723246    6.50730876271785
C        -0.88547413821828   -1.99163995511586    5.78491256506986
H        -1.82701036195736   -2.12914065764290    5.29539408743634
N         0.02960668736885   -2.99394636776484    5.90418285079679
C         1.08013953627806   -2.48984648785676    6.56583082599444
H         1.96344350715324   -3.06048980148682    6.77782086648110
C        -0.09766581640393    2.24588057685766    8.56811725715860
C         0.65115626909490    3.41614224046733    8.32435918351173
C         0.06055343431242    4.66898846861337    8.45981051012986
H         0.65748654956367    5.55030821080661    8.26714931674017
C        -1.25814692595712    4.80879097338450    8.83128664145935
H        -1.69609226371987    5.78837761070286    8.93057276320429
C        -2.01110628513571    3.66687578726904    9.07505821612039
H        -3.04656595301565    3.75519487945177    9.36719379936546
C        -1.44860899454725    2.42195711769519    8.94748575510446
H        -2.02535045401906    1.52817854185595    9.13472337136830
N         2.40751052167554    1.16244715781408    5.12944105884809
C         2.45652576184716   -0.07254218530268    4.39125531027202
H         2.88142050842691   -0.86380296609096    5.00303933462283
H         3.08498957858408    0.06332640320908    3.51233561581881
H         1.45393056465406   -0.36128218566215    4.06780633585002
C         1.60878110924164   -4.17145774736861   11.58349402359721
H         2.27620642589976   -4.76082958582531   10.95758529321654
H         0.63938400228206   -4.66969881831445   11.64330751087062
H         2.02880455649966   -4.10807426771185   12.58864175019345
C         2.30177465709004    1.34006677007095    6.46037465119348
N         2.27971361969229    2.67580060602166    6.64693212223902
C         2.36450570148632    3.33050894218757    5.44886787889470
H         2.35857154051381    4.39768360827856    5.37352154524552
C         2.44390379270532    2.37581030523218    4.49663189970148
H         2.52945867694875    2.46166333995449    3.43336221246480
C         3.06162757009492    1.41431200158637    9.15137922917607
N         3.85045428422287    1.30374168803974   10.23733228895022
C         4.29989812345628    0.10886206132503   10.90277036159118
H         4.31430576336157   -0.72840229755785   10.21058943709466
H         3.64387753592234   -0.12577098351986   11.74406425337471
H         5.31030335930741    0.26816764014971   11.27700261309907
C         4.19504090392604    2.54734155738259   10.69458873668088
H         4.82256764453485    2.68605886009155   11.55027106911303
C         3.61557150849112    3.45296388880740    9.87700671806051
H         3.63437976976507    4.52258807656439    9.88935596129815
N         2.92641195110642    2.73900368906921    8.93547739494816
C        -0.11514735072604   -4.33584408816962    5.41238430256874
H        -0.34784287546290   -4.32252561950254    4.34703347184172
H        -0.92283360333512   -4.84895446807011    5.93734218161368
H         0.81357191175897   -4.88171257864906    5.56544126556230

