41
CSD_code = AROBUE | q = 0 | S = 0 | Stoichiometry = C12H16N2O8S2Zn | MND = 6
Zn        8.38960471653692    0.53509681932417   12.28183245118388
S         6.05589615922449    1.68345906602027   13.22798158259702
O         6.95589939136932    1.78449138595155   12.05722605531148
O         5.27921295485908    2.85543838887584   13.49019549560426
O         5.29598016829775    0.43182174841652   13.18829002891898
O         6.98168772725903   -1.14109616986082   12.08531232409841
N         8.15559245682386    0.55832113307596   14.32539926700978
C         7.19870379651793    1.43099402186132   14.60161977444912
C         7.08185272148185    2.06192161713222   15.82335898752146
C         8.02349065993510    1.77826967848419   16.79908454370295
C         9.04210391887277    0.86831010784988   16.52168790995185
C         9.06024187409718    0.28536670725773   15.25967865245404
C        10.07547959156015    0.52304595190290   17.54481711337823
H         6.27702006065136    2.76343550235969   15.97019976156724
H         7.97772068125114    2.26187514981126   17.76437664019178
H         9.82638873715131   -0.42151900716880   14.97571410623428
H        10.94438179137692    0.06894235097856   17.07775632415568
H        10.38662802248711    1.41129037675045   18.08929046201999
H         9.66317033513368   -0.18311447079787   18.26546911613207
H         7.11639921677678   -1.84020422138237   12.73203209755263
H         6.18958090863039   -0.62949235827785   12.41618374750829
O         9.82439022014255    1.78416248682835   12.51504997646068
S        10.72912551153223    1.68528329695963   11.34819328945812
O        11.50817465268473    2.85710998775910   11.09225869236654
O        11.48800198708959    0.43280503953758   11.38728805400499
C         9.59323242969768    1.43576181117276    9.96843047053097
N         8.63240305965956    0.56562347073354   10.23874615453988
O         9.79512579892218   -1.14500264998574   12.47077628273797
H         9.66224719299361   -1.83994998520385   11.81924820176723
H        10.58923454514652   -0.63211024554299   12.14633277137507
C         7.73663829473998    0.29000539270402    9.29670437717851
C         7.76880878667448    0.86687700792577    8.03216387708033
C         8.79027813191235    1.77579945051740    7.76177618272976
C         9.72214597227499    2.06269281714485    8.74582645769234
H        10.52914026160573    2.76279294415807    8.60433340340597
H         8.84659474815674    2.25491097734293    6.79481701631229
C         6.74817384219716    0.51567973984196    6.99837308564119
H         5.87719862777427    0.05602279637664    7.45598265643789
H         6.43737227028638    1.40208703944014    6.45069780868295
H         7.17266359989840   -0.18755021508115    6.28194713996486
H         6.96651417631542   -0.41435494118617    9.57614766009245

