59
CSD_code = ARODAN | q = 0 | S = 0 | Stoichiometry = C16H32N6NiS4 | MND = 4
C         4.38807065187750    5.68978142207023    0.22261056684935
H         5.04488942399999    5.35000958255123   -0.58174930573721
H         3.99113784500277    6.67221973755114   -0.04268268593837
C         3.23309995124082    4.70822049631799    0.40918378354959
H         3.60466240264158    3.72674031053587    0.69564796086383
H         2.67181965841365    4.61515655417441   -0.51624839976012
H         2.56647034277374    5.07001519526653    1.18653583599897
C         6.35397610082624    4.97060131243631    1.53808749497441
H         6.14493401663573    4.02911157866072    1.02395354799732
H         6.52157511816823    4.76239384342916    2.59647908700928
C         7.59213689797857    5.63482212742683    0.93918768577385
H         7.45241811306112    5.82120522362612   -0.12304804365956
H         8.46135101884630    4.99552377004883    1.06941321488572
H         7.77315036945104    6.58515053626475    1.43379495727357
C         4.87175084703002    6.68118187607335    2.40622588176395
C         5.58421863242325    7.33970861756874    4.56682954495383
C         7.95728313633488    6.91106918977368    4.90983465962703
H         7.83881223301736    6.46054703042615    3.92910217651710
H         8.30264307000677    6.15622338606621    5.62085974318505
H         8.70090151652438    7.71002156511332    4.85412721196037
C         6.63969491402313    7.99630425474706    6.66223081546357
H         5.94584423942862    8.83636581788429    6.69168142109110
H         7.63596848741980    8.33848017657044    6.93721805051444
H         6.30020716384893    7.25303032896314    7.38919939925121
N         5.18542588517497    5.81713565764476    1.42173538157409
N         5.74106906622865    6.77089251973292    3.39064024672095
N         6.68649597785956    7.44470882369318    5.33258325403579
Ni        2.65207738932644    8.69508632557271    3.90127657079268
S         3.43914256163387    7.60342607036430    2.18853193774113
S         4.11267968177542    7.85299915478144    5.29540996742719
C         0.91480062266942   11.69899923866930    7.58071680419466
H         0.25776648240658   12.03806815772527    8.38519994713780
H         1.31233071313022   10.71669234606620    7.84563112360815
C         2.06918080191181   12.68133808876525    7.39455931401836
H         1.69702262834029   13.66278082434454    7.10874115763835
H         2.63052076147038   12.77415937412674    8.31997744785839
H         2.73592827506375   12.32039821838540    6.61691206224650
C        -1.05187362408745   12.41707168155227    6.26579473893873
H        -0.84372174642831   13.35847548470497    6.78044289436887
H        -1.21979469975692   12.62572514455162    5.20754529436284
C        -2.28927432256715   11.75122435985900    6.86445314889601
H        -2.14904937097509   11.56402322112293    7.92647895128329
H        -3.15909952185846   12.38986256008359    6.73506705309809
H        -2.46958866192623   10.80117040227050    6.36906018280389
C         0.43176393336791   10.70819558766952    5.39668879088195
C        -0.28047507128863   10.04992440173826    3.23591781650097
C        -2.65354686496603   10.47862619962507    2.89295164895436
H        -2.53497235786495   10.92943961707559    3.87353571478095
H        -2.99913509851620   11.23318923003022    2.18173961971582
H        -3.39701429527652    9.67955421511419    2.94903622965268
C        -1.33597276394316    9.39440406447394    1.14007495528870
H        -0.64130255588416    8.55501992794246    1.10976919543151
H        -2.33207387692252    9.05143670400813    0.86530332153618
H        -0.99754011307985   10.13856526738113    0.41345883840078
N         0.11754232587847   11.57164811595343    6.38153428666766
N        -0.43753721730203   10.61831621967367    4.41228229441663
N        -1.38274817214783    9.94505863901934    2.47010559119187
S         1.86505343623455    9.78692125972612    5.61392178531577
S         1.19120364134613    9.53707896300568    2.50734782811049

