63
CSD_code = AROFEU | q = 0 | S = 0 | Stoichiometry = C24H31N3O4Ru | MND = 6
C        10.67717937853908    6.13381200929454    3.20916944163266
C        11.45763892807337    4.95820695605395    3.29524049682942
C        12.71658777435351    4.93541155862955    3.90783244197175
C        13.19053657326830    6.12437562447312    4.43264582794232
H        14.15537880447044    6.13433391346978    4.92031166006213
C        12.47284207997751    7.30906382090409    4.34137655674635
C        11.22173034996561    7.31136025017911    3.70978402718435
C        13.54342831976214    3.69163275588191    4.00047918118814
H        14.50488588254170    3.90745044329363    4.46115619000312
H        13.71326548965766    3.26763072296576    3.01278644048469
H        13.02953481773502    2.93765495548210    4.59389560880130
C        13.06387389744094    8.55727650985142    4.92972317206041
H        13.99110834141196    8.32711265271228    5.44816141989183
H        12.37807843589795    9.01735279739739    5.63986044077332
H        13.28524031655676    9.28866130492069    4.15201227697279
C        10.83619881640181    3.79777253967534    2.69632759537265
C        10.35911045279648    1.67121560223618    2.22344178279092
H         9.92477340536546    1.02907855953763    2.99547488670181
H        10.89074779283013    1.04810098172713    1.50125348259682
C         9.31114193124678    2.60647545730356    1.57578820157033
H         8.30947805739369    2.42379532331291    1.98732008096244
C        10.55656769454655    2.79173959511687   -0.63557477833347
H        11.27735981893567    2.00144125068515   -0.43187715227199
H        10.97349759325651    3.73581038068350   -0.28773093438088
H        10.42302628417210    2.85388336804396   -1.71336830572772
C         9.21436338577143    2.51739885575746    0.04036021577911
H         8.50852398601697    3.29964564923075   -0.26005466569533
C         8.64563876857749    1.16665740584744   -0.38430455812320
H         9.30816460414627    0.35271536377547   -0.09578530836403
H         8.52268774535305    1.13794456584167   -1.46439660508257
H         7.67446518800352    0.99776418169275    0.07538936834337
C        10.50142077001598    8.63851861483721    3.65560049889695
H        10.15554706206156    8.87991861993678    4.67249221099580
H        11.22180659870890    9.41144573006794    3.36269429519498
C         8.64047129247446    7.85043110339831    2.12310481415309
C         7.67527323137432    9.85258517893769    1.87997210536213
H         6.95516622856216   10.56999615933370    1.54619041762066
C         8.78517945407843   10.01844571859086    2.62990153614836
H         9.20290444468846   10.90370841663822    3.06468661824441
C         6.24006033636367    8.56380368882395   -0.45937664145082
H         5.90310158919332    9.59322989454024   -0.35574239164177
H         5.48453442875713    8.00890335136998   -1.00800566580342
H         7.16101370859156    8.55257553106356   -1.03762663004642
C         6.46768503610724    7.91023153601121    0.90124376704777
H         6.72431931707122    6.85373650197689    0.75577899791283
C         5.23117680336821    7.99679759870357    1.79376535882155
H         5.43071642434873    7.51253624662557    2.74672648701297
H         4.39710960488319    7.49071180083067    1.31646585952433
H         4.95100001841058    9.03244577126570    1.97636586703911
C         9.31554657849664    5.95158158279761   -0.49701608267183
C         9.53254506577947    6.01728470447696   -2.00160595847635
H         8.88236829441354    5.30494699464372   -2.50246406145652
H        10.57444504841164    5.81835418605528   -2.23758737247924
H         9.28472362177463    7.01972524051698   -2.34821316103680
C         7.84691640394150    5.57010133241800    3.32651832624296
N         9.75277517237768    3.91684044167585    2.01303396878931
N         9.36212153791259    8.78150910188128    2.77665319729504
N         7.59717576694069    8.51975327942818    1.57862570628942
O        11.29978830523912    2.54355015984604    2.84219017120381
O        10.25275561477812    6.27330773811768    0.26927311527946
O         8.19883333093075    5.59276259894445   -0.05558529235535
O         7.03648608848066    5.42239593347078    4.14250551749506
Ru        9.07007790700398    5.89158988680997    2.01283593216481

