58
CSD_code = AROGAQ | q = 1 | S = 0 | Stoichiometry = C24H27N3O3Re(1+) | MND = 6
Re       -1.07009308244545    2.46535576854769   -6.32443660868910
O        -1.33712976247680    0.94454029257666   -6.93179293983297
O        -1.84549693767945    2.89735581574087   -4.92259811791550
O        -0.63238615594226    3.66768290344921   -7.38073194485144
N         0.52487250137281    1.11550523443835   -4.61046747728985
N         1.10287961089793    3.34403049199834   -4.97691564510218
N         1.52041797190974    1.74567525953135   -6.62400685444748
C         1.01434279620773    2.31580720545864   -3.95478509458616
H         1.99038221233642    2.14221602518188   -3.46973964380871
H         0.28814402700382    2.62803498425436   -3.20107360515315
C         2.03430119312199    2.96519973597325   -6.02495490183418
H         2.05152213999779    3.75105321308241   -6.78319012559065
H         3.05408788536647    2.82232089471405   -5.62784934690406
C         1.43997525686761    0.67295703169865   -5.64784173742603
H         1.02397822859930   -0.21364840423396   -6.13117756309739
H         2.43309758131065    0.42770952077636   -5.23359488820035
C         0.01078266787379    0.07131985258185   -3.73141893942810
H        -0.74946464271703    0.52297350456474   -3.09174898860184
H        -0.47226137864162   -0.67914857772499   -4.35984529850366
C         1.21325305555303    4.71661577190919   -4.49635648751932
H         0.38424897113230    4.89326656954107   -3.80881062311285
H         1.09083496301148    5.37685049773447   -5.35693115283609
C         2.09328606453756    1.38375916193325   -7.91568492042861
H         1.96255697285449    2.23589294938424   -8.58497842561736
H         1.51463514736102    0.54648154080640   -8.30990704937235
C         1.09912719522314   -0.56549275944785   -2.89231616952129
C         1.78679052824265   -1.67736019872037   -3.36249056364017
H         1.51792738535077   -2.11632072428568   -4.31220110512045
C         2.79604556420505   -2.24709408538554   -2.60484544665639
H         3.31514822006034   -3.11792818861410   -2.97375292111734
C         3.12776844649375   -1.70831572589513   -1.37327443081817
H         3.91000394576831   -2.15600062775458   -0.78068580612893
C         2.44277288640147   -0.60347556530588   -0.89665817095317
H         2.68579937702418   -0.18979952086049    0.06964628750855
C         1.43331649287282   -0.03280678673435   -1.65357857006853
H         0.88791155629702    0.81516977000625   -1.26553001747333
C         2.53657482721262    4.98645734611750   -3.81053392685833
C         2.68341941634739    4.75118596691646   -2.44926147209282
H         1.84022645005928    4.41084713857942   -1.86585823737950
C         3.89881031010988    4.98210251992189   -1.82708184379489
H         3.99846903378589    4.80846856882997   -0.76694580936646
C         4.97696865300365    5.44710044261726   -2.56085014765663
H         5.92149490986564    5.63335779266329   -2.07437175722191
C         4.83593707421193    5.68767762766921   -3.91705961686786
H         5.66796287317247    6.06561704078132   -4.49048476584870
C         3.62126506001908    5.45664199000565   -4.54030034025069
H         3.51187383383029    5.66754452244155   -5.59408634472728
C         3.55808249999122    1.01168095891642   -7.81323423514093
C         3.93254062823137   -0.30389114274198   -7.56976761426052
H         3.17927253333020   -1.07460874671346   -7.49513377915015
C         5.27080593439088   -0.63967611416713   -7.45283084799993
H         5.55111787221677   -1.66632214459099   -7.27577018822446
C         6.24468589832992    0.33684028417892   -7.57543712422494
H         7.28729598357899    0.07380665191038   -7.49020533069134
C         5.87841351116029    1.64884021089044   -7.82348571118078
H         6.63368712585494    2.41089770202145   -7.93641893839430
C         4.54039712149682    1.98582195821094   -7.94042208350476
H         4.26301956444200    3.00742659461832   -8.15583459102208

