31
CSD_code = AROGUL | q = 0 | S = 0 | Stoichiometry = C13H13Cl3OTi | MND = 8
Ti       -2.01635091399883    5.99411777117154   12.15616245511534
Cl       -3.82675156862798    8.64251549025439    9.23767835367470
Cl        0.25206501856183    5.46395295704460   10.25421554635682
Cl        0.59231755940624    8.99305006595522    6.15289570202599
O        -2.33910100084518    6.50745862722759   10.52563389211970
C        -1.58356462021420    8.11496937825885   13.15785518889781
C        -2.00758561730974    7.22847548422613   14.16931665610287
C        -1.05541206010718    6.19115335821617   14.27197389946815
C        -0.03450399343680    6.45045140448300   13.33230122586204
C        -0.36487409661896    7.63644887891905   12.64282499401643
C        -1.69257002151168    7.08398074076324    9.55389960259717
C        -0.38168032032183    6.69048319733727    9.22883835418793
C         0.33045102798497    7.25910303699188    8.19222991394473
C        -0.27405641753580    8.26818877132870    7.45312329084325
C        -1.55601192184258    8.71248060301983    7.74797738518997
C        -2.24982613765009    8.12461869528508    8.78905676291648
C        -1.82055424397276    3.93299043700539   12.12683664063678
C        -4.04849377129737    5.83732132425953   12.55903495104716
H        -2.05843447902394    9.05332158916353   12.89571467317298
H        -2.84760207663704    7.38335096858927   14.83439576584486
H        -1.03181395439768    5.42480891400973   15.03967270717424
H         0.89960062195463    5.90696241426861   13.24730838857073
H         0.26437282497615    8.15137904332695   11.92466549042430
H         1.33148181125525    6.92995535806313    7.96766513096696
H        -2.00717915624552    9.50776501482780    7.17746650189521
H        -0.77735007199958    3.62767042561917   12.28567388998678
H        -2.14642066624715    3.50159473219748   11.16933433289754
H        -2.41796758449136    3.45521019253725   12.91478747408649
H        -4.25349873688408    5.40018430704645   13.54080960504715
H        -4.55569826977882    5.22840853738869   11.80184889337148
H        -4.48908716314092    6.83972828121156   12.52990233155685

