28
CSD_code = AROGEU | q = 1 | S = 0 | Stoichiometry = C6H15N3O3Re(1+) | MND = 6
Re        3.85976885968395    2.60894739624986    1.82025810038050
O         4.53300200780660    1.41563760903181    0.88539994081435
O         4.84834067970106    3.38057835511307    2.90467501761599
O         2.61291286928080    3.48364512743826    1.16469984128483
N         2.21438404380361    2.39371604600916    3.91779561589923
C         1.22078672547259    1.61512153406739    3.19282794633782
H         0.57038780606294    2.29396313915155    2.63582433256996
H         0.60255691238578    1.00762745712905    3.87616904957190
N         1.95819795851115    0.78228864591389    2.25387772977174
C         2.84638701484229   -0.13306581878693    2.95548057311889
H         3.38869691032220   -0.73737728851026    2.22418577130822
H         2.28760538750000   -0.80419821813102    3.63043564721700
N         3.79381905143730    0.69542622817074    3.68700294163909
C         3.11107618815838    1.52648331806038    4.66792436101201
H         2.56329254918623    0.91645417087779    5.40675122234407
H         3.84777566280559    2.14028056687893    5.19187393033559
C         1.70813996291764    3.54720150691450    4.63488316657915
H         2.54452773037653    4.11413573773852    5.03786911553710
H         1.04368747665420    3.25828896187994    5.45567102176950
H         1.16246004769766    4.18691784021722    3.94456076746577
C         1.17756605690561    0.20134929709249    1.17949887760196
H         0.64614722738980    0.99211107736742    0.65453472057808
H         0.45334235097035   -0.53079349792965    1.55089707991068
H         1.84672756759702   -0.28712980807574    0.47446097341050
C         4.98772148219597    0.02081250872833    4.15664551337916
H         5.47665966653885   -0.46834622247536    3.31701689317106
H         4.75917172952865   -0.72739983366436    4.92244650863236
H         5.67455807426725    0.75532416354297    4.57153334074354

