71
CSD_code = AROJEW | q = 0 | S = 0 | Stoichiometry = C36H14BF18NTi | MND = 13
Ti        4.77095934928359    9.56416956832164    7.06088836749102
N         6.28175631584445    9.22692553544609    8.28900106435842
B         6.86352973916094    9.54906933821400    9.67726413337665
F        10.13874781145254    4.66379562726865    3.87758547349963
F         9.34752202456924    3.22908584099536    5.26819018298633
F        11.10222780791650    4.36603672419773    5.77829251981227
F         6.01525364638821    6.84611706721935    9.53080278192758
F         7.38479940556299    4.65673701476991   10.28957451593389
F         9.87713263766413    4.91058627252329   11.40192788513665
F        10.95858882181456    7.40123007833638   11.70818340638972
F         9.61501325412003    9.57523706585473   10.91201290247032
F         6.40770816226881    8.55590764491623   12.50408334456596
F         4.30692117778538    9.19196388597608   14.02929405795839
F         2.32013818005273   10.80089136172489   13.06710264238848
F         2.47970982117505   11.71751960411142   10.47467828810855
F         4.56076002899318   11.05408809225015    8.91883099428875
F         6.98382510539021   11.77713483517226   11.68069089872151
F         8.44036982613177   13.98737020437141   11.46953631342008
F        10.00408226303540   14.43319857537739    9.26878785613245
F        10.03772465702879   12.56061017579810    7.25923642082206
F         8.57489199980018   10.33820877934580    7.46450832366245
C         6.42228338362062    8.47574837723732    7.30733127288482
C         7.33648395199355    7.46397717850276    6.81783561486609
C         6.88525837309910    6.59201827957922    5.81820940173860
H         5.87287151074739    6.68959281944573    5.44891968939210
C         7.71482455553960    5.61605228409151    5.30749741450340
H         7.36472569513092    4.93660761009047    4.54519661283616
C         9.02116448567934    5.51273424326723    5.77488767474897
C         9.49635283702592    6.38926171683548    6.73992520330943
H        10.51566249145511    6.31081397185384    7.08548505515938
C         8.65912544474456    7.35861250792570    7.25964847283873
H         9.03711800568324    8.04523622743482    7.99718611358054
C         9.90689185478969    4.44800173483748    5.18645844945323
C         2.64157187112341    9.22859341989530    8.05597347961324
H         2.07580116636102    9.91798729826075    8.66828191499134
C         2.47480956471043    9.06756346216199    6.67236613608143
H         1.75047722956100    9.59707940308789    6.07033598180682
C         3.27275130102817    7.98144162159161    6.25375835403908
H         3.26322208989722    7.53788855371880    5.26527209707040
C         3.89976491677636    7.43882355736141    7.40102709658034
H         4.43484288479095    6.50126254598349    7.45973579700878
C         3.51567237016961    8.22021454536754    8.51349041414487
H         3.73270410551833    7.97925945632181    9.54511020516186
C         5.82913319387286   11.49922188487709    6.38080946190879
H         6.41947147160357   12.15084114641824    7.01283952944768
C         4.44288692465422   11.64145280763461    6.12853383439541
H         3.80295956360254   12.41236002063379    6.54026633109719
C         4.09441690698358   10.73722813445533    5.10993035118722
H         3.15224877688892   10.70637657246317    4.58186123633410
C         5.23835506397633    9.98467520630787    4.77877424461952
H         5.31816740742675    9.27334062778727    3.96627551516975
C         6.32302603650126   10.48903958901906    5.53255155797909
H         7.36039257665869   10.22175292518215    5.38866188603044
C         7.76202901779743    8.29137346718983   10.18931305766661
C         7.24491142333502    7.00578023433220   10.06739509981232
C         7.93009738190322    5.86525988978920   10.46008989742610
C         9.19564562022581    5.99142180399288   11.02280008217343
C         9.74292058241838    7.26002909298013   11.17564111717611
C         9.02659469281286    8.37874530811141   10.75880462739244
C         5.58248259531627    9.79629143818392   10.66379378511403
C         5.46040875139334    9.33724404074592   11.97236439150310
C         4.37641582640618    9.66239093624786   12.78493424753580
C         3.36009381960236   10.48014935106074   12.29961129758610
C         3.44427702803744   10.94844336097028   10.99325823699318
C         4.53778844773158   10.59180513060707   10.21874299664221
C         7.71514009160018   10.94751363450149    9.57914497079177
C         7.72505552377800   11.92412647232782   10.57117028366367
C         8.48289508685622   13.08836040693750   10.48398022287201
C         9.27815536747129   13.32010625043758    9.36790939411011
C         9.29436921545851   12.37081604776301    8.35392604915467
C         8.52241948080292   11.22230011200056    8.48141146895800

