56
CSD_code = AROJIA | q = 0 | S = 0 | Stoichiometry = C28H10BF15OTi | MND = 12
Ti        7.10763731066482    1.32874855827601    4.41032064143409
O         6.60435029754840    2.85880692787409    4.36386538483632
B         6.01028586788356    4.11528270407619    4.07550742686348
F         4.62168508285661    2.18209226096561    5.57439474043583
F         1.99614053317389    1.64460685204423    5.51205031386372
F         0.36035307777763    2.85772638673115    3.67423175199768
F         1.44803467850442    4.57157919643128    1.84672848141840
F         4.07122930625546    5.12383942336890    1.89587663884406
F         5.66102481906102    6.84168420269402    3.03782936094520
F         7.14796560663013    8.03282234255642    1.13248720892721
F         9.25228330665339    6.70510401169140    0.00500807056637
F         9.85864267837463    4.17340132649068    0.87177606143970
F         8.41212724375413    2.97950152150235    2.75734575995040
F         3.91964362665217    5.77141489438400    5.59999141542896
F         4.47579190640384    7.33045468256939    7.71705565852595
F         7.02566066578208    7.51336500265237    8.66980891574412
F         9.02656199944267    6.09025005504105    7.45710862477733
F         8.46019335029803    4.52619265291932    5.31397299197670
C         7.17839749246022    0.55345301488342    6.61178779806665
H         6.33347456740918    0.32836633157756    7.25248228201164
C         7.97130909502722   -0.39160730344240    5.92206231910516
H         7.81045484378140   -1.46017221803291    5.92209768400900
C         9.04142214209151    0.28329310180774    5.32422326103071
H         9.87101104990270   -0.16938719514779    4.79531236798174
C         8.95790362555845    1.65527892338959    5.68877106035237
H         9.72370489699930    2.39954064046221    5.50997570338640
C         7.83076955762759    1.80813673723287    6.52974368801123
H         7.54793497567775    2.69915761107656    7.07449499712271
C         5.30270395665261    0.50102320948048    3.17522171850561
H         4.25027186602081    0.73019533399109    3.27752115802134
C         6.19123750614445    1.10555699158751    2.26385113633028
H         5.95976407644877    1.93450200800521    1.60632279314295
C         7.40362795352083    0.37165963389687    2.29196502460236
H         8.24767709727639    0.52331522476407    1.62909255658440
C         7.22910452788735   -0.72430251543676    3.16118466909325
H         7.92252374550885   -1.54455144633794    3.28027573064809
C         5.95186146444207   -0.63040699166354    3.73538633514756
H         5.47538820374839   -1.36918004242287    4.36693832430651
C         4.42178085497073    3.78731976802125    3.81028665242823
C         3.83848293372380    2.86701233227014    4.67602078502059
C         2.48829977229304    2.54717899874568    4.65581362749633
C         1.66058152137252    3.14995435605002    3.71384538033964
C         2.21726931935799    4.02857961940432    2.79147305254468
C         3.57832846329965    4.32390390394802    2.84676444298718
C         6.88067458428014    4.83343482204625    2.87728374297244
C         6.64541975230861    6.14250659373469    2.46540152892374
C         7.42018263837903    6.78089461165612    1.50204801970633
C         8.50090874480171    6.11243043280868    0.93339910646464
C         8.80292163521802    4.82742476850567    1.36846327065524
C         8.00252651921575    4.22410173541581    2.33182011707222
C         6.18000415521019    5.10825812054969    5.38307316631835
C         5.18963817981814    5.83747276568515    6.02357938025173
C         5.45885403788931    6.64930001800451    7.12377052813856
C         6.75682785843881    6.74390752608095    7.61355178861389
C         7.77278689607745    6.02122205188093    6.99553382850406
C         7.46305813143841    5.22585352324396    5.90070152609224

