24
CSD_code = AROJOG | q = 0 | S = 0 | Stoichiometry = C8H8N3O4V | MND = 5
V         7.96720747200685    1.11880485656934    8.60417525049831
O         9.87879317320253    0.54637273346424    9.01954338816175
O         6.41876067101594    0.67607445861773    9.18443200078001
O         8.11929764930885    2.64964641769496    8.66544586429782
O         7.97493171618279    0.63571581781446    7.15216507901940
N        11.70388431378712    1.28785143162005   10.12621559488128
H        12.23751164144902    1.18613097156794    9.27699754280540
H        12.08525678046578    1.87314967877692   10.84875233643080
N         9.60468954136192    1.31598179233180   11.11899652814335
H         9.94776769364709    1.82211715914540   11.93743628900628
N         8.28090349521305    1.14652293561244   10.90946766344760
C        10.37481508194119    1.05737501254097   10.02341181910208
C         7.39143219979045    1.56550270785476   11.72223945105616
H         7.67147832894753    2.03512352758072   12.67432507339880
C         5.99943967682666    1.48159668054951   11.39501332065171
C         5.03525453224696    1.86305152378674   12.33900771997894
H         5.36520337004811    2.17242748386989   13.32126093647882
C         3.69526332684874    1.84910056774965   12.03524901977683
H         2.96647680436897    2.14482349452226   12.77409829319126
C         3.28173612617512    1.45761594346360   10.76213942659849
H         2.22936178592625    1.45484699054450   10.51997206376169
C         4.20090088089818    1.07647564945492    9.81396309786854
H         3.89625397763410    0.77598158234112    8.82132800202519
C         5.58267976070547    1.06881058252630   10.09396423863960

