119
CSD_code = AROKOJ | q = 0 | S = 0 | Stoichiometry = C52H62ClOPRuS | MND = 5
Ru        9.27779930474516    7.87024646651668   21.50468320528628
Cl        8.76317730843413   10.05684994267023   22.10246919176913
S         9.33797234556081    6.00650904355651   20.13833149427596
P         7.35257719229627    7.03448922607231   22.47693516164822
O        11.13177948735531    8.87195998935655   20.61613337035983
C        10.70973921939268    6.01078178451529   19.02793738411260
C        12.04309434604737    5.89059253622676   19.45390039796214
C        13.05503174326180    5.86508445284659   18.49934212005173
H        14.07646972214956    5.75577269845972   18.83293937114001
C        12.79690758583956    5.97000114316750   17.13834376733493
C        11.47140662490053    6.07867336405328   16.73119947607640
H        11.23171074299251    6.11719546088135   15.67810275492021
C        10.43392340246538    6.07561834450161   17.65125040025879
C        12.45148914000269    5.75630131325268   20.86227803787936
C        11.79899195294726    4.88907536930114   21.73474197704535
H        10.94158135357516    4.33095550613106   21.39147931794858
C        12.27139136988165    4.70032837831793   23.02158615276478
H        11.75749396653056    4.01760099434712   23.68253263465727
C        13.40431330036223    5.36406667552054   23.45676723982905
H        13.77709612051861    5.20666949035134   24.45837016882216
C        14.06253448543777    6.22843516868011   22.59808528962361
H        14.94869564953325    6.75125158768720   22.92725188169657
C        13.58841626295662    6.42516381313614   21.31628759215389
H        14.10330402770319    7.11357471700831   20.66087529092401
C        13.88878615985858    5.95720949224478   16.15618539082432
C        14.96905350909457    5.09001335422005   16.30226362922183
H        14.99370765985609    4.40680352480586   17.13890519044679
C        15.99195704254142    5.07790192905485   15.37276402621862
H        16.82003192976675    4.39465747348020   15.49508714124074
C        15.95640316578475    5.93462498615699   14.28525375511598
H        16.75659500547657    5.92481302130858   13.55995044481189
C        14.88896233717700    6.80341205497459   14.13192475803803
H        14.85734896160482    7.47663475129789   13.28727912059134
C        13.86279431625357    6.81365257456195   15.05765119466585
H        13.03973246509960    7.50401089315512   14.93992282136027
C         9.05768487399004    6.11475945317317   17.11910451735280
C         8.15888779456154    5.09142347301055   17.40230874833142
H         8.46098611924631    4.29028090334368   18.05977267480424
C         6.89972737641055    5.08940931924045   16.83169623460056
H         6.21596304882390    4.28133378973473   17.04798053559151
C         6.51737160374304    6.11272289185602   15.98031741409404
H         5.53275629033381    6.11077615442835   15.53595692977371
C         7.40296088496347    7.13979777475437   15.69986933724610
H         7.10916293714992    7.94296898075347   15.03912320463016
C         8.66774588174957    7.13713563258613   16.25945838385747
H         9.36053098909847    7.93607606851032   16.03211608176290
C         6.76681442608138    8.03826853053907   23.93546024310672
H         6.56441630337046    9.01113237089717   23.46296337284999
C         5.50175419011840    7.59301491161286   24.66539090894083
H         4.69513316787513    7.36051918335432   23.96836312563646
H         5.71004138937910    6.70190315662414   25.25738829928088
C         5.05966590387439    8.70282073889133   25.61854739189116
H         4.85346766947825    9.61293437877250   25.05120537904890
H         4.13852605307239    8.40731137347424   26.12630129876819
C         6.15457792035988    8.97906642649402   26.64463343736379
H         6.31003451818800    8.08545190916308   27.25443272317129
H         5.84582832891899    9.78705714068891   27.31086049333528
C         7.45993344478040    9.34981316338887   25.94700886757327
H         8.24845415736086    9.49842806078956   26.68739370486910
H         7.33057342066511   10.28886465179794   25.40539053393986
C         7.88012944650309    8.26554723328149   24.95746754358650
H         8.78813702871826    8.58091680115950   24.43853252472132
H         8.09309715772359    7.33764488216133   25.49245644224430
C         7.31507436188523    5.20506172180713   22.81747856162532
H         7.48640240668628    4.79960821656870   21.80922142077506
C         8.50073506900552    4.76303479166415   23.67204223212361
H         8.37536264469522    5.11273316663697   24.69881237551659
H         9.41106337162379    5.20185831861399   23.26099300691639
C         8.60653935846673    3.23934961309287   23.65671352645452
H         8.81423582234808    2.90826085038267   22.63715075803879
H         9.43664981525744    2.91768160746620   24.28909424937680
C         9.74292663883851    9.66080199400504   18.85184733016763
H         9.72803194530506   10.19709716741863   17.90643291613234
H         9.00675750945306   10.11428909106560   19.51719306023130
H         9.47980182611784    8.61689022184947   18.65892220915107
C        12.20299059319486    9.31392754745531   18.46916999164010
H        12.31886290325191   10.08833689414769   17.71491994951625
H        11.91408540315829    8.38798324450703   17.97987645196456
H        13.16239898910878    9.15329272138498   18.95416815185209
C        11.13220184223550    9.73590098693753   19.47634756360858
H        11.31451871914174   10.76361459589031   19.82208968063138
C        11.98964032134940    9.12235115718013   21.64793965537913
C        13.07338050611216    9.98156343338683   21.59832790327508
H        13.29578921259276   10.55816155774634   20.71428547945500
C        13.89560965531273   10.12257320216938   22.70820498830640
H        14.73361356738394   10.80129784497469   22.65687265792383
C        13.65072826889438    9.40447674932182   23.86785333171808
H        14.29919429065894    9.52311992283777   24.72290078615177
C        12.57468930154345    8.54692106411559   23.93006572626438
H        12.36231861032427    7.99583374217272   24.83427704795945
C        11.70644402893563    8.39591361376284   22.83665520943784
C        10.52807476965763    7.61594789817783   22.91151885385337
H        10.41299526520385    7.03553421688944   23.82908220244024
C         7.31123188570447    2.59485474012238   24.14227329999226
H         7.14571901133050    2.85821902168339   25.18982874602543
H         7.39144396451933    1.50759027103853   24.08153791907946
C         6.12658423397438    3.07760491234427   23.31026445500168
H         5.20263226760750    2.63077081619996   23.68427622155782
H         6.25648658389179    2.76216606439263   22.27268537477309
C         6.02866301434582    4.60113702814200   23.37695095666413
H         5.90753452335672    4.88590391054603   24.42107156996613
H         5.15167072630239    4.94774626879520   22.82934138272496
C         5.93260868747352    7.28553504197653   21.28394622196642
H         5.00580693530636    7.36920046682798   21.86628632309529
C         5.77241197117884    6.18011577337984   20.23906558752582
H         6.70048067101726    6.08032435060482   19.67019865991114
H         5.56181761427472    5.22068395728356   20.71105811985366
C         4.62718793564215    6.51761172863865   19.28531243422989
H         3.69158960482188    6.57835400163947   19.84842059610675
H         4.52338878541611    5.71892416345319   18.54888548488118
C         4.87905114188158    7.84313630136427   18.57707693898507
H         5.78134075355698    7.75803466748928   17.96794069504926
H         4.04511421277498    8.07722584484010   17.91188819795987
C         5.06201046813716    8.95545061571476   19.60189558935225
H         4.13723586168040    9.08667220345706   20.17030225684919
H         5.28060365857020    9.89957871465315   19.09850775941517
C         6.19413112272487    8.60979323954971   20.56099431761026
H         6.32448335566155    9.42321991086589   21.27892732182857
H         7.13282245747993    8.50371795505823   19.99119478827857

