34
CSD_code = AROKAT | q = 1 | S = 0 | Stoichiometry = C8H19IN4ORe(1+) | MND = 6
Re       -0.00000000326715   11.60133199136484    0.92394498393570
I        -0.00000000211282   11.19400240104987   -1.75747207563058
N         0.00000000034474    9.18803345914457    0.88491230433830
H         0.00000000028145    8.95565760898885   -0.11421993271521
N        -2.11487300226412   11.00433864851634    1.26698100728372
H        -2.72302157157675   11.54402038172347    0.64375758388747
C        -2.38798902941325    9.57770022984351    0.98146857488803
H        -2.48935188264140    9.46779075171735   -0.10272806692092
H        -3.32959386376127    9.27182934180156    1.44781436990070
N         0.00000000288210   11.27735174322273    2.79303483610048
C        -1.24655554442426    8.67301731835901    1.45831826947853
H        -1.17188466417553    8.68252377188535    2.54735074463425
H        -1.44880202236249    7.64233888429256    1.14412233601325
C        -2.40978737488674   11.44602812446231    2.65076242431559
H        -2.57559671713899   12.52554892201181    2.61030999511683
H        -3.31427222652035   10.96176366123612    3.02926158461739
C        -1.21125568303391   11.17313691860861    3.56746025813677
H        -1.20922753288758   11.91075267411424    4.38073828600417
H        -1.28341678590564   10.18199254725915    4.04294306724009
O         0.00000001163924   13.24205844228475    0.63477899069662
N         2.11487299510643   11.00433864823057    1.26698101205385
H         2.72302156126531   11.54402038301745    0.64375758652272
C         2.38798902746814    9.57770023133244    0.98146857603246
H         2.48935187935076    9.46779075569558   -0.10272806621233
H         3.32959386356924    9.27182934411494    1.44781436832169
C         1.24655554470911    8.67301731715186    1.45831826944534
H         1.17188466493888    8.68252377067578    2.54735074454445
H         1.44880202359452    7.64233888354350    1.14412233514632
C         2.40978737587142   11.44602812389355    2.65076242736860
H         2.57559671602859   12.52554892180060    2.61030999609469
H         3.31427222946268   10.96176366265477    3.02926158565018
C         1.21125568606416   11.17313691707873    3.56746026282280
H         1.20922753510762   11.91075267347296    4.38073828982229
H         1.28341678868785   10.18199254545036    4.04294307106577

