115
CSD_code = AROKUP | q = 0 | S = 0 | Stoichiometry = C52H55O4PRuS2 | MND = 6
Ru        3.91752519252915    8.96195068361703    4.75703857912729
S         2.49438530513461    6.74400026455796    4.33770131773852
P         2.40618067736668    9.09468647105623    6.48101052387805
O         2.42526160241924    7.96795099923832    3.50835549212959
C         1.06529798526463    6.86852712882316    5.40806646316613
S         5.70600048509865    9.28166584148792    6.23581230053397
O         3.65312252273175    6.80412725913915    5.23684844129108
C         1.00106392869757    7.91810025372874    6.31601462896301
O         2.38983298558760    5.52768301026370    3.58294844367968
C         1.49492340906352   10.69715707429959    6.68813781885151
H         0.75114464752304   10.61537217046802    7.48693383316280
O         5.06666201903960    8.61056765609396    2.79115377850911
C         2.50276899933654   11.78268285416403    7.06543768135234
H         2.86989271875238   11.59994013572917    8.07734284413917
H         3.36222704229614   11.72112761537076    6.39479629514079
C         1.87135327048161   13.17103211096360    7.00251614660550
H         1.08677083953322   13.24983083679642    7.76004327428306
H         2.62570725754243   13.92676810184039    7.22580876195574
C         1.26406642234592   13.42780514063715    5.62886714848161
H         0.83247828167106   14.43034553105240    5.59327410916681
H         2.04682041926582   13.36988301273987    4.87098333394531
C         0.18667454456298   12.38957636223534    5.33664805111038
H        -0.26074545203529   12.57500894303443    4.35843636688386
H        -0.60425986019342   12.47569488094323    6.08675823154119
C         0.76873834410708   10.97942440141138    5.37111639013703
H         1.46914680092118   10.84132414760677    4.54188170397321
H        -0.03425980529659   10.24806002383498    5.24000768277434
C         3.07245211922936    8.70410816350975    8.17818589417162
H         3.94122259216947    9.37279736894354    8.26252701172966
C         3.57634786775998    7.26025836344272    8.23329585548978
H         2.72879981305986    6.57362893150153    8.14143532980377
H         4.25351294900364    7.06830327595831    7.39973090983185
C         4.30665844077498    7.00920059337924    9.54803725764824
H         4.65787818163875    5.97649550069186    9.57849735611056
H         5.17764613351372    7.66468856661629    9.59479415331008
C         3.39477544008551    7.28955806306101   10.73747928484490
H         3.93848924911779    7.13629969354208   11.67195849700949
H         2.55170263337407    6.59458225649561   10.72359498647230
C         2.87285367334447    8.72009814431754   10.66865422787481
H         3.71137982442841    9.41603675123323   10.73845969832761
H         2.20203438435531    8.91547141922375   11.50857905668134
C         2.12813018252064    8.95507667410387    9.35437954174462
H         1.74466636894067    9.97607508675643    9.34253327305257
H         1.28539748400918    8.26312571968577    9.30480230865343
C        -0.15796081263547    8.03003803444399    7.08773848838873
H        -0.27123178151583    8.84281599128390    7.78753957065329
C        -1.18551894578227    7.11092340472027    6.96225411676735
H        -2.06965228633204    7.21645397792162    7.57415853100310
C        -1.09020376649257    6.06367198792434    6.05966319702829
H        -1.89321983867100    5.34860687129583    5.96623841393468
C         0.04263238392091    5.95183104087339    5.27137959533577
H         0.16219915767715    5.16420780037364    4.54391990859107
C         7.19889853998438    9.43475653380832    5.30119208398126
C         7.44324048084784   10.55644653567555    4.49129021641338
C         8.62980745137908   10.63522809040556    3.77197572152601
H         8.80462539454699   11.50274468905861    3.15250701731230
C         9.60118526377995    9.64350642619118    3.84452086071538
C         9.36285268970134    8.55472546200833    4.67605937802113
H        10.12328145544818    7.79590873532375    4.79278419889523
C         8.18871417423745    8.44165689082257    5.40993132875961
C         8.04459310465381    7.26443355835999    6.28575026848439
C         7.71171343801072    7.40019400260458    7.62942572838835
H         7.53690953653136    8.38598249455316    8.03114389474487
C         7.62608157107352    6.28567459173902    8.44338576282215
H         7.38362938514835    6.40251074464054    9.48944581378660
C         7.85636765805841    5.02187865460166    7.92750757107013
H         7.77935001266879    4.15224369704312    8.56404082959297
C         8.19428379779772    4.87753796747018    6.59290373683928
H         8.38025378920905    3.89484991268103    6.18354509583038
C         8.29966761553799    5.99137781270437    5.78160459302400
H         8.56975773229432    5.87342021642163    4.74147423417619
C        10.85186109396604    9.74988049502493    3.08119843732258
C        11.39919562720904    8.63141021650107    2.45646445243672
H        10.88595194233221    7.68259587888500    2.51871796720788
C        12.57813876381290    8.72983386768413    1.74167787321941
H        12.98869907123271    7.85455037671451    1.25897888996841
C        13.23275347832581    9.94612900920436    1.64228477802596
H        14.15600285088883   10.02178803574001    1.08690610028296
C        12.69812214579328   11.06455263235712    2.25981141904858
H        13.20700754729318   12.01516942401483    2.18945161047918
C        11.51667746974092   10.96913364350540    2.97093929452226
H        11.11387821998744   11.84073704938229    3.46610023278792
C         6.54116884492143   11.71886855294575    4.41795727219720
C         6.06273009094731   12.32197051380558    5.57982932490150
H         6.27938582907093   11.87431175076053    6.53669939113886
C         5.34530731307981   13.50217904381216    5.51121189919087
H         4.99517954715718   13.96711708868591    6.42101948117639
C         5.09276596477159   14.10018371803504    4.28776791084894
H         4.53816465946218   15.02643704364313    4.23926632589972
C         5.56604188469173   13.51059820960730    3.12764816229153
H         5.38041276203466   13.97210581307963    2.16849581796532
C         6.28667161366931   12.33282814769997    3.19248538942718
H         6.64872090531034   11.87876317539255    2.28068905047062
C         4.53320611362476    9.51237689409087    1.91837127906448
C         3.90418311190162   10.62981559488124    2.52781260218519
C         3.78552199713604   10.67357626499562    3.94177354031018
H         3.50008711585918   11.66088154450144    4.30906769196467
C         3.37742030997213   11.63699325037121    1.70379752893778
H         2.89914246721099   12.48456296271695    2.17261888963365
C         3.43506365035560   11.53823382497565    0.33159636664155
H         3.00830103355084   12.31070727900720   -0.29014682265180
C         4.04479930342402   10.43701296448831   -0.24815819711459
H         4.09759696711009   10.34967916847662   -1.32305367577918
C         4.60114917824832    9.43545050919852    0.53470214059732
H         5.06732577120823    8.60237630636101    0.03340506432496
C         5.77054513994975    7.48518917734108    2.25102116883259
H         5.19481736438770    7.09219440883494    1.40130640476872
C         7.16709678082223    7.91721895706027    1.79931531222553
H         7.63875467506902    7.10983733358639    1.24502690450466
H         7.77782515689353    8.15594957603055    2.66550996569079
H         7.12217280200777    8.79754683689199    1.16190791939806
C         5.85308987763452    6.40065945318624    3.31485508628084
H         6.57954169142812    5.64874602634039    3.01644968884821
H         4.88943203004918    5.91369149570976    3.45039685026459
H         6.16450471431696    6.82893287592466    4.26795876889963

