53
CSD_code = AROLEA | q = 0 | S = 0 | Stoichiometry = C15H19LaN8O10 | MND = 10
La        4.69580498838228    1.20147857143486    2.95417119266453
C         8.73757776423960    3.82527137072616   -0.68324039649287
H         8.04079246620833    4.05380992412651   -1.48858984109032
H         9.43950425856315    4.64761614576237   -0.58395150322514
H         9.28534401121240    2.92331610806661   -0.95208159066324
C         7.99721383730067    3.62895741067785    0.58641001623509
C         8.01491999652548    4.33503166344553    1.77250330669548
H         8.60486179604198    5.19899254327865    1.99717014684276
C         7.07806375263742    3.69314568024134    2.60246965412821
C         6.61456383131355    4.01599063271673    3.94480538251787
C         7.24472991501565    4.95770343398792    4.75769704324357
H         8.12998347802029    5.46831670386345    4.41533386100662
C         6.71620932186262    5.20839621799713    6.01258206487573
H         7.18915894087983    5.92265411489534    6.67038778200415
C         5.57222178664906    4.54101380463445    6.41183881623202
H         5.12981203331089    4.72126864175509    7.37741941779100
C         4.99915642474571    3.61781659005777    5.53670370671248
C         3.77747306489510    2.88640392924873    5.83815600096156
C         2.95550699454519    2.86483957041046    6.97956086614565
H         3.09294494037125    3.39947776195348    7.89592881437925
C         1.93516329721341    1.98537031116578    6.67664213003986
C         0.76952129191389    1.52632374535414    7.47100944283103
H         0.84074467492001    0.45599558176850    7.66017685716008
H         0.73699923908494    2.04768157978895    8.42290142403352
H        -0.15827909380071    1.71407651047896    6.93261714395904
C         7.60754985935730   -0.91084871395775    1.93146263799437
H         8.18083465694979   -0.26841173688190    2.60448179084547
H         8.25656760670405   -1.23548972963622    1.10324075279078
C         7.07388938403526   -2.12222113930299    2.67927553017190
H         6.52408919919694   -2.77571958495030    2.00449860605647
H         7.89218671874664   -2.68287988687177    3.12306496219829
H         6.39696259609722   -1.80028561933438    3.46843898387788
N         7.10359349811215    2.63588045319455    0.75457790471036
H         6.82365886129605    1.93046039198480    0.08445753998290
N         6.53516792631123    2.65862870394372    1.95547991838690
N         5.52492586716789    3.35402847445182    4.33819804255092
N         3.27500654375127    2.07361507101680    4.90495987911314
N         2.17387591717228    1.54739631512198    5.42476938281120
H         1.64035529670195    0.88472921347542    4.87332301375705
N         4.15127379306088    2.64940478021449    0.92366054533011
N         3.01494513527336   -0.83949135195997    2.74766137241129
N         5.66965588434640    0.54055929911830    5.16939541351217
O         3.70372644263162    2.99808007258315    2.01493171313498
O         4.35416327224491    1.44248247100735    0.73697321093511
O         4.38882308248990    3.44393344557529    0.05828324574293
O         2.58782201581512    0.31229523310004    2.92421971128974
O         4.15583144207800   -0.96452480066446    2.29048983618664
O         2.33144427890386   -1.78955584323917    2.99358986783829
O         6.49124860297815    0.82139643844228    4.29232612924678
O         4.68406930819003   -0.12085723483535    4.82918263830641
O         5.82630900857182    0.88849628366412    6.30374517533732
O         6.56209217679738   -0.09419231316119    1.41253095631725
H         5.93363861305030   -0.69115723978674    0.97315950025535

