31
CSD_code = AROMAW | q = 0 | S = 0 | Stoichiometry = C7H12N4NiO7 | MND = 6
Ni        2.46843940361948    3.91369187013983    3.78262902894879
O         2.98380371665417    3.30765837179763    5.49843566095361
O         4.57514493825620    2.08553929102908    6.46579761410394
O         4.30460246500677    3.30544605887176   -0.31851684911750
O        -0.72030974960272    6.08902137149829    3.50117302050349
O         0.93245226165089    4.86028385244681    4.34971065859936
O         0.98988825030290    1.97947389728362    3.80854616458916
H         1.28828216812204    1.60400737475621    4.64562129526458
H         0.17275845368607    2.44686740832035    4.02037831636088
O         3.65783389876385    5.94526497677092    4.40423952876875
H         2.88726814575836    6.48487666418252    4.61896094955347
H         3.99247901220113    5.63608725624583    5.25471885301496
N         3.98009979696100    2.99035311504655    3.17793577080138
N         4.39384052178672    2.91085658441783    1.88786914496799
H         5.23717831547301    2.37996042238510    1.68443053955398
N         2.66903316524353    4.20823970876888    0.92293273581846
H         2.31050096581655    4.58113338664622    0.04725072239706
N         1.99315573446308    4.48917286589820    2.06570757470666
C         4.04029565490217    2.59433977455065    5.50424520075206
C         4.64583376757292    2.40189776453877    4.10355306244628
C         5.88270342319391    1.59633811808181    3.93650840617873
H         6.69178033817497    2.19424853913439    3.51493515671925
H         5.71004423643947    0.73406799626588    3.29106654348735
H         6.17900890322790    1.24581477264783    4.92419465502472
C         3.81434524228824    3.46684092078168    0.77517415988596
C         0.92882404533457    5.20446916529294    2.02363681250183
C         0.30282589562558    5.79964235565472    0.81512799515849
H         0.00796777276862    5.02969653285031    0.10103261667141
H         0.98011809105951    6.49677396483520    0.32011758104774
H        -0.58502330397317    6.33969282660087    1.14064688534553
C         0.29082446922019    5.42724279225758    3.40534019499134

