47
CSD_code = AROMOJ | q = 0 | S = 0 | Stoichiometry = C12H12F20P2Pt | MND = 4
Pt       10.34639006961679   11.92097727775998    0.49076711192947
P        12.10664445485068   13.51864473194754    0.64277531860997
P        11.12416020754275   10.64375926100644   -1.37229012700382
F        12.50266571214726   16.18472053545462    0.95408380383283
F        10.83743411161091   15.44524181549894    2.11040032773523
F        11.12540750653021   15.66002592621323   -1.36849463847147
F         9.50290700634105   14.79622010068928   -0.24115023505703
F         9.96752562388150   16.88692623786482   -0.03518092442281
F        12.52252988420675   13.96504636506626    3.32427842497536
F        14.32284252061005   14.06289904162677    2.13508315982727
F        12.25976769405113   11.31036013239932    2.83286334051033
F        13.83757019832267   11.37849573832195    1.37780532767297
F        14.28310940895785   11.68869220725117    3.46439008895539
F        12.48854611545341   12.15169182067333   -3.15013259737987
F        11.39433152580016   10.54488539339200   -4.12218951851029
F         9.01328543572870   11.71228888220160   -3.16218207583223
F        10.13522182137539   13.00611931256526   -4.46886098927794
F        10.19700820058067   13.30744491108280   -2.33526014230663
F        13.14536482527479    9.18365065671404   -2.50275930581713
F        13.81623161649174   10.79838853369692   -1.23373017889040
F        12.10929524487469    9.28210880729570    0.79374150948524
F        12.52718373226758    7.65819096735131   -0.54412547783878
F        14.15188998782047    8.74972553827084    0.34525337600775
C         9.49662036895426   12.64586186102678    2.22254477324525
H         8.62609838706177   13.26394518231893    2.00090153758571
H        10.20288702145199   13.25052694032795    2.79316907102295
H         9.18760875240382   11.82150394431122    2.86468225050431
C         8.63324465327108   10.77862958761904    0.41996498837741
H         8.86884698573484    9.73821674377494    0.65799858520168
H         8.23818791143639   10.82924415802652   -0.60030635100477
H         7.83870356778274   11.09792872975416    1.08966837990458
C        13.47124065863736   13.92549811475519   -0.50549766124859
H        14.02656553618828   14.80966729688274   -0.19096536686723
H        13.05286083756671   14.08795615420024   -1.49819287047653
H        14.14638565370775   13.07224272422288   -0.56103520536292
C        10.23744784828247    9.13529656362538   -1.90421086193648
H        10.77328233226318    8.61292863450264   -2.69880496385656
H         9.24226613243384    9.40972587879695   -2.25129423241878
H        10.12121299055561    8.48085321278108   -1.04049132248659
C        11.47755351277302   15.29989839125797    0.93693650078266
C        10.49767115386020   15.68140028659426   -0.18757849067083
C        13.13518600039890   13.42712687990396    2.25529327286372
C        13.39099327449861   11.93356292380559    2.51943623110722
C        11.34513776232533   11.42868650889529   -3.10592090187511
C        10.15935226876342   12.38485453882178   -3.30138454695735
C        12.86412681352101    9.85020345521636   -1.36283874425040
C        12.94270667175578    8.86973709423605   -0.17465964992682

