53
CSD_code = ARONEA | q = 0 | S = 0 | Stoichiometry = C20H29NSSiTi | MND = 8
Ti       21.08217183832294    3.09010977495847    0.31440455713945
S        20.06115131970869    1.08699260735756    3.12711678652153
C        21.03911147395095   -0.29311833590723    2.61578664949844
C        22.19224112434574    0.08043702008323    2.00736024665079
H        22.91499756317434   -0.62850717368540    1.63705878796389
C        22.33947014333459    1.49185367590997    1.91586346682096
C        23.29272961557678    2.47377722423725    1.50443399354513
C        24.56868851831821    2.38653426350459    0.93751699500444
H        24.99424906479673    1.41967716426017    0.70048800822120
C        25.27705289651499    3.54433748889685    0.70585764599490
H        26.26560743381859    3.49210003135162    0.27299791339687
C        24.74225049364746    4.79757943638916    1.03722853560933
H        25.33408153421270    5.68245078137042    0.85005280828399
C        23.49538125737650    4.91958242921251    1.60703368560672
H        23.11511565100964    5.89082122538624    1.89570287134162
C        22.73743848108916    3.76429774038411    1.86079819831868
C        21.45722603070423    3.59400485927950    2.49861083130342
C        21.25664854628630    2.19213520936936    2.50736552614909
C        20.53303004567031   -1.66821659545533    2.87291255384288
H        19.58070035069634   -1.83023689747137    2.36655467652320
H        20.37240777729966   -1.82714130776353    3.93926529290169
H        21.25036431067588   -2.40222317044707    2.51263700091082
Si       19.98246056606834    4.76800797774020    2.33799762060175
C        18.67524043752168    4.33894170907697    3.67633870973129
H        17.78767701502991    4.95606132411173    3.58078542445397
H        19.07787756708819    4.50434218581224    4.67056334183969
H        18.36801456847157    3.29885508130136    3.61682374670507
C        20.42794303175117    6.62273719699288    2.53338699845850
H        20.93021980057720    7.00752416502448    1.65072524205376
H        21.07609612019684    6.78323867860857    3.38839010715619
H        19.53338082945190    7.21567421026906    2.68911761601245
N        19.65936807237449    4.27040957260164    0.70150376293973
C        18.44431922505820    4.51164241849253   -0.05063138858892
C        17.44872751676179    3.37209891903619    0.23336694144091
H        17.91989196868028    2.41434670110271    0.00653580158103
H        16.55121611286685    3.48335495426408   -0.37085134148464
H        17.16993034959762    3.38162090246319    1.28441580054274
C        17.80324266455098    5.85320049110668    0.33151989749713
H        17.49696311195024    5.84605494604883    1.37287150572489
H        16.92826834943314    6.04114105734763   -0.28618069849203
H        18.51848893652662    6.65786712465310    0.18372044091398
C        18.76159808442336    4.54937828735406   -1.55567291726711
H        19.49581226607668    5.33001132345131   -1.75463984481693
H        17.85854401355716    4.76355797331683   -2.12415262495494
H        19.16620947775907    3.58815047952300   -1.87811067108892
C        20.45343884645777    1.33862590129104   -0.58271987146134
H        19.86390101676869    0.73117256381263    0.12085944094993
H        21.35082023571148    0.75219885434618   -0.83946046058867
H        19.86328688957117    1.42109117497174   -1.50547701842863
C        22.08277983936924    3.91097268084739   -1.29107604755289
H        21.67086129045282    3.69698289354122   -2.28584670174378
H        23.11742021892784    3.53750118739977   -1.28593021215359
H        22.13038610643087    5.00428961286735   -1.18061963153322

