79
CSD_code = AROPAZ | q = 0 | S = 0 | Stoichiometry = C30H28N14O4PtS2 | MND = 4
Pt        7.11204420242563    2.43056531033113    6.91722364631317
S         7.99877339963690    4.46237077513721    6.14515970117847
O         8.21378600164648    0.17974808347589   14.61792260985323
O         3.83134164389325    0.87205312892774   15.49278726716516
N         7.15627413401361    1.64094248958962   13.25440888077476
N         6.01903460818051    0.55370891049893   15.01382593017823
N         3.69373024518144    2.67335937326047   13.32672125879612
N         6.04652989246351    3.12919964889117   11.91560183166189
N         7.33055532564432    3.28727377976994    8.70360095192339
N         7.64363037757291    4.60286667907881    8.80021270047401
N         8.21460229736929    6.53969420410117    7.74011536535309
C         7.21322516240626    0.76788374200020   14.29287175365730
C         4.79143963145587    1.12485641381842   14.80534553556865
C         4.78932430935619    2.07221597921560   13.65878722287244
C         3.71265139859127    3.53075412499579   12.28548944016589
C         2.52373641766222    4.18026179964202   11.91975992719525
C         2.48048075654596    5.05759396344079   10.86352179566750
C         1.20029218946085    5.73069293122623   10.48381246896581
C         3.65174810191350    6.26516623494115    8.98509633275621
C         3.66679830390232    5.31762740884087   10.13959502645608
C         4.84762695089703    4.69450822091912   10.49094842972321
C         4.90067836323994    3.78781717799100   11.55043240750475
C         6.04471005624384    2.25259125727000   12.95979251366658
C         7.28246101034331    3.29674664735148   11.16596462497030
C         7.15769445600360    2.66398967555002    9.81768917029668
C         7.94549495520369    5.22187112387186    7.69627689789501
H         6.08961586670183   -0.10255563029731   15.78430570526677
H         1.64420360612280    3.95746610572505   12.50262479478583
H         0.92503066251434    5.47920874100412    9.46045322721471
H         1.30387694898060    6.81336695567591   10.54161661255995
H         0.39597006169091    5.42262857068288   11.14532246868978
H         2.94490130138826    5.92871629501962    8.22802823196811
H         4.63635679548023    6.33899249969317    8.53123254901763
H         3.33844940378060    7.25714045669792    9.30801598688646
H         5.73622438221048    4.92566307135205    9.92590106333554
H         8.04425073940339    2.76842372515560   11.75222953981138
H         7.53305688140388    4.35457367656921   11.07100391945568
H         6.88316128014225    1.62043144292692    9.79322349811855
H         8.34539813092690    6.98293343346685    8.63302599065061
H         8.58327990989516    6.98238453562077    6.91669567668511
S         6.22488001562191    0.39915217191991    7.68888847611999
O         6.01494538724224    4.68785496154769   -0.78074175731446
O        10.39594620889417    3.98910799304601   -1.65764217692572
N         7.07058387770500    3.22402385391843    0.58140069481337
N         8.20901790251761    4.31084214310137   -1.17750387990211
N        10.53164141544393    2.18671677652703    0.50766275919299
N         8.17841904694812    1.73304718097162    1.91876280691474
N         6.89346102545924    1.57438029023467    5.13059500576356
N         6.57834880401132    0.25932324975990    5.03350083859119
N         6.00439906445164   -1.67695561264074    6.09294853924811
C         7.01468602317946    4.09792757370956   -0.45641781837460
C         9.43578937707438    3.73764689152921   -0.96979974060828
C         9.43687371494304    2.78975028135989    0.17631870970844
C        10.51161602875112    1.32831327343175    1.54804704014002
C        11.69938756550139    0.67589428511874    1.91230342767152
C        11.74130407703386   -0.20320451874023    2.96713073286269
C        13.01999386704159   -0.88049994329616    3.34441953007508
C        10.56882989527765   -1.40976823495240    4.84546391822825
C        10.55498646801681   -0.46122615220615    3.69177880126196
C         9.37526150086484    0.16480842392342    3.34189473512611
C         9.32338055921607    1.07248402307121    2.28319619038427
C         8.18132928579832    2.61057788238564    0.87535031550391
C         6.94223684576511    1.56610871572418    2.66811332838488
C         7.06752879223064    2.19783815003883    4.01679469365407
C         6.27589562161924   -0.35963494782355    6.13731041704613
H         8.13915491971729    4.96745436424804   -1.94775222457420
H        12.57907337483820    0.89762681018263    1.32926255643894
H        13.29756944555854   -0.63089502982918    4.36760922301142
H        12.91292767281297   -1.96279059428362    3.28570231292916
H        13.82428554142231   -0.57433556307798    2.68199262068759
H        11.27659099077618   -1.07514099645058    5.60249618635505
H         9.58428355746130   -1.48218957354844    5.29969094187341
H        10.88023729992764   -2.40203981450177    4.52165657484610
H         8.48658667150380   -0.06496867179013    3.90737508175537
H         6.18103048374565    2.09566162830581    2.08218901490590
H         6.69058274472958    0.50845473447086    2.76218636456133
H         7.34353909883094    3.24099006983060    4.04171079579653
H         5.87224726828757   -2.11944331502779    5.19986440854059
H         5.63530839787219   -2.11942572352878    6.91629759983001

