85
CSD_code = ARORII | q = 0 | S = 0 | Stoichiometry = C18H52B10P2PtSi2 | MND = 4
Pt       11.89272556382696    3.88539942810565    2.10293113666724
P        10.11790217228869    2.43223771062215    1.15537209071716
P        13.62443200012326    2.12563742847769    1.79371614526281
Si       10.33504331891866    5.45970164702667    2.90260857068818
Si       13.48637453580625    5.60713492332766    2.41150061938584
C        11.21778350787504    6.86799708447187    3.84896820267247
C        12.79735616536032    6.94309504243538    3.60650227854387
C         9.20374299335188    6.35022845453275    1.60241680463690
H         9.48479411614152    6.10748000384982    0.58227560113581
H         9.27756950434514    7.42626802260505    1.70496902299948
H         8.16009181245635    6.08434428654632    1.73940952779530
C         9.15232504340805    4.60945759020253    4.17173386868846
H         8.34602293149118    5.27841168618975    4.45395432835324
H         9.67931387110232    4.32594347886103    5.07616970648185
H         8.71130573501619    3.71136522228472    3.75227841044342
C        13.78293594829736    6.40349373703511    0.66970709358250
H        14.29020565496840    7.35669385905113    0.77303060689660
H        12.85584424117468    6.58190366692822    0.13509472378172
H        14.40372971712839    5.76463356938153    0.04897599168226
C        15.29946726783523    5.42352426058828    3.06701057436829
H        15.91302356380832    4.77800307856438    2.44791327207692
H        15.33503519815435    5.04844120578611    4.08404952890124
H        15.76946767343029    6.40279259841585    3.06944751673201
C        10.72994496273211    2.33212626168110   -0.58718563705617
H        11.65329554727513    1.74796725365429   -0.57270612869552
H        10.01698740676166    1.82019224491337   -1.23636569745421
C        11.03824755508422    3.74057822348584   -1.08260080979271
H        10.12491832470014    4.32139682034398   -1.19318628347085
H        11.54724966598127    3.71791206698407   -2.04497325946469
H        11.68155811155212    4.25046696173313   -0.35189565812624
C         9.78229545279354    0.64189778085677    1.53005630348629
H         8.91295057838383    0.30309113677161    0.96268915717820
H        10.63921676509340    0.05040342855863    1.20804788413984
C         9.54809687495590    0.44749601188893    3.02324304796106
H        10.37990727368248    0.85946121855474    3.59231211150722
H         9.44662230346663   -0.60860811162459    3.26778695840945
H         8.64200220186460    0.95754744275465    3.34338317557843
C         8.36892818574717    3.01428554695489    0.92337127979590
H         7.83915413960521    2.73024725579690    1.83640457141017
H         8.39367553969001    4.10110182832885    0.89748719026699
C         7.60417676470425    2.49700597633442   -0.28968394664575
H         8.00308072027431    2.90872455345992   -1.21306613256097
H         6.56235576908915    2.80391159170327   -0.21390592211671
H         7.62489781677506    1.41113758171236   -0.35731847638005
C        14.32918981233816    2.05104806388052    3.49967744817117
H        14.96747488944030    1.17475921855541    3.63060673377496
H        14.94045643202540    2.94164398111654    3.63279679100565
C        13.19419863318910    2.05543139289027    4.51934861566124
H        12.47751817725986    2.85111059462580    4.26628430156028
H        13.57120265270866    2.24016317706831    5.52288564543452
H        12.66898320672254    1.10156453245465    4.52534879958297
C        15.13467809249168    2.43596558774772    0.76992520831332
H        15.48255326615124    3.43757713900463    1.02196324666250
H        15.92108649480986    1.72670379224292    1.03560925936334
C        14.82150596364657    2.38257768854842   -0.72038414140581
H        14.47453740362273    1.39494149356154   -1.01884909368612
H        15.70772656831736    2.62064198650745   -1.30601964104128
H        14.04737397601049    3.10759515282627   -0.96358814131577
C        13.34820133730872    0.30237414124492    1.48796402422130
H        12.68771072088843   -0.02996915485781    2.29354196613787
H        12.79742834083443    0.19663444109985    0.55006183634260
C        14.57608611794062   -0.59886157552115    1.43618792199859
H        15.18041198227065   -0.39684438046853    0.55579534411173
H        14.25790819368116   -1.63958610727267    1.38937949304278
H        15.20082290352108   -0.48295624990990    2.31831867053622
B        12.24336784268815    6.38980384861487    5.12147901994893
H        12.33290315653420    5.23140698446812    5.32566560982932
B        13.61106816357299    7.48116950489173    5.02352884158151
H        14.68818917551248    7.07140750478891    5.25845447067863
B        13.36055168659899    8.55089248225427    3.65347768822823
H        14.27177672681570    8.83884567237304    2.96162095012491
B        11.82293577718774    8.15610396250987    2.91039430578005
H        11.65220658607738    8.10138771978272    1.74860080927929
B        10.80258618841974    7.34016879230743    5.44242912589196
H         9.87736813142343    6.82458456973890    5.95609560093890
B        12.33739057451684    7.76253604036407    6.22314225510919
H        12.52094205159164    7.60859338477476    7.37842928866549
B        13.03592072540862    9.13064004189364    5.30316959945986
H        13.71928948424184    9.94297181635498    5.81884463497121
B        11.91792765055039    9.54768780562408    3.97588941586353
H        11.80207951645741   10.64585522387820    3.56007346646418
B        10.54437520688094    8.41979803343404    4.08239368863808
H         9.44496578962869    8.61662210439267    3.70400206036085
B        11.27893016292546    9.04436132017923    5.56926094994198
H        10.70321574137275    9.79701721096647    6.27266457913590

