47
CSD_code = AROSUV | q = 0 | S = 0 | Stoichiometry = C24H16AuF4PS | MND = 2
Au        4.41149033290468    0.84063282743432    8.41620789338423
S         5.33629047984757   -1.27266363340777    8.77199500550178
P         3.50291533862802    2.86337999993122    7.94414613432979
F         5.10602815010511    0.83553015377955   11.06234310772739
F         5.75946319790746    0.42240756467772   13.61292295256951
F         7.06421642133034   -3.99203971098031   12.64791958657657
F         6.40448500771426   -3.63075521862713   10.05676673507961
C         5.72510936628737   -1.39493367355296   10.44827739424002
C         5.58546424467704   -0.38740945485600   11.41070045643992
C         5.92412542623997   -0.58741698666759   12.73804395106229
C         6.42521539201198   -1.79515773322611   13.18242342885061
C         6.57775070672071   -2.80626665961096   12.24582070780571
C         6.23957677886825   -2.61863663440415   10.91898297697127
C         2.46407885030506    3.56130739133261    9.25433215632382
C         2.96236986374153    3.47477087583909   10.55269703649731
C         2.23057134156137    3.98748487087697   11.60652732353978
C         0.99835335337718    4.57786388508693   11.36983054174301
C         0.49818173037879    4.65513094153655   10.08009059721253
C         1.22556220836721    4.14772387166549    9.01772477831504
C         4.72113251205777    4.16189539724161    7.60513099597169
C         5.79462516399169    3.81056144252294    6.78965235731525
C         6.76353373503038    4.74592163208041    6.48193576487062
C         6.67117003996368    6.03027332174917    6.99644890697285
C         5.61013993455336    6.37791663522406    7.81643806564322
C         4.63212073874248    5.44848575604685    8.12440884965140
C         2.43682594832708    2.86788478354518    6.47818799711921
C         1.58772821730058    1.77553225162697    6.31815450436603
C         0.73728691918449    1.71475121627361    5.23090213618643
C         0.74045849929778    2.73688973980788    4.29412797548169
C         1.59238788352776    3.81885794000913    4.44597327350357
C         2.44191806790429    3.89044784145162    5.53589904290568
H         6.68818069735731   -1.94691104377352   14.21442326151663
H         3.91952971327789    3.00130520437925   10.72340163765334
H         2.61706875130116    3.91969731157654   12.61206070489694
H         0.42352100682403    4.97338659094575   12.19369397956112
H        -0.46394411411098    5.11157438574524    9.89944090020118
H         0.83575856959487    4.20580190714796    8.01081890250793
H         5.85748320219550    2.79989067624560    6.40526338463787
H         7.59371548527464    4.47412314098985    5.84745620002973
H         7.43182259471716    6.75980526038438    6.76242158178858
H         5.54403809646286    7.37715895407158    8.22075937079799
H         3.80451060690173    5.71784993648636    8.76579523990154
H         1.60762097780092    0.97891693140086    7.05155488086514
H         0.07811406719978    0.86856894852921    5.10830031586532
H         0.08112272952990    2.68706605297246    3.44066854459070
H         1.59590974194686    4.61139423712355    3.71234029964580
H         3.10727202285970    4.73420087139014    5.65628816135959

