72
CSD_code = AROZEO | q = 0 | S = 0 | Stoichiometry = C29H33N3O6Zr | MND = 7
Zr        1.76703641933951   -1.88935368700548    9.91280116676584
O         1.21440298434928   -3.64263050404301   10.45772285052697
O         2.37975479823253   -0.14684670070477    9.39766856374482
O         1.56673495307505   -1.31819949100556   11.93215649312553
O         3.16739426297645   -2.66903420501480    8.54262795073960
O         2.35981938170142   -1.21112490889894   14.01723628445702
O         5.26145811066499   -3.22426478781822    7.99985493830302
N         0.43966083773608   -2.41698457896593    7.94832079215996
N        -0.38427327652943   -0.76348253551126    9.99963434785047
N         3.70619074245585   -2.20554017784930   10.95420983773114
C         2.47037144150728   -1.44499773195344   12.82931047723426
C         3.80144243482714   -1.94329660339463   12.24912358333498
C         4.99746537511315   -2.11199522016793   12.93800495048434
H         5.03800984682866   -1.89306892419705   13.99360937998386
C         6.10520189264978   -2.55789633507070   12.22856298033416
H         7.05154260150707   -2.69690424199084   12.73128318790174
C         5.99153338662852   -2.82316510431216   10.86988969713540
H         6.82455979925799   -3.16864613692664   10.27777804957934
C         4.75363287406751   -2.63370624862115   10.26557692670867
C         4.40596227285914   -2.87462934093968    8.78978682251663
C         0.25331496400575   -4.48459355944277   10.13543175939622
C        -0.42669883301527   -5.21435928715841   11.13692504925785
C        -1.42680843267689   -6.09846632461524   10.78038048684438
H        -1.93782210106051   -6.64977550816050   11.55765738184729
C        -1.79346490746813   -6.30130459214952    9.45376953224757
C        -1.13572256810754   -5.57413044103315    8.47421449064724
H        -1.40824930539034   -5.71324883781983    7.43619951568167
C        -0.12754595823017   -4.67338683195529    8.79089139454468
C        -0.03384398768865   -5.00304863335684   12.56991868818915
H         0.43129907647551   -4.02279275852169   12.68354706417699
H         0.69294645134282   -5.75591473642931   12.87611055496408
H        -0.89799869229736   -5.07771630327324   13.22657553764691
C        -2.86518173017670   -7.29022605166164    9.10218881235843
H        -3.71104330981873   -7.20031496852893    9.78118780203086
H        -2.48027794955169   -8.30696613289981    9.18290515972138
H        -3.21447975805851   -7.13944224907235    8.08370670622778
C         0.57061091232944   -3.87551020790509    7.72051859942709
H         1.64145747449606   -4.11341656455523    7.71916684319760
H         0.14672430631436   -4.13643071418920    6.73682359033324
C        -0.98374190378046   -2.06564294147843    8.01773002270030
H        -1.51024192748707   -2.85634438053002    8.56208931888980
H        -1.42366836056988   -1.99912853501305    7.00909742676514
C        -1.14802058594008   -0.73619956890473    8.74660269926150
H        -0.76513443876828    0.07953366216171    8.12468117698872
H        -2.21592024282984   -0.54166258684369    8.93929795464268
C        -0.12616860829838    0.62697521077981   10.44228026978803
H         0.48295358914113    0.57472259946147   11.35308691339544
H        -1.08132335346033    1.12297278854310   10.68133612535036
C         0.59829585438243    1.42458138466657    9.38928150628869
C         1.84282743346996    0.95742203787792    8.91902455096431
C         2.50302035689798    1.69682043172520    7.91144327321500
C         1.92923821113468    2.85575100597592    7.42498396464638
H         2.44616397125594    3.41050516091072    6.65408722619122
C         0.70976446074255    3.32955070297771    7.89798185283836
C         0.05733168329696    2.59597444191474    8.87632771838886
H        -0.89423548268729    2.94472604166439    9.25575452853165
C         3.82117626558743    1.19342513374229    7.40010149060836
H         3.89226126141302    0.11672444796410    7.56112587800510
H         4.64054177586876    1.66697778732906    7.94173983109953
H         3.93984666746792    1.41516122874888    6.34168585778455
C         0.12985747140421    4.60672223129999    7.36634653107950
H         0.24140070561774    4.66065760656591    6.28510971019762
H         0.64789732338779    5.46350411423064    7.79768394184168
H        -0.92533476229489    4.68789708795525    7.61548535730608
C         1.06427066339281   -1.69979940337097    6.83055143411841
H         0.55191861304284   -1.93337675908865    5.88413963966423
H         2.10995021637493   -1.99760662880141    6.74662973939357
H         1.02387311491782   -0.62130115946506    6.99686563045930
C        -1.16486492516120   -1.45684119458924   11.03106911758507
H        -1.32718582315903   -2.50010345637800   10.75237786812191
H        -2.14245769059047   -0.96969008159986   11.17163521597569
H        -0.62110832444271   -1.43239624331095   11.97598797856041

