113
CSD_code = ARUBAS | q = 0 | S = 0 | Stoichiometry = C44H60N4O4Zr | MND = 8
C        11.07405774640172   19.60225380676456   14.92479606498077
C        11.04586920408726   20.56736016822391   15.96275959725937
C        11.75897369561892   21.74657208799968   15.84513942872567
H        11.70887337865580   22.46288150131896   16.65447231639747
C        12.53584770803209   22.03197462299326   14.73270371061278
C        12.60084800275176   21.07326972649213   13.73263209724140
H        13.21754915877260   21.26074246790872   12.86286693431935
C        11.89810921834675   19.88249506715636   13.81047509132079
C        12.02403479124485   18.87633801229191   12.69976807620816
H        11.11162808930735   18.87869686373482   12.09293347016391
H        12.86330781308916   19.18276114938658   12.04801098601044
C        10.24423099656134   20.30773303496838   17.20742288795181
H        10.05590620452849   19.24128214523914   17.30386007210334
H         9.28810876590736   20.83249963952159   17.17047805120176
H        10.78130279328182   20.65554053082977   18.08836420676003
C        13.28034892394062   23.32863092668273   14.60842877745877
H        13.40129962658122   23.79993752656441   15.58096997079380
H        12.73483791356934   24.01792949349610   13.96252766926744
H        14.26420498652238   23.16978592605929   14.17067321607885
C        12.51576130113079   16.66929419733597   12.00534920297993
H        13.39141933708976   17.04695323175485   11.44889477200311
H        11.64685314723389   16.68592367797196   11.35332606237931
H        12.71177100923838   15.64135615181644   12.30146265517434
C        13.38482849999268   17.45277366205845   14.08517410295135
H        13.36103766550476   18.34292284771202   14.71939545658526
H        14.33718236674789   17.46927427911995   13.52560770604885
C        13.33877898223220   16.19931163098627   14.95641393960688
H        13.45659350269224   15.31138767203923   14.32956379650003
H        14.18529030261291   16.22044777286033   15.66615784502772
C        12.09305863394670   16.96023155108964   16.84582652708812
H        11.12933403055594   16.90225182489130   17.34431817008853
H        12.27959611753951   17.99405187920184   16.56474717353044
H        12.88223877182925   16.64124732550430   17.54892643508524
C        11.85684613171941   14.71924004597850   16.13495837260761
H        10.86856157132811   14.66944393296245   16.60475212339116
H        12.60764024184253   14.47389607031660   16.90947341343753
C        11.95283439144146   13.68505464725954   15.04644061841536
C        12.64427450731832   12.51070499364328   15.29366650682551
H        13.08836399131035   12.36177098564364   16.26946987483790
C        12.78215200316908   11.52071166797711   14.33242087586241
C        12.23109082401899   11.75967086676459   13.08284599798750
H        12.34849928359132   11.02098566269926   12.30105695646197
C        11.53743143418303   12.92103930530058   12.79464183958283
C        11.34652146193201   13.91299815701804   13.78946416401411
C        13.50382839199421   10.24214188483033   14.64096962964332
H        12.86025664254525    9.57349252079243   15.21415241293124
H        14.39609671587667   10.43475465681424   15.23400008033184
H        13.79440713979998    9.73129392966582   13.72609719168538
C        10.99144124506159   13.13261710910720   11.41010487044431
H        10.06462251147344   12.57455616195441   11.26701890483608
H        11.70466147820963   12.79044636606422   10.66183667386322
H        10.79332187849202   14.19033460746890   11.25409123132740
C         8.81342223361647   17.98962802366471   11.53403705085866
C         8.84554756941005   17.78620539932637   10.13075257503123
C         8.14517533248776   18.62487539434550    9.28404144100727
H         8.19685104981579   18.44525741113818    8.21834317379140
C         7.37883717463848   19.68087366164259    9.75665077584512
C         7.30919515993337   19.85847178780676   11.12919443825779
H         6.70024238163809   20.65969389339974   11.52792078587590
C         7.99943880530557   19.04214186787249   12.01091355360018
C         9.63887006032301   16.64632424699096    9.55576498968357
H         9.82211067785782   15.90359834370793   10.32838856119947
H        10.59722024272493   16.99595258834703    9.16819134262498
H         9.09766727055876   16.17951470326751    8.73435025730095
C         6.61882954103213   20.56735372284673    8.81432670161376
H         6.39847246661748   21.52565780989213    9.27887483199038
H         5.67313529190434   20.10171978938897    8.53216241136385
H         7.18951354307335   20.74159377046011    7.90439836022441
C         7.86880453688647   19.27621223162566   13.49080291072682
H         8.78362278311270   19.74088413617162   13.87532638591603
H         7.03523415724824   19.98360071502726   13.65765724736809
C         7.35755412277389   18.43259591296664   15.64121151037527
H         6.48895607046749   19.11221415149480   15.69306517200416
H         8.22994776204996   18.94024974920026   16.04342846799391
H         7.14839715140463   17.55787717113316   16.25276255450552
C         6.48725981988219   17.31789702223532   13.71859457662204
H         6.51890581695524   17.38332756930678   12.62779249966788
H         5.53762431477200   17.77386894737468   14.05115481832276
C         6.51502630333050   15.85213317042911   14.14613816847429
H         6.38426371839303   15.78296865051889   15.22932033983362
H         5.66893287091210   15.32105402696246   13.67424503238451
C         7.76954240763614   14.84377035823725   12.38247662096956
H         8.73374106477250   14.41467423730716   12.12399953687497
H         7.59164075477432   15.71057017311308   11.75026083265521
H         6.97881403026061   14.09894982636157   12.18516303768426
C         7.98001039402921   13.99648671271937   14.57915639977293
H         8.96955996124656   13.59368022272018   14.33731871475911
H         7.22905938611218   13.24200184000478   14.27834921858384
C         7.86638653590471   14.20420931348771   16.06477235091391
C         7.14516117287426   13.29513754657062   16.81998565549504
H         6.68911113857137   12.44814566369410   16.32382759373335
C         6.99079396762158   13.43511053358248   18.19154395386471
C         7.55894949782786   14.54861357115822   18.78987598861835
H         7.43254220976688   14.70293677268472   19.85328555889901
C         8.28333427064848   15.48188464329716   18.06983485938164
C         8.48617639191510   15.31867551910903   16.67661803842037
C         6.22110252431281   12.41923355484489   18.98316907692319
H         6.72468279222838   11.45292340256101   18.95390167560170
H         5.22170638736301   12.28559565725490   18.57017282494853
H         6.12897435019368   12.72772286166682   20.02155819699388
C         8.85126020108295   16.68179313425817   18.77496148598346
H         9.76924251940559   16.42350654336068   19.30563172055427
H         8.14181106808294   17.06735910208866   19.50543954222985
H         9.07171110469578   17.46045397596597   18.04876186832292
N        12.24079647284579   17.49911864094982   13.17368302502867
N        12.06348309010545   16.09942156553621   15.66757285210234
N         7.63579884272050   18.04386463687183   14.26255457278050
N         7.78897909556910   15.22487725188628   13.79111890201838
O        10.37564581602586   18.48996277278326   15.01501309292181
O        10.65153363791184   15.00135226099982   13.53169814446578
O         9.50210461835376   17.21573667288887   12.34629168466460
O         9.20533026442896   16.18415712604338   15.99295598251994
Zr        9.93332127072794   16.71966206321370   14.22352784845648

