97
CSD_code = ARUFOJ | q = 0 | S = 0 | Stoichiometry = C40H52Cl2FeN2 | MND = 4
C         4.95680051607269   10.24646185918246   -0.50155829950632
C         6.05793887230550   10.71838655092813   -1.20749489826125
H         6.52567827697038   11.64102241587869   -0.90215980563808
C         6.52072089806159   10.00358343076468   -2.30258262737421
H         7.38242017639041   10.34414581850929   -2.85691841811606
C         5.85549708539301    8.85280122248888   -2.67314915607198
H         6.19510804278204    8.26431102619834   -3.50975512070110
C         4.75126761291252    8.43785242305837   -1.92816008725235
C         3.98756286014042    7.24112373678076   -2.21980761029571
C         3.96578655999844    6.58516174185399   -3.45038696874520
H         4.54794128246605    6.96923597291358   -4.27228864553220
C         3.18526298716923    5.45956358692595   -3.60675098608260
H         3.15587462985904    4.93428706089574   -4.54837362433106
C         2.42697782981832    5.01070246396975   -2.52452484367347
H         1.80689206968163    4.13194397380433   -2.60620423253283
C         2.48580590954689    5.69586582028576   -1.32959283609505
C         1.71282832929642    5.30948119353065   -0.12096450884845
C         2.12195311433927    4.22115061104490    0.65785432426876
C         1.39149590617013    3.90424139750590    1.79282155694128
H         1.70361744631436    3.06765348155261    2.39727841392575
C         0.27653527940640    4.63545647529644    2.17079349502187
C        -0.12895539522265    5.69162705705222    1.36903564801434
H        -1.01019724350695    6.24625916889729    1.64957644939042
C         0.57058829696191    6.05057250285606    0.22588514622741
C         4.40533003555974   11.04312829019268    0.62027244068510
C         4.95300949748564   10.94194371351016    1.89817917544436
C         4.41946930832910   11.72391394234642    2.91273416531947
H         4.83744584993089   11.65901848505388    3.90621776547082
C         3.34771738349689   12.57180933739658    2.69023718442194
C         2.81666891741260   12.65072515607576    1.41103368861669
H         1.97606519028330   13.30077148672324    1.22925568606762
C         3.33744355837747   11.90893397993571    0.36456304864762
C         3.30806830161489    3.37136313296262    0.26444305525866
H         3.83246302402153    3.86161192565824   -0.56102595919482
C         4.30894224324403    3.21682786575249    1.40941393045937
H         4.65349658849779    4.19535507306854    1.73177315947665
H         5.16980893929147    2.64656252927177    1.06775067723715
H         3.87141598001519    2.69595902760821    2.25698541658565
C         2.81749534875749    2.00162246621042   -0.21565296245029
H         2.31333925875258    1.47178433357972    0.58920620353307
H         3.65837492285428    1.39870708009731   -0.55077443608141
H         2.11769514383488    2.10872564940071   -1.04203570993791
C        -0.48678296502698    4.29637263729250    3.42735808318598
H        -1.34339654298594    4.97569558936865    3.50032789394245
C         0.39815183518825    4.51280699661901    4.65686865640722
H         1.25004552735695    3.83763813126570    4.64304188015734
H        -0.16966421924100    4.33261199045416    5.56720856990125
H         0.77226034975758    5.53382763374541    4.67601360160498
C        -1.01984899127224    2.86293628315262    3.38370766288804
H        -1.63145651209817    2.71199740751804    2.49657727244600
H        -1.62899463685189    2.66249662483268    4.26241804447453
H        -0.20407578666627    2.14484356302450    3.36419103905524
C         0.03817234549163    7.12033797047582   -0.70751170422838
H         0.88551012854547    7.59869770198777   -1.21640182267859
C        -0.74610265097857    8.22251112945404    0.00188638231340
H        -1.69907035045052    7.85457559667082    0.37366417070954
H        -0.95067150691951    9.02920353156719   -0.69861110552982
H        -0.16936972889922    8.62498646736900    0.83060693566583
C        -0.84215724395016    6.44871405674424   -1.76823333033837
H        -0.27202494000377    5.72294027886537   -2.34336778902662
H        -1.24253905708963    7.19420422408885   -2.45181868012334
H        -1.67336646612046    5.93345010122497   -1.29120676434406
C         6.10288027330737   10.00293465222541    2.17775972663362
H         6.22328578630505    9.33431684241475    1.31926569378091
C         5.83167627581220    9.12704050012054    3.40138267025337
H         5.85246491113797    9.70710907971543    4.32079041075178
H         6.58507830107796    8.34600390100718    3.46831242934221
H         4.85836361103944    8.65047317568500    3.31115154279663
C         7.39816204804350   10.79810115303448    2.35993438541755
H         7.62040951765040   11.38183456887346    1.46896798521653
H         8.22950859695563   10.12209389084519    2.54635246725986
H         7.31059314366448   11.48064028734999    3.20264677845052
C         2.76351737445050   13.37932105163769    3.82345219819316
H         3.33666905273571   13.15782007647451    4.73071779090547
C         1.30833517183256   12.97719300516603    4.07139909292688
H         0.68506217791550   13.23837806306895    3.21987378200250
H         0.91920859962233   13.48611648396808    4.95099972437675
H         1.23838670852540   11.90335123491518    4.22788732836482
C         2.87613297449242   14.87956661957254    3.54482503073568
H         2.29808079504037   15.15471649525947    2.66613634277679
H         3.91418344360332   15.15575760605898    3.37183757455746
H         2.50268332304860   15.44968973573365    4.39299648737332
C         2.74120473565737   11.99678250856595   -1.02325331255346
H         3.49593742025134   11.66218048723458   -1.74416184691133
C         1.54028985381518   11.05223947367201   -1.11964425058739
H         1.85429157383910   10.02887497444505   -0.91277780544512
H         1.10087301258697   11.09438840016227   -2.11483693641618
H         0.78547149574521   11.32941914126884   -0.38775219158634
C         2.33847159133728   13.42165803160569   -1.40719556507307
H         1.46120874584285   13.74739196064096   -0.85477725400949
H         2.09890712935300   13.46413342974096   -2.46788060900462
H         3.15247522181918   14.11556492601546   -1.20937061745153
N         4.32134854506711    9.12288431044879   -0.84242413714442
N         3.24642658433340    6.79663906544811   -1.17488132887676
Cl        4.94717341092742    6.68681530534949    1.00026117283048
Cl        2.30280388237659    8.93022601178964    1.77090736634007
Fe        3.19706528789010    7.72114116773308    0.43692998301991

