59
CSD_code = ARUFEZ | q = 1 | S = 0 | Stoichiometry = C30H20IrN4O2S2(1+) | MND = 6
Ir        3.38045823535976    3.60874378552316    2.41780040582481
S         6.36294590731437    1.40392752653252    4.92414137170724
S         2.73339463597971    0.45536668205341   -0.69283629673211
N         2.75958591835542    3.00452382035496    4.28711244847214
C         3.69466017192190    2.34575922112089    5.01802150701295
C         2.17147509041533    2.09420588708078    6.84951792447245
H         1.93507304404001    1.74414384255888    7.84179034697915
C         1.55454483878909    3.19435730825462    4.82133094536340
H         0.82523698376879    3.70900968747104    4.21047870190432
C         3.42177531467709    1.88503617530042    6.30805585493738
H         4.19584307130401    1.36825093995778    6.85243792270061
C         1.21616234196897    2.76126204830412    6.08837933645458
H         0.22479910236759    2.93871181457865    6.47123462801549
C         5.05341905361819    2.64759887577086    3.02393055483742
C         6.32779026935952    2.36600502676036    2.51447075682899
H         6.66148340601991    2.62357390932979    1.52409117227821
C         4.93658412486656    2.17489642158334    4.32839525348904
C         7.14760766640584    1.70821260645256    3.41221069911088
C         2.88296124664556    1.87255323757849    1.50756972671547
C         2.10036519254182   -0.19563577445863    0.78014728799489
C         2.25754776490699    0.66630822498811    1.84929010235806
H         1.92385363933292    0.40923989557500    2.83980372194565
C         4.28183957976160    3.16619755502929   -1.71724622031954
H         4.08161537328179    2.36497801076782   -2.41046754975303
C         3.19848606076365    1.88874265564676    0.15149713219394
C         4.94134871960077    4.31257240852877   -2.10592064093815
H         5.27496990046204    4.43818524411104   -3.12373389638568
C         3.86760147817958    3.03155844493851   -0.39014143510488
N         4.09027801766186    4.00868886621706    0.52536275327889
C         4.73376676271894    5.10789575368578    0.13655708333441
H         4.91057394330170    5.86274679264640    0.89076677284060
C         1.48648496047258   -1.51007901508154    0.77853315508600
H         1.14232956930165   -1.83158694162196    1.78055624782227
N         3.79970582246856    5.53544766182091    3.25154022133003
C         4.02204253003039    8.00809241312690    4.47709512570925
H         4.10106525665605    8.97014664670432    4.95834823004724
C         4.87627023189333    5.84780680430449    3.96285744372614
H         5.64116800612782    5.08657808103627    4.02554722228630
C         2.90026380676492    7.68928481080089    3.73221597667236
H         2.09947725728683    8.40381150117336    3.64273043102957
C         5.03739441459067    7.07045522205751    4.59075052438133
H         5.93180589457553    7.27720706543659    5.15463261984061
N         1.62965638564170    4.73916861636841    1.92703213193904
C         1.66204428930776    6.02986268677551    2.30132586606621
C         0.60785704906620    4.29860469345039    1.20289290240081
H         0.62796389918043    3.24971702708998    0.94229647793200
C         2.81490883926946    6.44056457168237    3.11752617122668
C         0.65194621921234    6.91245179565105    1.92032074426019
H         0.69240929571464    7.95128401599086    2.20141326115722
C        -0.40795031274813    6.44972402833676    1.16047115454984
H        -1.19585285334835    7.12152925151719    0.85831206568320
C        -0.43660272251923    5.11139190705404    0.79844807745729
H        -1.24521593124049    4.70528981169356    0.21371755776237
C         8.52061642952005    1.28223215204409    3.21732807238474
H         8.90729369744823    1.50795485745294    2.20470256011805
O         9.19632249304166    0.74142240249510    4.05358973556962
O         1.34796631322591   -2.20117827259198   -0.19697215952181
C         5.17489316447768    5.30391903311481   -1.15744937285667
H         5.69358913889028    6.21168027786171   -1.41781081587872

