61
CSD_code = ARUFID | q = 1 | S = 0 | Stoichiometry = C32H20IrN4O2S2(1+) | MND = 6
Ir        2.22153836817567    7.24415820055382   11.03292460617407
C         1.73215505037377    6.25751781396407   13.72407176121825
C         0.13551319873642    7.83379474349840   13.17334970547618
H        -0.26399432765435    8.51434056527602   12.43367531660508
C        -0.47571967580953    7.71354912995632   14.40610522319800
H        -1.34977029258243    8.30115030982103   14.63331478515051
C         1.16762362461000    6.08931357605471   14.99043752318656
H         1.61348386994549    5.38171539218844   15.67101341400598
C         0.05341790063880    6.82371077806919   15.33612935774195
H        -0.40309927938110    6.70883919772324   16.30643010332192
N         1.21523632847043    7.13570069191782   12.82716653120904
C         3.29707102726186    5.78404005916546   11.92528628866125
C         2.87006032121980    5.54552641600829   13.22867326471159
C         4.80396887861536    4.17116615385535   12.66494648896643
C         4.40477447775432    4.98252586891872   11.61942255142431
H         4.91342435558906    4.97796800821125   10.67087022585323
S         3.81012353937820    4.36457099971416   14.06845674553581
C         5.91527277595447    3.23930642306935   12.69348888318852
H         6.45952995502850    3.18144539806998   11.73099138722232
O         6.24025292536057    2.58693320853158   13.65128876122344
N         1.12406089236812    8.91323021669128   10.23744299653193
C         1.64710718679503   10.10170446326000   10.60519066921249
C        -0.53580918361125   10.06394828147009    8.96618653721997
H        -1.39438073678766    9.98863937823191    8.31919299749506
C         0.07010736813911    8.90104221014883    9.44533472965051
H        -0.31973242611243    7.92841202632132    9.17973375511041
C         1.09604824362438   11.33090364952366   10.18118615396426
C         1.68376754598507   12.55136003655772   10.62208320457113
H         1.24383041381955   13.47739048458624   10.28534585120688
C        -0.02537380049684   11.28579575414892    9.33566101489093
H        -0.47039344110137   12.20646314322132    8.99039129562378
C         2.71132196107450    6.25752629876212    8.34183469273747
C         4.30786101878082    7.83395761836349    8.89241528005958
H         4.70735472295973    8.51461433045005    9.63199222450260
C         4.91870035150477    7.71413958061256    7.65939677598799
H         5.79259107587848    8.30192195500929    7.43203301134810
C         3.27553725571827    6.08966371615103    7.07526948824093
H         2.82958889985558    5.38214245611984    6.39467034729175
C         4.38951450517100    6.82431558462134    6.72938960077799
H         4.84582203935907    6.70964613987994    5.75896252690444
N         3.22840610079582    7.13552238412993    9.23885572691702
C         1.14676498933356    5.78352294794359   10.14076995511169
C         1.57355882231912    5.54533994492737    8.83726862550825
C        -0.36001466289947    4.17060373001111    9.40117724615838
C         0.03917684595197    4.98193311361668   10.44670622454052
H        -0.46955906131191    4.97750509111078   11.39521488440140
S         0.63350521872547    4.36439973005718    7.99747290408470
C        -1.47120305119203    3.23863424464586    9.37273084089580
H        -2.01508538007672    3.18031492239413   10.33541616450650
O        -1.79620503593561    2.58627541565474    8.41494433967687
N         3.31978213270815    8.91299386308749   11.82818581268796
C         2.79692173408086   10.10158329082678   11.46048741136488
C         4.97976907553377   10.06348253490581   13.09959058940560
H         5.83831139896806    9.98804809302276   13.74661096544642
C         4.37369886717607    8.90066534070184   12.62038116625150
H         4.76324532421098    7.92799013137949   12.88622342516024
C         3.34819578485214   11.33069504657651   11.88449911171308
C         2.76078325987765   12.55126205158560   11.44348700391432
H         3.20091933458699   13.47721826898506   11.78017843097907
C         4.46959385213772   11.28541164308545   12.73004248043571
H         4.91484753554553   12.20600795265524   13.07520061343660

