97
CSD_code = ARUGAW | q = 0 | S = 0 | Stoichiometry = C40H52Cl2N2Ni | MND = 4
C         0.92568684652104   22.43509573158993    6.85792913040416
C         0.91189446446768   23.14645226655968    5.66258410831996
H         0.28010668176470   24.01510854460351    5.56485257481806
C         1.71853611039405   22.72086868280353    4.62119535363318
H         1.71792342489036   23.24715410234865    3.67834523728085
C         2.53538389164961   21.61788262443930    4.80515389310466
H         3.17075534383865   21.26769345661408    4.00808648906795
C         2.51183099956964   20.95702904182333    6.02933311685377
C         3.35492307908993   19.79718853067696    6.35185099648505
C         4.52985616530687   19.49624342622100    5.67252771140335
H         4.87855223388677   20.12110866376699    4.86640095266695
C         5.26158960437352   18.38913804456278    6.07311533988221
H         6.18004156205015   18.13141910531368    5.56649533081078
C         4.79924372905000   17.62264995138818    7.12519247240424
H         5.33134763993217   16.74484097856408    7.45580653636713
C         3.61496023639501   17.99192565866397    7.76696660054112
C         3.05835021083069   17.18926353115244    8.87809109630394
C         3.66070919025922   17.21144560975594   10.13694066005969
C         3.08861626544156   16.46557588066352   11.15727883665565
H         3.53975230979037   16.47994203572441   12.13803231526792
C         1.93854879134684   15.72077133157627   10.96236218462445
C         1.36477591854528   15.70455457838763    9.69968091927067
H         0.46686233464734   15.13055617522648    9.53606832734576
C         1.91040290206908   16.42188121315020    8.64979901649414
C         0.13982933996567   22.81618444523224    8.05502390449583
C         0.53526429539217   23.92411476079488    8.81408084711767
C        -0.13449538438956   24.19092032790212    9.99750687957942
H         0.17910618986218   25.03209797934805   10.59411366609458
C        -1.17393049698034   23.39119780575633   10.44454793128011
C        -1.58408175427001   22.32998582454995    9.65260529215434
H        -2.41157865692535   21.72471583759786    9.98626882683255
C        -0.94357924647110   22.01697072932124    8.46148409289779
C         4.90029417532613   18.03098985249067   10.40992436019614
H         5.12406396713874   18.64030002542652    9.52848658502013
C         4.68436089921584   18.99003121516531   11.58067650692889
H         3.82511839533810   19.62487179958263   11.38591121246690
H         5.55747398898598   19.62676734965712   11.70346012873637
H         4.51710203105390   18.45213871832771   12.50979404831291
C         6.09210870477828   17.10729723195730   10.67722184859053
H         5.92404544266548   16.51590494087830   11.57397192598902
H         6.99761195654213   17.69352498284683   10.81708101750752
H         6.24779307842962   16.42380629592451    9.84453253779228
C         1.31669653332713   14.96156372776157   12.10798804472783
H         1.92362513365296   15.13868747707938   13.00282680904773
C        -0.09640470216866   15.47937046577956   12.38295821604643
H        -0.07904438228891   16.55919317663408   12.50921148151015
H        -0.49785178579909   15.02492968540938   13.28648900907432
H        -0.76196757174729   15.24416026665084   11.55622103469328
C         1.30656667873730   13.45676255974160   11.83070494946625
H         0.69886416782928   13.22773716660203   10.95865150674384
H         0.89823608760260   12.91890144703027   12.68386310094508
H         2.31744916055793   13.09837666184348   11.64698295120111
C         1.25514591853479   16.40947876369975    7.28600789871493
H         1.98727774576629   16.74863058521432    6.54378051123692
C         0.08335620528479   17.39240820051397    7.29186529701397
H        -0.68049892735297   17.06253062439666    7.99174923932575
H        -0.35584047121651   17.48168605971239    6.29912972024600
H         0.43338042255899   18.37883888860083    7.61765106783159
C         0.78913825807160   15.01554025598297    6.86188637659066
H         1.59617303122146   14.29418302581047    6.97081650676595
H         0.47827111917548   15.03137403595412    5.81877300046688
H        -0.05682994476464   14.68196991998264    7.45679303748756
C         1.66154893704667   24.83120589955186    8.37317909215519
H         2.16538387474256   24.38160208567048    7.51202594373737
C         2.71209715937222   25.00815060792890    9.47031458753104
H         2.31401115647729   25.56443528785517   10.31437272301156
H         3.56667119506644   25.55486982347098    9.07712908953882
H         3.04808564248206   24.03418695053649    9.81798481496411
C         1.09039212603788   26.18610783423783    7.94295212446057
H         0.36103984747298   26.06481112983644    7.14399269276078
H         1.88836719888402   26.83431231624847    7.58729202192543
H         0.59686948721663   26.67529905513314    8.77917214389786
C        -1.84098892543153   23.64955079992958   11.77193407298207
H        -2.66661389683837   22.93785242231244   11.88340808085471
C        -0.84195238571806   23.40150904817905   12.90436512112148
H        -0.02118438793696   24.11261199896888   12.85574866914848
H        -0.42736917418022   22.39957174246933   12.82412429647421
H        -1.33165507809964   23.50247959860243   13.87067259414435
C        -2.41931013363611   25.06359377063873   11.84886585496893
H        -1.63094123863108   25.81056042010560   11.80353511060774
H        -2.95916306318579   25.19615208581099   12.78400173483619
H        -3.10763423972772   25.23940110730122   11.02440619319376
C        -1.51174336321942   20.96166619154785    7.52981504700684
H        -0.69349578939884   20.48583845046225    6.97259312308444
C        -2.42167100073240   21.66133379339230    6.51308052127156
H        -2.85854025178099   20.93188437746326    5.83383290064576
H        -1.86520178767957   22.38991389248601    5.92635872308958
H        -3.22684775751249   22.18022721735230    7.02939924189301
C        -2.28147377066726   19.85618026434902    8.25039520434589
H        -3.22568505369443   20.22595170622334    8.64297285668757
H        -1.68958100697635   19.45232311569075    9.06900656448976
H        -2.50319856897892   19.05132087332407    7.55234201340977
N         1.69571093439701   21.35696873782151    7.01277302950819
N         2.92162162934538   19.05973331220746    7.38363514703597
Cl        2.82811631414623   21.48889050165410    9.69020696036281
Cl        0.84568940251905   19.35991076005947   10.27904571546610
Ni        1.45554642958379   20.34346053820415    8.63803541816434

