34
CSD_code = ARULEF | q = 0 | S = 0 | Stoichiometry = C10H16ClCuN4Se2 | MND = 3
Se        9.28325121229572    0.42470693752357   11.08299980422444
Se        9.24985931549470    3.45180910303495    8.11008352164614
Cu        9.10331766591640    2.61964665611455   10.29114109955526
Cl        8.70893921588018    4.20281526534053   11.90677322037831
C         6.64677960759859    5.97765679786034    9.78018473023426
H         6.42995429900692    6.94756998822553   10.17630221526930
C         7.87250233217863    4.37262299501381    8.90336613253529
N         7.87677941005052    5.66545271816275    9.27185744126666
C         5.87087337513063    4.87364915814321    9.68123447576615
H         4.85268781879293    4.70974055939357    9.96686742763682
N         6.63225559776084    3.88811400002387    9.11539911473376
C         9.03808847124759    6.50629545519558    9.31493111357176
H         9.72388772327275    6.20505480076492    8.52294804549607
H         9.53381321251472    6.38667725834914   10.28185624863504
H         8.74375315160766    7.54479386272246    9.17798164370503
C         6.26077171506351    2.51693807147447    8.91597603386082
H         6.85622828227321    1.87334416033930    9.57990201810332
H         6.46646523754492    2.22107463040903    7.88577760966532
H         5.20407297751930    2.39025596301774    9.13651618806867
N         9.74523817613930    1.76218724165990   13.55936076499369
N        11.39079703686577    1.99271148863193   12.15512848753473
C         8.43507893857131    1.49223052206424   14.07724818455573
H         8.05356964755612    0.57964109423598   13.61900945808570
H         7.77062260604476    2.32323664910699   13.82620464280986
H         8.48495912793422    1.37387943179423   15.15768901089999
C        10.15743746162522    1.47159077750193   12.31322410197850
C        12.12604337608810    1.95672893505121   10.92392203022426
H        11.56620373585921    2.49395915611725   10.14442077112621
H        12.25413507672369    0.92362028376413   10.59614410952155
H        13.09615076182908    2.42590117196973   11.06566697742063
C        11.72631191207521    2.66993310633849   13.29527730502418
H        12.65414872584552    3.19447704851320   13.39082255097401
C        10.70117079730009    2.52790387152905   14.16674389542288
H        10.57015199817677    2.91388084068507   15.15593962504497

