72
CSD_code = ARUMIL | q = 0 | S = 0 | Stoichiometry = C34H36AuP | MND = 2
Au        8.39699093384333    3.00898721242918   10.48725076804699
C         7.30438282974234    6.23517471548781   11.02015733509573
C         7.19487859273412    6.30938974452881    9.63464662561963
H         7.72639444841669    5.59099873392644    9.02241869753563
C         6.40772193656711    7.28542373707603    9.05261475105030
H         6.32460517563476    7.34103996523413    7.97738718593309
C         5.72116537815858    8.18537033257360    9.85189522288559
H         5.10213985157209    8.94566589115395    9.39933327569107
C         5.82244718637388    8.10909211820015   11.23207638666787
H         5.28408563039696    8.81041022929586   11.85293996686161
C         6.61154967683416    7.13783827097232   11.82085965198397
H         6.69015974710723    7.07705313936338   12.89797895908720
C         7.81226994043054    4.77625761917556   13.39940426348634
C         8.58897151543636    5.09827275354463   14.50555296470099
H         9.58002304008963    5.50978319391450   14.37205669045770
C         8.08483903203734    4.89277126736413   15.77827527971861
H         8.68688551597601    5.14624467097602   16.63862326725482
C         6.81658451326855    4.36425456600743   15.95139014956289
H         6.42971830071763    4.20684065757080   16.94715250134104
C         6.04487010468532    4.02990227012436   14.84857454101875
H         5.05888524845617    3.61052295176352   14.98374906768540
C         6.54330263717591    4.22682915147189   13.57615779273220
H         5.95664363000142    3.96015530987998   12.70518655878050
C         9.98627341010071    5.75765408570077   11.84237468543202
C        10.14446748213382    7.13891155664643   11.82833748139427
H         9.28291164207197    7.78257792484681   11.71660650690296
C        11.40974310742260    7.68362025838940   11.95572869598546
H        11.53359327164470    8.75668625796243   11.94428608852432
C        12.51499747596520    6.85983524513602   12.09630245158160
H        13.49964121426975    7.29214795613615   12.19457947420207
C        12.36032563702616    5.48251496941674   12.10391174336502
H        13.22218036470753    4.83999392693623   12.20684263968942
C        11.09997384953799    4.93132410375426   11.97063144305536
H        10.96548748454320    3.85640142962907   11.96089397010573
C         8.41092993961080    1.37500503790692    9.42497686409353
C         8.41990590926354    0.37071986822740    8.75043682462852
C         8.42857481796664   -0.80325536317099    7.95546989738861
C         9.44816273300734   -1.00666825164981    7.02697739431634
H        10.21326077761072   -0.25079867956815    6.94795088908064
C         9.46454776171244   -2.14474696691854    6.23827878601709
C        10.55068055328559   -2.41776486234759    5.20666621711583
C        11.60789679483715   -1.31119809053589    5.15723058444816
H        11.16198107279708   -0.35676550586466    4.88676155106722
H        12.35807934905731   -1.55734948365201    4.40739416776210
H        12.11065993471125   -1.20872676107477    6.11624657195190
C         9.90845947634845   -2.52403363864244    3.81635105003519
H         9.18812345568290   -3.33651047086968    3.77307594696224
H        10.67132701761809   -2.70497611223226    3.06103827535518
H         9.39133015129331   -1.59838937944420    3.57114326268403
C        11.25813719488509   -3.73486787810413    5.55525221703968
H        11.69101619991719   -3.67502011489528    6.55192243746508
H        12.05655179399731   -3.93430556657314    4.84256942968088
H        10.56806138395219   -4.57403599702125    5.53493304715779
C         8.43865909173573   -3.07032421544244    6.40178145882096
H         8.44140273314829   -3.95951180291050    5.79015052492549
C         7.40904461721540   -2.89583343591961    7.32124158041244
C         6.32639672317313   -3.96083136498236    7.43096996733849
C         6.97226903760810   -5.30021197826237    7.81248827852646
H         7.49754960487770   -5.20593999571851    8.76089431197503
H         7.68588714281854   -5.62570550612979    7.06043857233804
H         6.21024358130203   -6.07103056968725    7.91396558483101
C         5.61341382899437   -4.09347789003236    6.07786149138781
H         4.82021657012012   -4.83647910082156    6.14039363585691
H         6.30242265393858   -4.39740544390653    5.29443171180878
H         5.17296310238742   -3.14034585294353    5.79174890511782
C         5.27370397258256   -3.62398381127557    8.49063774608969
H         5.72554339901623   -3.53826756988407    9.47624238935324
H         4.52858834577332   -4.41704784879016    8.52880750020241
H         4.76342200882413   -2.69354944086222    8.25230450015834
C         7.41529823203322   -1.74963979562697    8.09829928907182
H         6.64571856338857   -1.55496701991744    8.82820460801941
P         8.37816066836763    4.92749464293529   11.68098544605145

