98
CSD_code = ARUQEL | q = 0 | S = 0 | Stoichiometry = C38H55ClN3Nb | MND = 8
C         5.09056312987090   17.28725262104395   11.87369906596752
H         5.32891222492983   17.94441744055666   11.04445275981272
C         5.64264724368239   17.34657578750530   13.16834170951572
H         6.42557613410540   18.02226218101258   13.49291980853318
C         4.89855940312349   16.48915002998692   14.00190952717639
H         5.03869227426933   16.38020024977578   15.06854801266064
C         3.88800054920596   15.89681740949076   13.24018196307695
H         3.09754997949295   15.25871824752755   13.61440991739955
C         4.00872041482575   16.36472523386814   11.91132885633914
H         3.27307037423371   16.23885783478813   11.12701412315277
C         7.88508606043997   14.93606655397037    9.65490048742311
C         9.29506615946426   15.01616381510160   10.27219210129638
H         9.36605837679616   15.91046719307944   10.88996760951975
H        10.05623971568323   15.04740442572363    9.49776323324603
H         9.45241158016320   14.14760652276586   10.90886256977888
C         7.60882297524679   16.20286697707212    8.82226438806809
H         6.61684241501448   16.14823125395424    8.37953945764189
H         8.34627434710378   16.30267586454941    8.03084544371638
H         7.65862741671689   17.07630726664236    9.47085358907351
C         7.77155969755603   13.68451335798377    8.76865124853749
H         7.92672781720409   12.79629971025366    9.37457349152578
H         8.51453029712995   13.71902950195893    7.97657903468415
H         6.78078065112537   13.62577821060001    8.32817318053449
C         5.60910589108508   12.21067927016286   11.29970957410816
C         4.71976112822160   12.15602523924889   10.21793175093015
C         4.93058112161780   11.20781068217085    9.22498637212254
H         4.25963214929405   11.15991672047369    8.38134373154348
C         5.98067634973951   10.31485283027774    9.30587700971182
H         6.12120386885117    9.57345476681058    8.53370151881759
C         6.85465562132895   10.37468027763399   10.37513255700321
H         7.67318250883786    9.67462520161619   10.42694751434655
C         6.69588059422969   11.32344446716585   11.37591400456252
C         3.55732078272753   13.11746472843475   10.10899070583822
H         3.45599377213614   13.64601397801035   11.06470095306512
C         2.23661708012699   12.39912671498443    9.82205827387313
H         1.40850841955639   13.10111203503801    9.89682313939678
H         2.07122950411243   11.59456346055502   10.53466094438774
H         2.22803960920128   11.97715101915013    8.82070492887632
C         3.85604609363647   14.15733503982993    9.02457906089333
H         4.74667058077975   14.72430071559207    9.30382513839829
H         3.01585259931484   14.84027424839694    8.91158919911604
H         4.02885808776948   13.66972511955221    8.06781663678339
C         7.66635365011776   11.40103402001833   12.53378322195345
H         7.62412022547474   12.42066949744682   12.94016431779046
C         9.11154899094595   11.13900211421447   12.10618929984707
H         9.27803399014412   10.08822020739684   11.88140801571560
H         9.78463845661486   11.42007851444683   12.91262302508178
H         9.36168445961868   11.73046613353475   11.22882332977693
C         7.25467352830132   10.41274149982273   13.63016221858225
H         6.25654309289399   10.63717606996770   13.99724623171089
H         7.95024426377646   10.46988994178996   14.46424874782929
H         7.25987766237719    9.39575290381295   13.24228189173423
C         3.64530889129893   11.75942369404744   13.30325543151410
H         3.50624513504897   11.20360107947168   14.22601900615258
H         3.85502337342044   11.07885276749897   12.48023518036133
H         2.70680888516857   12.27529079509244   13.10052495756554
C         4.75497993951763   12.76009905507178   13.46145700830322
C         5.09220208017479   13.27887190392889   14.67538983134642
H         6.01668513789192   13.84285077968921   14.75634757795923
C         4.38936618289529   13.10460931458326   15.91883050678021
C         5.13875469817218   13.54233766090526   17.15364587233397
H         4.54144126296663   13.36212512461451   18.04551683965300
H         5.37754830173000   14.60369903425288   17.09785107504674
H         6.07619090431862   12.99290662126971   17.22890273195055
C         2.40090691624005   12.46962642160451   17.04899352030858
C         1.53912836688129   13.50767337508464   17.44237419152595
C         0.62576227890324   13.27233553948283   18.45571095759235
H        -0.04851302470071   14.05888726471743   18.75958798947817
C         0.56276878896308   12.04468362774654   19.08896669266609
H        -0.15455766116763   11.87841664418417   19.87921902735373
C         1.42149022896479   11.03210890899552   18.70544091376705
H         1.37043156692922   10.07602429564193   19.20537024898894
C         2.34448648438685   11.22279289533245   17.69029465556322
C         1.59101353518895   14.84316366137479   16.73423977842097
H         2.53351484737147   14.89929252248056   16.17978320472966
C         0.44550309488201   14.93172105817001   15.72212967482455
H        -0.51474491248852   14.87318436123934   16.23009036046987
H         0.50874702412055   14.10753114140941   15.01421928652416
H         0.49141075598399   15.87126516552663   15.17339892714797
C         1.55190089467391   16.02486174262193   17.70342627383874
H         1.74721559006648   16.95211352849993   17.16724363541730
H         2.30658826282354   15.90777952831129   18.47879727427453
H         0.57907756428300   16.11240608268240   18.18041996115451
C         3.27380497200956   10.10435703083477   17.27543401205413
H         3.94909390874822   10.48528024389990   16.50173818894087
C         4.13083189572169    9.62985941413150   18.45053453151389
H         4.68321568873584   10.46342491235457   18.87957354267102
H         4.84380230329772    8.87920810628750   18.11496105057612
H         3.51392101837354    9.19089611715122   19.23052184073030
C         2.47905786739390    8.94184546397397   16.67662102098313
H         1.81000787654867    8.51137991689722   17.41782611723535
H         3.15383876933580    8.16260844682451   16.32701299487961
H         1.88146971292103    9.28759208847418   15.83560272991601
N         6.96870271829347   14.88353401855936   10.72313908396345
N         5.44869280453206   13.16713796440319   12.34428219027559
N         3.20375365772496   12.63826578102977   15.93878543976536
Cl        7.92352648283420   15.10687545275805   13.65341382356387
Nb        6.06084160474514   15.07692433956994   12.22387594951318

