115
CSD_code = ARUROV | q = 1 | S = 0 | Stoichiometry = C57H52CuN2OP2(1+) | MND = 4
O         7.44082535244009   17.26410148618085    4.52880911610924
Cu        7.78886544311635   14.30732578942407    5.20691265327770
P         6.14917765629111   15.00070195023509    3.72908742810181
P         9.60878171980458   15.66398118484116    5.34219545681849
N         6.60450242781513   13.76322422256851    6.84845784545508
N         7.59901109428899   12.27231353427488    4.82792572665584
C         6.16866912956859   14.51430490928307    7.84148257611056
C         5.18536825073817   14.04692039706781    8.72821430200895
H         4.85431094865762   14.67663604964145    9.53808601132321
C         4.65072746489829   12.79526741552113    8.55558621012466
H         3.88732661705142   12.42108932092675    9.22181779306161
C         5.10204239209551   11.98956248322206    7.49625625632623
C         6.10523577083256   12.52915918090320    6.66486847846483
C         4.59009708303832   10.69015114966290    7.22721519732365
H         3.81961502177483   10.30064664492334    7.87554311589116
C         5.05151896117771    9.96357285980339    6.18046144037197
H         4.65642791737967    8.98095429796848    5.97118980732651
C         6.61438783536878   11.74901349357652    5.57801763367930
C         6.07538557810294   10.47005740195860    5.33324412252111
C         6.60150853597927    9.75531456233960    4.24358309282262
H         6.21254737271252    8.77474322341972    4.01209277256323
C         7.61057713247545   10.30849070190059    3.49796380727280
H         8.03512156444335    9.76790615551192    2.66764820675395
C         8.10183611507741   11.58371290542988    3.82222320744325
C         6.77530726244877   15.88086936484458    7.98485449235020
H         7.44858653004203   16.01331469635046    7.12894034721517
C         9.25167410275728   12.19763352615920    3.07555910017895
H         9.35160323319278   13.22884849104797    3.44049800668101
C         7.60587513470407   15.97407475226477    9.26612241681610
H         8.37834762226104   15.20862778828497    9.27810240731206
H         6.97998696721389   15.85154585392259   10.14662749818558
H         8.08811878170486   16.94719073503336    9.31778429276665
C         5.70579310728166   16.97279092828692    7.94497059208728
H         5.08721823654927   16.87748668694583    7.05422877824828
H         6.18292823793756   17.95007680479241    7.92843432734789
H         5.06250125490890   16.92377684455674    8.81991975950259
C        10.53630560025346   11.43179973845206    3.40551294953068
H        10.73548436048262   11.46195921206456    4.47481125657150
H        11.37728897220693   11.87644142487860    2.87994594016113
H        10.45504483678259   10.39151475862309    3.09945373868981
C         9.01018104501247   12.22894855378132    1.56737804504017
H         8.06577538406819   12.71726055156084    1.33853204472601
H         8.99548537912571   11.22572269053896    1.14953293117055
H         9.80608346834694   12.78747066520313    1.08136641171498
C         5.26303884972905   16.55229154915373    4.07071825401058
C         3.90049749994252   16.79151271468417    3.96989300482724
H         3.22953093593129   16.00290858667683    3.66357106012423
C         3.41169098204714   18.04753123159989    4.28135615009844
H         2.35240880120400   18.24068520151719    4.21142425114497
C         4.26585629602408   19.06589529632189    4.67229691752359
H         3.84778505410287   20.03168878928389    4.90205267603000
C         5.63723920808930   18.86208619658876    4.75651682567410
C         6.11338608885255   17.59265334549318    4.44949395153197
C         9.29367668030264   17.34912518252019    5.96682627602814
C        10.03698836888409   17.99541798809195    6.94377934455580
H        10.88792464418976   17.50458832036514    7.39029057376924
C         9.66870254986844   19.26404345971352    7.35282836475919
H        10.24266727177656   19.76807417601362    8.11503199035604
C         8.57694986834461   19.90112585613499    6.78689393075332
H         8.32745976513266   20.89512815295172    7.11862346187165
C         7.81033845304278   19.28060511543122    5.80908872817764
C         8.17646500795951   17.99299773943221    5.42612980488870
C         6.65197199352717   19.94243457742735    5.08276919413809
C         6.04250775996198   21.09389924336064    5.88106738420141
H         5.65327368825305   20.74437116042738    6.83483746113876
H         5.23649771129786   21.55700734784078    5.31966811395689
H         6.78571457538033   21.86509476172055    6.06152903905255
C         7.19402034795341   20.48835158703788    3.74542844534848
H         7.61334165364531   19.68723589230472    3.13916541616160
H         7.97065550385925   21.22708338497734    3.93091033628685
H         6.39057402757436   20.95724907066850    3.18217806435084
C         6.54812305264267   15.32348724056197    1.97966723989901
C         5.55467099022791   15.47230348361533    1.01573890691896
H         4.51508386476459   15.35367023659085    1.28844453653256
C         5.90639875452105   15.76746440306262   -0.28784570076264
H         5.13811030225230   15.87801843159140   -1.03836318548460
C         7.24029315544577   15.92941407607031   -0.63312339107592
H         7.50605822775495   16.16423450716418   -1.65260151317416
C         8.22870156835310   15.79275548231079    0.32714673102170
H         9.26817592502440   15.92284473441539    0.06439455089711
C         7.88254828232336   15.48758568138423    1.63140571362890
H         8.64221811915629   15.37779411731649    2.39297946521751
C         4.84447528439239   13.74426359493657    3.66358538056863
C         3.94772217133843   13.64607032573950    4.72642479849312
H         3.94698775894736   14.40825858343555    5.49575774802095
C         3.06061246932384   12.58889606540751    4.79520177509066
H         2.35637045163351   12.52961275886877    5.61196515280691
C         3.07989571836401   11.60238220194471    3.82237451251957
H         2.38823182047305   10.77581639607908    3.87864380394064
C         3.98964718223570   11.67670337062088    2.78017775166958
H         4.01100037653192   10.90489775803719    2.02515131956401
C         4.87262174659151   12.73755474797339    2.70260065889693
H         5.58494183852245   12.79293539554712    1.89049463723009
C        10.66907595026805   16.00929104129349    3.89883163738889
C        11.54148943586399   15.00665497678862    3.47881770818223
H        11.63158311741210   14.10158751405890    4.06383939207533
C        12.29989051013674   15.17857647645177    2.33659826841386
H        12.98230961688778   14.40302170273443    2.02157639672080
C        12.18886151738215   16.34660255601257    1.59847879507134
H        12.78168237698557   16.48035186593442    0.70642889169091
C        11.32006970947007   17.34384926084124    2.01003144321697
H        11.23537477888881   18.25650518316650    1.43905335412974
C        10.55799513092924   17.17804641644082    3.15284171555954
H         9.88121476504681   17.95943765649352    3.46550444436559
C        10.80744627020861   15.00405552057973    6.53945269121183
C        10.35963147939544   13.99725430496793    7.38834218159707
H         9.34048973954599   13.64107904207608    7.28440786076216
C        11.20952478238925   13.45626937615213    8.33616589831935
H        10.85935646342154   12.67541027547141    8.99505499595522
C        12.51345322012853   13.91422095113080    8.43421684650183
H        13.17912522002120   13.49264940508846    9.17176981424729
C        12.96876946634793   14.90652362359783    7.57953207293200
H        13.98812802863008   15.25482670223520    7.65229072281251
C        12.12266434755304   15.45202273379464    6.63145247700608
H        12.48185452296184   16.21640850609266    5.95596488456505

