54
CSD_code = ARUTIR | q = 0 | S = 0 | Stoichiometry = C22H24FeN4O3 | MND = 4
Fe        6.77299438192937    7.88451505601065    4.89236603730143
O         7.53477032667620    7.66529691649373    7.57614864811236
N         7.22405331778132    7.79518584524501    6.43991968257565
C         6.40460487568439    6.18463918535337    4.39962101624992
N         7.54983344807619    8.53957720908882    3.63741471562030
C         4.87504341913503    8.84524514586227    4.92764701900521
O         8.11249356474845    8.95752678335475    2.68165739063004
N         4.27414355008067    9.53210314393142    3.92822950026408
C         3.05150159776039   10.00915734207241    4.32025361310754
H         2.42543908470792   10.57841553347114    3.66385874608572
O         6.23916617518067    5.08768324155701    4.08785440210953
N         3.99377033848869    8.90769909463295    5.95302307961093
C         2.87407299413917    9.61396751634054    5.60156042458188
H         2.06272947437637    9.77085485283911    6.28270196640915
C         4.82928765029316    9.76878293747640    2.63949189575507
C         5.58609364840022   10.92116999520547    2.43086829999031
C         6.10756572093419   11.14486673831828    1.16734311933223
H         6.70589846219382   12.02718796675402    0.99329306320945
C         5.89432242365199   10.25037908520064    0.12740230197642
C         5.13601025722332    9.11313629146064    0.36590257679097
H         4.97073650386171    8.40699063816297   -0.43497706892354
C         4.59538095761460    8.85347538880529    1.61551933058519
C         3.79356790436733    7.61580782189254    1.88038195070371
H         3.68400756703863    7.02800161903216    0.97346459507795
H         2.80149100048619    7.86639575305227    2.25650583189453
H         4.29451941306637    7.00564061763555    2.63389332959944
C         5.84476561842224   11.86721840039812    3.56382820056948
H         4.91056079337639   12.23863786751606    3.98562246617154
H         6.43713103259440   12.71360814031231    3.22818570301349
H         6.39099204358126   11.35276552293065    4.35643095728015
C         6.50465857618423   10.49460202819419   -1.21748194192460
H         7.53033148116714   10.12554011861127   -1.22242877138990
H         6.52976883635733   11.55763448878080   -1.44622288926857
H         5.95352766909230    9.97525179082220   -1.99759065741788
C         4.19079931264440    8.34684385844474    7.24605430463234
C         4.78475890894896    9.12645699857976    8.23805272635930
C         4.96028852628237    8.56949941948738    9.49398348229978
H         5.43079161475564    9.15658862684708   10.26899524953599
C         4.56321246452067    7.26836130455836    9.77122991823526
C         3.97050826462077    6.51956460156646    8.76480501262563
H         3.66277378103991    5.50406329131040    8.96841196934784
C         3.77578769554391    7.04040624425293    7.49493542459264
C         3.14953449464652    6.22774536036917    6.40299154478444
H         2.89010866977049    5.23637680225854    6.76320972908023
H         3.84622757179974    6.12576962281642    5.56976772419800
H         2.24653801784611    6.71026937098723    6.02834534890577
C         5.24210134305633   10.51945907167931    7.92850985564321
H         6.00406890290612   10.49388553813807    7.14770683984008
H         5.66737209653938   10.98760226411503    8.81157998542996
H         4.41475451688235   11.13266126227835    7.57055433555995
C         4.76010076841349    6.69419028156804   11.14010442214129
H         5.70253869090462    7.03182843490420   11.56468724744899
H         4.75545265336193    5.60766658781913   11.11023372052120
H         3.95634759685600    7.02100098122066   11.80105262412221

