67
CSD_code = ARUVOZ | q = 0 | S = 0 | Stoichiometry = C26H32BN6NbO | MND = 8
C         2.37238506434786    3.85292120928062   12.07695601089975
C         3.58567704206671    3.22095674385436   11.73103519832707
C         4.43940945867421    2.87488333634386   12.76429807339805
H         5.38769565762970    2.38741086655286   12.55583751988738
C         4.10414825875306    3.14445825082675   14.09219627505854
H         4.78771474661259    2.86663148786340   14.88311597760203
C         2.91041748854996    3.76659627607739   14.40436226330839
H         2.66208109907918    3.97710605712892   15.43516862689603
C         2.02949258289707    4.12615830123872   13.39209940774155
H         1.09064390562848    4.61694677743086   13.61344950013637
C         3.27081428393835    5.50948825361286    9.82236077455753
C         3.88085847701049    5.07318685943246    8.76416627661344
C         3.04069380245855    6.77701633762644   10.56477484262795
H         3.51238845043288    7.61918669996164   10.05232685394259
H         3.45040319849990    6.70023289141572   11.57411999449791
H         1.97116229358055    6.97050539210577   10.65666966301841
C         0.60050996346917    5.76004818370926    7.81659450820649
H         0.25757742213651    5.54660568524483    8.82845986998618
H        -0.15136066979750    6.34998397208128    7.29814718994136
H         1.52139597872404    6.34003412012488    7.88607408875222
C         0.84076856894137    4.48997845443407    7.08157793108406
C         0.38011188112833    4.13089894478586    5.81063621783056
H        -0.22145699684475    4.71889411028482    5.14709654508684
C         0.85789467070105    2.85203474340963    5.59118501984716
C         0.66692205273454    1.98677543747567    4.39704784210399
H         0.13863501099961    1.07238973231466    4.66170402212114
H         1.62604708712121    1.70900611710906    3.96354120386651
H         0.08609086150452    2.52329420456128    3.65162003922808
C         6.42432806530650    2.70481794491581    9.18838236041775
H         7.41318547885104    2.88781724266445    8.77269456385248
H         6.53528193002673    2.03929425535257   10.04687104508410
H         5.99512230144146    3.64555672138721    9.54130353505145
C         5.55310874386235    2.06253261959628    8.16361465766525
C         5.95068639511018    1.26526849271967    7.08712435544167
H         6.95154969452571    1.02104633802043    6.79296580451069
C         4.77720899908659    0.85368394267073    6.47956824384493
C         4.61553393875582   -0.01238306281203    5.28271504517573
H         4.08968160764844   -0.93070171603857    5.53872041351909
H         5.59435290813824   -0.26799158939348    4.88576147590013
H         4.04386159497322    0.49972352762063    4.51117408677767
C         1.16116221078560    0.94558454895430   11.90289394948194
H         2.15800267590205    1.09611475827340   12.32003082647700
H         0.66330505826878    0.15367041480881   12.45798045540563
H         0.59322105782058    1.86812189786247   12.02812129498676
C         1.22983237310110    0.57079092221829   10.46478342295226
C         0.66276400345947   -0.56212160461635    9.88098962616758
H         0.10253559158214   -1.33218324347114   10.37140897714616
C         0.97145499067973   -0.47895909286299    8.53587110010590
C         0.59235856787841   -1.43299062563068    7.46063924185701
H        -0.00982297183049   -0.93816651702014    6.70110936238902
H         0.01450166475046   -2.24624863688148    7.89184881328906
H         1.47576535339023   -1.84683160355326    6.97785829511494
C         1.47299884327670    4.17183074745460   10.91159043934276
N         1.55434587206980    3.48742181629868    7.58402483952858
N         1.56337193587582    2.49231170909148    6.68185500305509
N         4.22321397532466    2.12734270383065    8.18706878376270
N         3.75398517424231    1.38717627063694    7.17324740029258
N         1.84813928092606    1.28923116540684    9.52579095769141
N         1.68958192300589    0.64357638660351    8.34934802576932
Nb        2.94884752157313    3.35863056723450    9.64963999172746
B         2.24471142021827    1.15948236627091    7.00279149981614
H         2.04617750671056    0.37144524603855    6.14983533931861
O         0.41063416158322    4.74993440789066   11.00487801695101
C         4.69991505157393    5.63127630480859    7.64918495949183
H         4.05078074613682    5.80799855502512    6.78817746447861
H         5.48134746155401    4.93739481344446    7.33764819387549
H         5.15984525143293    6.57977155888127    7.93756639571431

