82
CSD_code = ARUVIT | q = 0 | S = 0 | Stoichiometry = C28H44BN6NbO2 | MND = 6
C         3.12270064496374    9.42228755710491    0.38860164216623
C         3.84763836842236    8.42455949327975   -0.53308856387915
H         4.24249707650794    8.96099283159078   -1.39580930269944
H         3.18762360391660    7.63830281399918   -0.88712612932632
H         4.67509964752642    7.98695016386680    0.02666729135187
C         1.97583627481948   10.10614148261217   -0.37872925930110
H         1.38593443896691   10.72534651255649    0.29282134819378
H         1.32942270646938    9.36646852755840   -0.84262911315256
H         2.39273772092845   10.74140506091867   -1.15921215172594
C         2.59997372372986    8.67693852518783    1.67593710633765
H         3.47172907315939    8.09833443351697    2.01508411420864
C         2.29549277772471    9.67574063051196    2.78494824652855
C         0.84921570753012    9.82507584514016    3.19503377931433
H         0.72004866601332   10.63984056298656    3.89982926814756
H         0.48879148368364    8.90619368402353    3.65565416657321
H         0.22485144930827   10.02939369456136    2.32636099669753
C         3.30229610621635   10.35945706692278    3.34377499778532
C         3.03861212318801   11.33111693779307    4.47918510827807
H         2.45344518458016   12.18866804555442    4.13747121820344
H         3.97125428224312   11.71406990412025    4.89628115382334
H         2.48749010452473   10.84958658381268    5.29011079069778
C         1.46661857822513    7.68840511964202    1.38860264534820
H         0.54891133931811    8.20525880991491    1.10823763386184
H         1.75221266500818    7.05879183685725    0.54058563990400
C         1.21497176040501    6.79066011614180    2.56401022845491
H         2.05305354554996    6.66966837514261    3.23664654452678
C         0.08093185444441    6.14207165595270    2.80099088912056
C        -0.08913374079145    5.24886577250753    3.99377970157696
H         0.81051350354674    5.23499456861345    4.60329097743575
H        -0.31023298122462    4.23025889058243    3.67454843213884
H        -0.92277014187137    5.59190647405815    4.60714773722499
C        -1.11751134341598    6.25653173404911    1.89849860819914
H        -1.49766805370828    7.27838375687631    1.89040259922211
H        -1.91578698759688    5.59853640545055    2.23172098120204
H        -0.85582111476310    5.99253636833764    0.87479022421199
C         2.99212333589133   13.29837812935235    1.30531112529288
H         2.91629081915523   13.91609076934292    0.41002679296742
H         2.09850903438284   13.46819744931416    1.90632010777482
H         3.03838876562899   12.25010706392529    1.01870409423777
C         4.21240917444084   13.65991922111597    2.07336069378961
C         4.55226982131431   14.92097435919814    2.57447833071008
H         3.98164443052763   15.82448039628606    2.49701268209438
C         5.77784379721348   14.75393611686519    3.18881562251699
C         6.59733322285439   15.77423989691829    3.89441149709348
H         6.77148756584409   15.48119744556852    4.92827520615711
H         6.07421895424204   16.72692929930769    3.88218359477067
H         7.56469422985743   15.89840982056053    3.41051135863212
C         5.37367316150709    8.64417732343346    5.35937914714119
H         4.31545454254919    8.88568250469166    5.46379006324501
H         5.68441358805289    8.01448138477357    6.18911519101071
H         5.49739349711272    8.11517858958358    4.41129458023786
C         6.18847428843803    9.88544360740553    5.32528827799010
C         6.99736717442454   10.41411664221306    6.33417613856990
H         7.16097451608532   10.01179142598633    7.31338983400068
C         7.54873146506677   11.56681558425523    5.80471919064144
C         8.48876609597740   12.51823089035577    6.45477545376230
H         9.43309493288172   12.55722317196490    5.91474211203813
H         8.68097009855695   12.19482418019509    7.47417317475597
H         8.07048456840963   13.52282712027310    6.47652387759922
C         7.61396405731447    9.46583068221468   -0.14102335955181
H         7.17727397078726    8.69492917927382    0.50167770856585
H         8.43037178632610    9.04400497162341   -0.72211683666588
H         6.83688072463709    9.81872988832044   -0.82394902460746
C         8.10036337485425   10.58479839214499    0.70880801688611
C         9.31269321819063   11.27849246808555    0.67322330096636
H        10.13119760966967   11.12558184424975   -0.00093891453396
C         9.23766247478765   12.20756661146745    1.69887528132028
C        10.25104440297681   13.21235964561006    2.11444116182460
H         9.83978440999165   14.21890320338031    2.06034370368233
H        11.11570929176826   13.14872992182621    1.45938645918731
H        10.57159279938608   13.03331740239815    3.13937113196918
N         5.17448048176633   12.79200158839288    2.37142347091448
N         6.13018789348115   13.46022839634602    3.04909431713233
N         6.25269365783993   10.67965003101294    4.25593623097153
N         7.08031795849239   11.70258422953801    4.54983930067589
N         7.35570166087842   11.07800275931178    1.69279099521117
N         8.04048990966857   12.05839176511407    2.29473591680794
O         4.05126427365730   10.36273119429231    0.79946524182135
O         5.60438557509730    8.69124093436491    2.34155796364987
Nb        5.23803215210404   10.35190324373791    2.22139602153891
B         7.42735768879182   12.77892273586389    3.50729550705598
H         8.18325949957712   13.56780627680805    3.94936870749365

