47
CSD_code = ARUXAM | q = 0 | S = 0 | Stoichiometry = C14H24HgN2O6 | MND = 8
Hg       -5.79427934423478  -10.03828708178866   -8.64199249179824
O        -7.00687241039105  -12.65475840632246   -8.40298109543886
C        -6.16567878648601  -13.63726636677414   -8.96079545142787
H        -6.07450004430268  -13.49317821861846  -10.04634985322189
H        -6.57941166634719  -14.63810985206506   -8.76313458336479
C        -4.78799898502192  -13.51692199784322   -8.32392499169123
H        -4.90294170366455  -13.40009162732960   -7.23744471969462
H        -4.20370734047436  -14.42698580323381   -8.52903415753821
C        -9.09731218131207  -11.51579178810270   -8.31272211370991
H       -10.17111768874335  -11.65892042951852   -8.50835542922789
H        -8.92470019164594  -11.52153455300249   -7.22755487151022
C        -8.30488259503233  -12.64919479802161   -8.94980240955241
H        -8.80067639037153  -13.61000873415086   -8.74271088732962
H        -8.26291268439623  -12.49233688446217  -10.03658596629223
O        -8.66903636706611  -10.29621256260944   -8.87247234704445
N        -5.79457410350160  -10.03721558952139  -11.93690091898483
C        -5.79565710359576  -10.03707529768051  -10.78741851374335
N        -5.79459485249646  -10.03754417616566   -5.34784209236802
C        -5.79566916180000  -10.03656172576390   -6.49733810714097
O        -4.13366522683418  -12.39673185874078   -8.87250498498459
O        -2.92218913812856   -9.77794952138015   -8.40298681301672
C        -2.49191187472682   -8.55820104125193   -8.96080460148835
H        -2.66230752238802   -8.55128639460802  -10.04635632113996
H        -1.41828662542806   -8.41608973405138   -8.76316226295747
C        -3.28497378482157   -7.42526710591126   -8.32392722297207
H        -3.32867221932621   -7.58323581699099   -7.23744935269877
H        -2.78899848404393   -6.46422083572923   -8.52904288359031
O        -4.58227351663781   -7.41870693072862   -8.87247321540215
O        -7.45591442201501   -7.67894418498382   -8.40300965177597
C        -8.72740329230238   -7.91617003877707   -8.96080403744612
H        -8.64820461480929   -8.06719421110829  -10.04635444949693
H        -9.38727619819435   -7.05743782616113   -8.76314265883667
C        -9.31202239708410   -9.16944895683294   -8.32392912885405
H        -9.15337349988394   -9.12830965468480   -7.23745000006557
H       -10.39230004659895   -9.22045231800826   -8.52904758743657
C        -6.80209509780236   -6.55758993125438   -8.94979903098276
C        -5.42432094223883   -6.43802163875838   -8.31272044063095
H        -5.01136877520532   -5.43651516830471   -8.50834558094392
H        -5.51559964558555   -6.58465016006938   -7.22755401977521
H        -7.38630355509099   -5.64782915199848   -8.74269471842993
H        -6.68722533855123   -6.67235666438794  -10.03658270488907
C        -2.27802679538407  -10.90485424745900   -8.94981680752196
C        -2.86336043065781  -12.15782128552400   -8.31273178269624
H        -2.20249152148472  -13.01619507945616   -8.50835074191173
H        -2.94470284777968  -12.00546272963726   -7.22756379132656
H        -1.19803858244108  -10.85382173664856   -8.74273626270013
H        -2.43487000367097  -10.94693988357844  -10.03659794494957

