66
CSD_code = ASABUT | q = 0 | S = 0 | Stoichiometry = C26H16Br2F17N3OZn | MND = 5
Br       -1.39432587070171    0.08703115595559   14.57835345569958
Br       -3.52194040075018    2.14870955418946   11.30042365924253
Zn       -1.70341742449177    1.08512773427650   12.46119155225223
F         1.86259947577356    3.73143253925312    2.30031416110086
F         1.44107613208842    5.41273788832648    3.59091955095121
F         4.09198782379196    5.04053897411729    4.68686877468319
F         4.40663116646985    3.58950959363156    3.11797330317856
F         3.33508134398440    5.72436401868377    1.33018246905892
F         3.61325376420581    7.00251837267006    3.05213242247660
F         6.27056315742846    5.69175254984347    3.24132897966634
F         5.83037511365229    4.97889960705433    1.24773006081109
F         5.01545766466326    7.78013305585471    0.72219958609769
F         5.99402933118115    8.20497799705286    2.60429568722358
F         8.18582793107909    6.52297135662617    1.52476330208201
F         7.15066312761982    6.74000472075467   -0.36055423936748
F         7.00847446707289    9.61529006427078    0.36477049141306
F         8.47307519009335    9.09257496152145    1.87147685056823
F         9.91159196433538    7.73378063225864   -0.24590874920976
F         8.54694096092450    8.69029384923384   -1.60885108705695
F         9.76298488168147    9.87727721228213   -0.29366865473982
O         0.39263811635872    2.76245323957844    7.02539932226938
N        -1.73656084806640   -0.84881213782700   11.31378729888456
N        -0.38186028695167    1.32443803216238   10.78279078425773
N        -0.44996183926414    2.89806132511769   12.88040923730270
C        -2.29404137539261   -1.97521902917783   11.71789754050612
H        -2.69169659115812   -1.97664012143561   12.72393974783354
C        -2.36461659646274   -3.10388327469347   10.91489670754345
H        -2.83172948303204   -4.00325020446315   11.28142015854650
C        -1.81576408096218   -3.04183063123414    9.64495290462207
H        -1.84029627151223   -3.90032063730187    8.99049508648452
C        -1.22542628372285   -1.86138134978670    9.22424743113953
H        -0.77227739834383   -1.79822480333900    8.24805378576436
C        -1.20961602084835   -0.77163865149113   10.08985307030680
C        -0.62037315285058    0.53241751703370    9.74624901119594
C        -0.37643315481809    0.93940351856064    8.43845917838583
H        -0.61463712055667    0.28792827721399    7.61573648500648
C         0.12517987495644    2.22221275274621    8.22550515355598
C         0.37096821636685    3.03992798677686    9.33382635416660
H         0.72258298099544    4.04348243253246    9.16712253349388
C         0.09319769346107    2.55391049199668   10.59990235512316
C         0.23329620593238    3.35188658912707   11.82757315887482
C         1.01913954035247    4.49747692871074   11.90906103243829
H         1.58514318235614    4.83695292201578   11.05698473321170
C         1.07830166084105    5.18234564176200   13.11155581374223
H         1.67993534655253    6.07451849806910   13.19994294026569
C         0.35914244124179    4.70330634785783   14.19421811873243
H         0.37792623870905    5.20603554027555   15.14731412917450
C        -0.39003453659526    3.54823854760804   14.02854117744786
H        -0.95644981502744    3.12488812325506   14.84713099578618
C         0.09479318762988    2.03669116064213    5.84465791013849
H        -0.96557159259883    1.75820297996690    5.83003037221712
H         0.70842118023533    1.12698086382329    5.79794529639052
C         0.40055279756744    2.94518119110011    4.65904399365590
H        -0.20001435336874    3.85154105122110    4.74675107346215
H         0.12869213288145    2.43258546376831    3.73605983198640
C         1.88326753012193    3.32269632329177    4.63652403990934
H         2.15049271604587    3.80854092369849    5.57599606778904
H         2.50664391558788    2.43697312172562    4.49808196018490
C         2.17832645046956    4.28378111303126    3.49550877176391
C         3.68782401235033    4.67835823595158    3.45225253711418
C         4.01162074819335    5.85495487923740    2.47985680002010
C         5.53744921721137    5.93355142666370    2.14337966667097
C         5.94148051792918    7.33619496589824    1.58342200371295
C         7.32196400022951    7.29553184177501    0.84913294936066
C         7.94878700053535    8.71698395140116    0.69477578593405
C         9.07156409671670    8.75114079807948   -0.39222688229859

