77
CSD_code = ASAFIK | q = 1 | S = 0 | Stoichiometry = C35H36ClP2PtSe2(1+) | MND = 4
Pt        8.12693369472462    9.10268928743810   11.63120380225582
Se        6.91298690058281    9.39021825478423    9.56125533949611
Se        9.17513004197154   13.03203421620167   15.45527290794574
Cl        6.15913128013283    9.88870597976565   12.53900196019942
P         9.92405645652469    8.42236234577946   10.40374285467294
P         8.72912689861040    8.80039554435650   13.82331261195254
C         5.74541940222296    7.84570757024274    9.73156277605516
H         5.18581473987506    7.73462477342058    8.80433254404412
H         5.06108243442411    8.04959405198374   10.55328634405532
H         6.32249034947246    6.94555231841025    9.93798612896342
C         8.19277869039446    8.63604747080585    8.24959679639517
H         7.61321221573374    8.16126365813520    7.45579937950062
H         8.71652793725348    9.49826584125882    7.82875652394630
C         9.18395359653470    7.66839201053266    8.87916191327034
H         9.97785661825254    7.41538839722344    8.16911564553276
H         8.69698624918007    6.73367931255281    9.17672632035271
C        10.79890628988715    9.86405308778172    9.74824193183549
C        10.46580481488241   11.10155508910267   10.29506877845625
H         9.72277119422974   11.14684718144366   11.09124722771859
C        11.06191189603478   12.25570064510564    9.82221837762528
H        10.80196674901183   13.21247667364533   10.24803588893024
C        11.99058799273949   12.17771808228370    8.79601054985550
H        12.45961703445935   13.07581504202930    8.42536004488189
C        12.31080286474034   10.95072760618253    8.23482447055607
H        13.02351662172361   10.89687790986874    7.42604611217243
C        11.71587317095926    9.79249767237247    8.70247564119944
H        11.95716945885542    8.84016958285570    8.25079124008894
C        11.10793147972835    7.17471721279230   10.96943344692210
C        10.57099128161284    6.10353078775051   11.67986343241789
H         9.50088802310249    6.06039966325464   11.84470033231207
C        11.39903311328608    5.12213437994327   12.18692207355947
H        10.98111326718808    4.29346993643081   12.73746652204240
C        12.76922502731962    5.21075020845541   11.99358373414000
H        13.41872589826768    4.44674776658458   12.39165934652275
C        13.30690299787859    6.28260448405837   11.30076939465863
H        14.37454563807168    6.35355391440218   11.15992222421563
C        12.48240125469174    7.27102619919660   10.79204535843309
H        12.90823289598819    8.11700928169727   10.27380230997892
C         8.48715827140457   10.26413237280816   14.90750168320923
H         7.41953081335596   10.37200828827922   15.11392110588783
H         9.02093945632087   10.08070101388577   15.84710895344089
C         9.02671284231040   11.50248332257276   14.21353011712310
H         8.34499465495329   11.83107874027249   13.42494197548501
H        10.01591547710063   11.33078442570487   13.78245137804736
C        10.41148788642264   12.30033820521548   16.73793255267047
C        10.37814381087295   12.83414198054150   18.02106563853540
H         9.67247267194309   13.62060820886767   18.25124286096668
C        11.24402765607418   12.35989204997546   18.98804638223531
H        11.21712902257258   12.77950630600816   19.98207784851969
C        12.13797377371475   11.34491989362271   18.68522386378389
H        12.80747037992129   10.96877588623917   19.44330926980349
C        12.17428569757469   10.82042237198239   17.40471613406531
H        12.87359512845893   10.03527365720810   17.15495486282461
C        11.32205911478958   11.30115505371164   16.42596794027242
H        11.38669276355989   10.89454206136214   15.42726311801171
C        10.45461016189114    8.34704212059346   14.18008781110609
C        10.78854237430881    7.45485421699191   15.19172248517385
H        10.01116473243801    6.95391480623668   15.74957635753135
C        12.11908633610374    7.20462832096795   15.47759116367522
H        12.37550827464758    6.51027337959879   16.26310919129333
C        13.11924109674171    7.84652128833236   14.76622797274173
H        14.15538940310477    7.65616385683770   14.99980187819052
C        12.79076421056891    8.73027869789283   13.75086665706235
H        13.56834885574760    9.23026502860906   13.19366605126638
C        11.46300884725803    8.97201455952539   13.45308254451349
H        11.19821344629280    9.64739574576664   12.64593766290446
C         7.67988734589410    7.50045782488810   14.51049701850980
C         7.07405807398750    6.62836223554481   13.61068431641812
H         7.25191940961646    6.76938951770336   12.54562061548294
C         6.24029754190240    5.62458793214943   14.06366278986427
H         5.76571382254092    4.95306219926497   13.36401207741364
C         6.00531338911148    5.48906247050525   15.42331989707906
H         5.35002477103299    4.71006535776549   15.78107450186479
C         6.59804624275206    6.36036857766420   16.32301914797282
H         6.40244480716879    6.25969903678400   17.37971399805646
C         7.43329524364239    7.36850971897586   15.87356773013819
H         7.87982572061542    8.05421583080095   16.57940015829375

