29
CSD_code = ASAJEL | q = -1 | S = 0 | Stoichiometry = C8H13Cl4NORhS(1-) | MND = 6
Rh       10.44679342495623    4.79311997782503    5.50939461876064
Cl       12.69818880563869    4.31373314198410    5.37114816307796
Cl       10.27813384608738    3.49209897372521    7.43343526475982
Cl        8.16507548798397    5.34336617575410    5.70137376049135
Cl       10.64568382085044    6.11474481329524    3.60272104960191
S        10.79402569584954    6.60888818050155    6.77598353948168
O        12.13540371120405    7.01761002630391    7.14723357910647
N        10.04483452267152    3.21363357890801    4.39144997621819
C        10.64475085151557    2.04200769665412    4.61213859704073
H        11.37139461136637    2.00977018422524    5.41285403826515
C        10.36873512268992    0.91991221295823    3.85648280493798
H        10.88277666723369   -0.00369968064940    4.07555740490401
C         9.43944391080448    0.98512659677054    2.82430716082417
C         8.82906868888648    2.21444319489713    2.60762916457547
H         8.10028347488991    2.33742146292790    1.82075236403394
C         9.15409149090586    3.29657674822508    3.40212072339918
H         8.68891115489678    4.26019890868313    3.23971264588515
C         9.10085233577603   -0.21899334481438    2.00289127378416
H         8.66925015177449    0.07156055646617    1.04810164661842
H         8.37346200243999   -0.83364520282157    2.53424971708958
H         9.98693665152882   -0.82491248851792    1.82609375686517
C        10.00143977097535    8.09549537496243    6.08000973824658
H        10.12626405374073    8.90380110329347    6.79150052183172
H         8.95857185542572    7.86313498458291    5.89734452345410
H        10.50222862980140    8.32299174713781    5.14487391039008
C         9.84531165136811    6.56547724793288    8.33203591667830
H         9.99222627123557    7.51284589072405    8.83819533700626
H        10.23366018984255    5.74565786665787    8.92719988598617
H         8.80490114765862    6.38773407140845    8.08510891668255

