27
CSD_code = ASAJIP | q = -1 | S = 0 | Stoichiometry = C8H10Cl4N2ORhS(1-) | MND = 6
Rh        3.79698414478204    4.38784007242749   10.97830993528713
Cl        5.74827918106411    4.14508340386259    9.73430127446699
Cl        5.07700390531210    4.50533174220227   12.89155931325968
Cl        1.85816832901010    4.58023165183321   12.25034210419345
Cl        2.48352128818526    4.17055412021140    9.03964426328864
S         3.63249990727724    2.14491864934852   11.10160563937105
O         4.27663529061160    1.41539983345398   12.17601027792043
N         3.88959038529226    6.32697384969510   10.78943108661040
N         4.06758436495735   11.63141224122709   10.22399930775466
C         4.12889001187498    6.87860158624833    9.59358355051282
H         4.28253805017430    6.20100016222998    8.76343416326041
C         4.18417373698866    8.24231688566331    9.40286764593625
H         4.37741499803022    8.64600948765924    8.42120145688607
C         3.98660506750313    9.08896520320270   10.49734385163241
C         3.74472716216939    8.50481564361819   11.74349507699605
H         3.59056879725507    9.11720227191791   12.61821532509607
C         3.70503738194124    7.13063043451546   11.84433796729874
H         3.52692500539643    6.64986584134447   12.79722060866584
C         4.03149530663334   10.49079259002341   10.34758757651611
C         1.90412822674064    1.56909691586432   11.07704530610579
H         1.41572695842845    2.00863476881610   10.21495699199624
H         1.43213839238486    1.91413407834690   11.99100765094072
H         1.91412919552612    0.48595548690645   11.03507778351631
C         4.16069581068105    1.32928647181147    9.56055004220472
H         3.95406771676805    0.26945756078285    9.65631516850626
H         5.22525676653561    1.50520097858931    9.44712476868439
H         3.61801461849561    1.78248806820399    8.73883186308930

