59
CSD_code = ASALIR | q = 1 | S = 0 | Stoichiometry = C26H25BrN3O2RuS(1+) | MND = 9
C         7.43413710879060    7.68327245168819    1.80874283776150
H         7.74524555244320    8.69382122026950    2.04515402069874
C         8.22891148546394    6.88371012793597    1.01813119713528
H         9.15009547844327    7.26943504674173    0.61473450238693
C         7.83156000201923    5.57016832599329    0.78461227063715
H         8.44240325182634    4.90364740461935    0.19806764269228
C         6.64490683634459    5.13707341572931    1.33305702927697
H         6.33894275174215    4.11450601643717    1.17943084899532
C         5.86180634300031    6.00578837480747    2.10652297602297
C         4.58290819771349    5.62781788768956    2.68072012522247
C         2.90041346768582    3.80886941814031    2.92955678006543
C         2.29330861646497    4.14738310177284    4.13639449027962
H         2.70384400067933    4.91975964574401    4.76374998052502
C         1.17111729708984    3.46692061304804    4.56218213839884
H         0.71830482699637    3.73103888931183    5.50303720884353
C         0.63513901351718    2.43474842915126    3.79430698988923
C         1.25528658768216    2.07738457400273    2.59671741031672
H         0.85876162668057    1.27418583685453    1.99866044704492
C         2.37601874914016    2.75674917514166    2.17470857112640
H         2.85213989439963    2.46879483620439    1.24856005669913
C        -1.49260726850860    1.22707905295787    3.36828981734749
C        -2.50075721367865    0.58960822712352    4.25702070247393
H        -3.37270951417049    0.10313298685714    3.86151012892589
C        -2.12364599909938    0.74223514461631    5.52304071573665
H        -2.60680952563885    0.40608822759462    6.42139011869827
C        -0.84172963386695    1.49636122133352    5.56287318181735
C         6.38900669237599   10.62839614731948    3.35336101909836
H         7.27291342861633   10.98862317428616    2.84075271755604
C         6.42044089653035   10.41790343252564    4.73658214305955
C         7.66316945247208   10.65047072246154    5.55729317068297
H         7.53190655708570   10.15199932217369    6.52352832195658
C         8.91910204721385   10.07633853887218    4.89992287844226
H         8.77475413089052    9.02438839930688    4.65598395870575
H         9.75203737704420   10.14704288576000    5.59316116997646
H         9.18861954274623   10.62330802509799    3.99912894519525
C         7.80864882928552   12.15796169404121    5.80113265135892
H         7.94533594111086   12.68935896220496    4.86158633433488
H         8.67454587888186   12.34212291280777    6.43029046486600
H         6.92882853804894   12.55753459187923    6.30055160749049
C         5.19550159361821   10.06191049872987    5.38277949714636
H         5.19001590099371    9.95339570592138    6.46353464306650
C         3.99823183714224    9.97014363901448    4.67449245838663
H         3.06475401956530    9.80701084816540    5.20379373642567
C         3.97963035980005   10.12840092695733    3.26146406766555
C         2.68611136498735   10.10800909128197    2.50980810954810
H         2.21662708406974   11.09060504191743    2.58061821971221
H         1.99718190665008    9.37725973482611    2.92962353146117
H         2.84325524853469    9.88359041873897    1.45679546322511
C         5.19792846836403   10.42655002573984    2.61559667322679
H         5.19322440762633   10.63365267187990    1.55009936635275
N         6.28135839877246    7.27880846276651    2.35176626001321
N         4.05574423963862    4.42331863333254    2.43421757403239
H         4.53611698867670    3.85360097770999    1.74648791457814
N        -0.51277652400491    1.75123425284333    4.22324551089561
O        -1.49386416246761    1.31451112640392    2.17222713623829
O        -0.19261110943790    1.82351851362193    6.51604469636164
S         3.76962432663677    6.81778989441859    3.56461944382203
Br        6.59974896320573    6.96736556564958    5.35380386247064
Ru        5.43349544217203    8.42979550959068    3.73783426363324

