71
CSD_code = ASANEO | q = 0 | S = 0 | Stoichiometry = C20H42BCl2NP2PtSi2 | MND = 4
Pt       -0.71309468581926    9.26181508943750   12.22919338974460
Cl       -1.92428105634947   10.99354206889647   11.05602225122265
P        -2.75639494082042    8.57221743516573   12.96399082614295
C        -3.80058163988327    8.08802418496566   11.54374679548600
H        -4.80083377140999    7.81367226817955   11.87857570871138
H        -3.34120631440065    7.24420209175259   11.03039771802384
H        -3.85892870641658    8.92931353331674   10.85533342200007
C        -3.78963803551244    9.82604896750554   13.79792929244790
H        -3.82240454031219   10.71672024407662   13.17337663171544
H        -3.34663624400223   10.08367582926730   14.75820485065529
H        -4.79841242772349    9.44181196871879   13.94717043360387
C        -2.94599920072643    7.12429079146992   14.07050456245661
H        -2.50534122896225    7.34851849726254   15.03839103543991
H        -2.42434643483067    6.27050282393860   13.64348549229283
H        -4.00086622446503    6.88398604818160   14.19675136832869
P         1.08567174414724    9.97201676106687   11.02218063580873
C         0.77634434822726    9.82673552488777    9.22798455298195
H        -0.13065478780512   10.38052766682356    8.99240362632187
H         0.62492813198822    8.77906376378460    8.97205130030089
H         1.61589545175580   10.22678521499867    8.65974528528421
C         1.50344410899525   11.74459384789793   11.19665406631295
H         0.59258265152388   12.32517276080348   11.06040046626269
H         2.23973389856465   12.03412284926589   10.44750490476690
H         1.90293747598688   11.93685699996649   12.19145897025047
C         2.73410030471210    9.18231216754613   11.18026967811666
H         3.43983670814340    9.63614495243409   10.48585954115062
H         2.64589602706860    8.12004933941719   10.96387979094793
H         3.09945600229817    9.29805029632300   12.19793704580858
C         0.28728307185489    7.87930610506044   13.28022847782532
H         0.74259558596855    7.02792686263456   12.77183132931971
C         0.42629433053669    7.95396914003584   14.61707836967574
C        -0.22005443166422    9.06731052320448   15.34185940596984
C        -0.24400321810764   10.37032967357432   14.83456979934885
H         0.33295940400269   10.62200303260391   13.94413679780096
C        -0.91642316753361   11.37942142820686   15.50391183355772
H        -0.92062935623462   12.38034252962924   15.09774203998860
C        -1.58292912543112   11.11112198353578   16.68802464006556
H        -2.11431500331799   11.89735708828660   17.20408101624092
C        -1.55219469243061    9.82844008945775   17.21213297499258
H        -2.06225014966323    9.61346142415484   18.14050796348215
C        -0.87440319066315    8.82271462907490   16.54957365079476
H        -0.84816759953262    7.82564363808477   16.96424544158162
B         1.16245606234432    6.85636457088065   15.44712711795343
Cl        1.12672550083986    5.23396997185901   14.82505994052512
N         1.84697915725381    7.08197797041720   16.66923861100072
Si        1.75938969933732    5.83771091780606   17.93474900971003
C         0.07855463669361    4.93123448369864   17.88402649258619
H        -0.74767885939639    5.61589360521333   17.71315976029201
H        -0.10291686430659    4.43284766236108   18.83182554888273
H         0.04148014183852    4.17744653043904   17.10553686825821
C         3.18032112684411    4.58085199436774   17.75304602754991
H         3.18721088559894    4.14196379203235   16.76002353209613
H         3.06876200441943    3.77297961988689   18.46983467160766
H         4.15040057055948    5.03751261172588   17.92008783158956
C         1.79379589993118    6.69458523997037   19.63675072261867
H         2.63698733847688    7.36137139572267   19.76465258790154
H         1.84873562865942    5.94189710447371   20.41651329100977
H         0.88969871298469    7.27083025295834   19.80642603622845
Si        2.87210556197045    8.51098944070628   16.84300536374980
C         2.06785665844156    9.87055829739149   17.91008941378579
H         1.38590704840674   10.48111762891301   17.32725702689846
H         2.82956409886619   10.52713981402705   18.31903362790719
H         1.50594354069308    9.45953384944701   18.74102528724916
C         3.30264494760930    9.19614524783127   15.11633702370224
H         3.64246439165054    8.39862124748672   14.46229415488878
H         4.09636742029409    9.93412121302853   15.18221400987558
H         2.44839666627562    9.66688714366479   14.64559714412117
C         4.54991807657794    7.97086907972591   17.57740647592400
H         4.46278648870826    7.54194290296097   18.56850972076769
H         5.21128865174928    8.82853318676048   17.65192518848118
H         5.03888573500591    7.23748108941535   16.94352012953757

