105
CSD_code = ASANUE | q = 0 | S = 0 | Stoichiometry = C55H45P3PtSi | MND = 5
Pt        3.90795294615702    1.10730395213238    1.47044170369742
C         2.94996669155000   -0.59338860627422    0.53978939454343
H         2.31579016244617   -0.31087388225318   -0.31009388747520
H         2.30400291309208   -1.14644920802078    1.23193737015081
H         3.66252960770132   -1.32781308965749    0.14586699335333
Si        5.00666596782238    2.97196623447886    2.35518503265630
P         6.03142579410975    0.43168678625608    0.99536443470461
C         7.21072201237066    1.82926321246912    1.05872747348044
C         8.49041574408162    1.71324344846223    0.53043042826915
H         8.80553757387651    0.78720583710619    0.06929718270424
C         9.35818928277895    2.78872204747981    0.58946323814785
H        10.35233499965626    2.70398557690197    0.17432776346800
C         8.94868407426797    3.97501091909176    1.17722329169747
H         9.62518286151543    4.81704559188597    1.21897452252653
C         7.67420750627454    4.08260844590371    1.70705859478043
H         7.36334113109660    5.01312388507565    2.15785919554164
C         6.78965501660656    3.01817913484526    1.65598170725605
C         6.28483775185586   -0.17678752776429   -0.70110987556397
C         7.28388079507834   -1.06618462336392   -1.08070390823099
H         7.94328130702920   -1.49629070827908   -0.33848295699651
C         7.41903374616621   -1.41750061631197   -2.41251166683642
H         8.19181534109464   -2.11361570614139   -2.70642520349457
C         6.56869352286000   -0.88454479815582   -3.36765559771625
H         6.68030358500655   -1.16679588744609   -4.40454815719619
C         5.57061122667801    0.00043916316578   -2.99166937902381
H         4.89895518605452    0.40926228131974   -3.73265582128191
C         5.42966833490352    0.35068181323837   -1.66308334662489
H         4.63810004985893    1.01927994963770   -1.34047261217753
C         6.86539973275511   -0.81412738333164    2.01753103129819
C         7.78341159023582   -0.46245983989764    3.00066383112349
H         8.03226888040068    0.57890710952374    3.15549375443007
C         8.38172670944774   -1.44522405997751    3.76825260779177
H         9.10482461518199   -1.17037805489299    4.52286804135414
C         8.05928617784004   -2.77716115252454    3.57036171590285
H         8.53735207823189   -3.54279254431297    4.16365954145334
C         7.11418091491169   -3.12804773047632    2.61906321466837
H         6.84893411422350   -4.16575141745935    2.47765220252886
C         6.51186205200834   -2.15109278380369    1.85163146361155
H         5.76722518922733   -2.41154912948111    1.11103372576534
P         2.23530057634950    2.60497491440191    1.05241464269444
C         2.79806572077189    4.32872640999584    1.26349875299281
C         2.03780996297183    5.39070754817384    0.78520951812668
H         1.11927188843454    5.19702919144490    0.24529844103263
C         2.47022273151010    6.68936719779741    0.98430426265368
H         1.88561621821305    7.51764743450153    0.60998710887164
C         3.65410081899371    6.92447526421478    1.66573173014126
H         3.98688588644041    7.93945155238504    1.83123991448689
C         4.41875650642186    5.86205593546456    2.11663810768773
H         5.34597375484530    6.05799013657849    2.63374235033710
C         4.01365858228927    4.55357462131263    1.91124957303394
C         0.67696602502154    2.51674393820647    1.99071196220805
C         0.04292255408911    3.60382649619959    2.57881393008550
H         0.48305542176286    4.58894496186841    2.52261331878457
C        -1.15566054404422    3.42281787099577    3.24690620805676
H        -1.65034243126915    4.27287897853959    3.69530571229085
C        -1.72140487087926    2.16303841371512    3.34497960431563
H        -2.65823600773175    2.03046268188553    3.86605517044713
C        -1.07795961513928    1.07116326539068    2.78505676844300
H        -1.50792306062847    0.08423976980293    2.87548665260552
C         0.11691854378740    1.24673897579091    2.11553730293390
H         0.63789496808427    0.40349746801032    1.68306526173491
C         1.66272677493197    2.64001574360964   -0.67524447878557
C         2.61676230021836    3.01190724787041   -1.62098616187269
H         3.60414494407236    3.30420283460463   -1.28198331321726
C         2.30464357111085    3.00680249263056   -2.96532137530328
H         3.04760513588401    3.29726477036691   -3.69430230362253
C         1.03678624671263    2.62449092631752   -3.37830951061513
H         0.79072728572229    2.61570450900781   -4.43015225327297
C         0.08752853241822    2.25115952940102   -2.44252038231436
H        -0.89974668941292    1.95228075060633   -2.76475753606019
C         0.39533807919204    2.25526745037662   -1.09219195932525
H        -0.34874480112780    1.96098575042808   -0.36499701150415
P         3.64236992815875    0.56858124461034    4.00170740864374
C         4.53562873846114    1.85916743467048    4.94496279790914
C         4.54193844585784    1.82153163628532    6.33729619577130
H         4.00682831225543    1.03684209622250    6.85637778547209
C         5.21764878557761    2.78986319287429    7.05501700091467
H         5.22348374838680    2.75554162522532    8.13530421139945
C         5.88629010881303    3.80404093672576    6.38649521629625
H         6.42155303493214    4.55812792626377    6.94622468313106
C         5.85181581931437    3.85769697898108    5.00520989976250
H         6.36037139050969    4.65853628854037    4.48928474675623
C         5.17264550307067    2.89854668602542    4.26649797060907
C         2.07451040933548    0.62856862984423    4.93721604469537
C         1.38565141761240   -0.49175701790069    5.38422825256878
H         1.79613834028430   -1.47932872681139    5.23016888987282
C         0.18101424713957   -0.34617771185362    6.04968972278298
H        -0.34415595058496   -1.22346193278304    6.40030795756023
C        -0.34633819722245    0.91275091415106    6.27704432273735
H        -1.28200647344942    1.02159140205424    6.80555078409004
C         0.33025701371034    2.03362834209841    5.82219347571913
H        -0.07632799063927    3.01936443249731    5.99543434005681
C         1.52420936370607    1.89250946603282    5.14548756012597
H         2.04845431788666    2.76608213405640    4.77779275186737
C         4.37457897298726   -0.98801121405813    4.60441079474689
C         3.84075692791304   -2.15698372526610    4.06313692085542
H         3.07272438715031   -2.08036603441843    3.30480383269464
C         4.29910497980521   -3.39381284933885    4.47117736257813
H         3.86831693166590   -4.29409957051835    4.05638242365583
C         5.31604404730474   -3.47789495617093    5.40836511152942
H         5.67321808090221   -4.44341681781297    5.73583708647539
C         5.89089715070210   -2.32064989825538    5.90393989346020
H         6.70517365212285   -2.38303996907424    6.61177794434054
C         5.43117257031099   -1.07919818720572    5.50119303972639
H         5.90040978624203   -0.18509442452108    5.88477651954442

