54
CSD_code = ASAPAL | q = 1 | S = 0 | Stoichiometry = C23H27CuN3(1+) | MND = 5
Cu       16.34177844332229    2.92402149926154    4.58185683995817
N        16.46899599839073    4.68515667365819    5.81581578590994
N        14.72007865630325    3.22428210580857    3.40360276931784
N        18.20009668962485    2.73868838004585    3.89086558130822
C        13.92246753386775    2.25809088538674    2.95375318608041
C        12.68055955938171    2.50577007681016    2.40138434133175
C        12.24335991798283    3.82039128462888    2.32427314468748
C        13.07896527152192    4.82566766319287    2.78004160339313
C        14.32263335246182    4.49536799259244    3.30613956450336
C        15.27606453320860    5.55200581610631    3.77969335563996
C        15.42093469840521    5.57879706081224    5.31176646451593
C        18.40250164263804    2.04483380298419    2.77383854629362
C        19.58689876066506    2.09468318297781    2.06397460363340
C        20.59916172493614    2.92090407658262    2.53052781378613
C        20.38638935331714    3.64159915407422    3.69301805724293
C        19.17314511286094    3.52177697767469    4.36236712807725
C        18.93119902000634    4.23465201798132    5.66093337100351
C        17.79838407052927    5.27293954100054    5.60848787978527
C        16.25020684810720    4.39322597452209    7.24305362923990
C        15.42843181218853    3.11727033761599    7.45666100883354
C        16.11307587525233    1.92981316190381    6.83657829839524
C        17.35901345431157    1.50122758395565    7.29272300652968
C        18.00330885954158    0.43400847254795    6.70070787600479
C        17.42508256376811   -0.25479634113197    5.63676307700559
C        18.14795861593590   -1.39720314608354    4.99757161304517
C        16.16418267897253    0.13332483053939    5.21182370551230
C        15.51017003977340    1.21769931205361    5.79470585438404
H        14.30374512115194    1.25032809949704    3.03462841021268
H        12.07175488427987    1.69241385059545    2.04242759975219
H        11.27558942442455    4.05675961591116    1.91044001016623
H        12.77539857389584    5.85898171271006    2.72421401610677
H        16.24951376744222    5.36108669795076    3.32357055919635
H        14.92364686495470    6.52608279567586    3.44113912863173
H        14.47087808288117    5.27209491079449    5.75396777992587
H        15.62340311211594    6.60961672027626    5.63493318915307
H        17.58115561388254    1.42296832267437    2.44845941628270
H        19.71305116299813    1.50584342551770    1.17049146728461
H        21.53692184510967    2.99700937848736    2.00243552516943
H        21.15652084169758    4.28685385755875    4.08527979830682
H        18.69407407614333    3.47749004097508    6.41104608918408
H        19.85036423837063    4.73837869357387    5.96036421769553
H        17.82082571234231    5.76523996497817    4.63479892208341
H        17.98583121088206    6.04347422191386    6.36916147598750
H        17.21810748810955    4.26158926291411    7.72656384107728
H        15.75618304475812    5.24114414942899    7.73291807947470
H        15.31400988656526    2.96492134616955    8.53200259974999
H        14.43293017054149    3.23441026579537    7.02527867935201
H        17.81489482042497    1.99195775618275    8.14139513123078
H        18.96571045857172    0.11640144620990    7.07393612952423
H        18.40997849027261   -2.14583621137749    5.74291847419341
H        17.53926041399566   -1.86966826109427    4.23168442550729
H        19.07420479957462   -1.04894126318877    4.54138039303160
H        15.67101666798613   -0.42965247550069    4.43221538770372
H        14.47838413935125    1.42045329786570    5.54102114859235

