53
CSD_code = ASAPOZ | q = 1 | S = 0 | Stoichiometry = C22H24CuN4O2(1+) | MND = 5
Cu        9.01552209661888    3.36354413455562    1.37770532661052
O         9.29789828450450    2.80259835693249   -3.87404440500532
O        10.32134921581246    1.30094081753372   -2.72498671566589
N         7.59119837102995    4.71732264468481    2.18344350113795
N         9.87606636053004    4.44115951647969   -0.05040215087868
N         9.71936058357275    2.28701838092858    2.89469321323658
N         9.41104466354747    2.07745588331155   -2.91180396142849
C        10.93593082100199    3.91997577640515   -0.67276435790007
C        11.51760510459438    4.49919830458381   -1.78225447698229
C        10.98043066187041    5.68629806661604   -2.26038854510519
C         9.89845676230038    6.23797446155476   -1.59859563170312
C         9.35851943842576    5.58925456849059   -0.49088766056068
C         8.13467383002864    6.16384703558857    0.17199930861160
C         8.03013929322809    6.03614340973682    1.69675298107475
C        10.07889353910573    1.00437770421147    2.86515049102306
C        10.36416584530642    0.28114791287357    4.00699623127496
C        10.26039942702121    0.91736364163681    5.23587802954425
C         9.89313168194621    2.25221007574732    5.26454542991630
C         9.63787042064129    2.91675217383873    4.07128143742603
C         9.26977367310189    4.37120004462341    4.04546371313371
C         7.80621644119711    4.61291403389995    3.63435685432267
C         6.16980814196380    4.48400356015446    1.87161546832562
C         5.88515040909529    3.03161351533822    1.45918954063561
C         6.70384100495751    2.66005423842239    0.25831754028480
C         7.70151865434362    1.68284507463591    0.35593281890096
C         8.55350615533763    1.44199185802372   -0.71263098172821
C         8.42026931250262    2.19798968297993   -1.86883494927807
C         7.37773135399099    3.10499483750521   -2.01579384734543
C         6.52030502548640    3.32071996534290   -0.95597359560988
H        11.32087823088086    2.99774302487431   -0.26134892720709
H        12.35950022232935    4.02934962664368   -2.26266201660058
H        11.39810065930337    6.16994207907635   -3.12914601977177
H         9.46451951068102    7.16399975452736   -1.94131889812103
H         8.09584715127890    7.22738724119075   -0.06944969563009
H         7.26854669475557    5.69779083697302   -0.30372102794637
H         9.00844609122744    6.25438540508013    2.12718774888314
H         7.33218847455681    6.80620511968640    2.05630229854110
H        10.15098776866366    0.55026002859469    1.88716747021853
H        10.66222120504331   -0.75184006088597    3.93642761289408
H        10.46922236216302    0.38638342314889    6.15129659053875
H         9.81210268706283    2.77886492768540    6.20206954570323
H         9.93997294625746    4.88059138722264    3.34994358146253
H         9.42611269628656    4.79400525707144    5.03769771105820
H         7.20683050423420    3.77823960745946    4.00423075010474
H         7.44739285603764    5.52808553991087    4.12534620010863
H         5.54434482045232    4.74428974480867    2.73302226269441
H         5.87122749095260    5.13924203126544    1.05410018886297
H         4.82043948108021    2.94971994050691    1.23253356991628
H         6.11063833237974    2.35662607636141    2.28552351759560
H         7.74568419232344    1.05340101842335    1.23263295778888
H         9.32684169510107    0.69039365945336   -0.66534655173330
H         5.69620197147417    4.00899954111134   -1.07193549721153
H         7.26627538241154    3.63312511317485   -2.95041397841795

