92
CSD_code = ASARUI | q = 0 | S = 0 | Stoichiometry = C40H48N2SiZr | MND = 13
Zr        6.96353798378877    4.01940645930057   17.19688809194367
Si        8.01923946159576    0.65587994763973   12.37256058720426
N         8.63337503709622    4.12732397405892   15.86475694597528
N         9.03223913231861    0.11067882611035   13.68173904710119
C         5.87531475736714    5.18492394173497   15.27716470969810
H         5.96297065488132    4.84172659082656   14.25412412429915
C         4.85109028518090    4.82198279098045   16.18095697325424
H         4.01256221364121    4.17644258469526   15.95471054767612
C         5.00236661354274    5.60732171101951   17.34719164318751
H         4.29378329898381    5.66490021775070   18.16627012565646
C         6.10821878866568    6.45997450786834   17.15705331125881
H         6.41066211104563    7.26361807507977   17.81702501163280
C         6.65402758298036    6.19351987611057   15.88806097333679
H         7.44308121589972    6.76473404446841   15.41119203214362
C         6.95242368106881    3.40612896658263   19.64316390000351
H         6.17632758013407    2.84962313505638   20.15544528363894
C         7.05739523435862    4.81262992868155   19.57030044074598
H         6.36409835998715    5.51907716214703   20.01153668737354
C         8.30914011146132    5.13010870822451   19.00016514551112
H         8.73788961957645    6.12247030000526   18.91334153634492
C         8.99032219759140    3.91947409599553   18.74770812548048
H        10.02412698142752    3.83495528116216   18.43404769875682
C         8.15435015436791    2.85662955111295   19.14312936391569
H         8.42656867488308    1.81048218139380   19.18823057486744
C         5.98793460670108    2.09875362575943   16.96346960662556
C         6.83054091327095    1.88997660719369   16.00087083129930
C         7.40025469558122    1.37729395932179   14.84609530558216
C         8.59222568682190    0.49697738615494   14.81832779985764
C         6.97280729302980    1.68487802201433   13.54377407133569
C         9.30592288505014    0.00603440332502   16.06174016257390
C         8.31482546728484   -0.59231193782514   17.06422387333128
H         8.85710748047578   -1.02129415831311   17.90543103078221
H         7.73958369950458   -1.38519437981093   16.59117933627936
H         7.62831446329482    0.16259085542604   17.44014877028841
C        10.05314100636096    1.18372494313230   16.69563242247528
H        10.84161909171371    1.52463271098295   16.02816540419455
H        10.50736612087691    0.87704067704917   17.63637723126723
H         9.36437191838383    2.00969418020930   16.88151504598095
C        10.32123685832968   -1.07363614602268   15.67412732063070
H        11.01986367613530   -0.68750124248136   14.93840302953602
H         9.81226459637813   -1.92584139306993   15.23357919530095
H        10.87075822622178   -1.40264286835852   16.55385918154378
C         9.02787063173635    1.35469352561929   10.91526907551913
H         9.72311322912966    0.59464248359235   10.57526396739855
H         9.59978825069563    2.24393715419634   11.14748932751101
H         8.36555962813940    1.58464399511121   10.08756700726994
C         7.00377914990831   -0.79361261447735   11.66031641048840
H         7.64550997263105   -1.49896537826379   11.14346576211443
H         6.27005852907521   -0.42416732292493   10.95134158039556
H         6.47362072620280   -1.32853774464748   12.44097091826566
C         5.76718937288674    2.37272906426161   13.17683716753165
C         5.69585719529815    3.04578966228082   11.94688783304374
H         6.56682304984056    3.05645994160208   11.30615418525833
C         4.54748798188562    3.69059029275532   11.54269348895316
H         4.53322899508261    4.21094413574938   10.59403944163786
C         3.40171596809089    3.67595432229471   12.33062738542756
C         3.44704352120034    2.97345343577689   13.52990718328703
H         2.55387488506469    2.91225321483191   14.13841098060391
C         4.59798541926567    2.34182424431902   13.95225543364897
H         4.58365100664526    1.76663016569104   14.86483724012093
C         2.15604853341382    4.39422300625171   11.90724039654520
H         1.27014090056638    3.81694339275921   12.16583202748325
H         2.15668716623824    4.57585290495035   10.83469515469461
H         2.08694999568382    5.35769074570736   12.41511903097092
C         4.85798832801891    1.38379997461967   17.52889895614948
C         4.61672248811255    0.03817875230308   17.23071244780476
H         5.28651050363349   -0.47754046206185   16.55812333564618
C         3.53387596145429   -0.61781371815573   17.77803482339386
H         3.36213459076233   -1.65788333698256   17.53808206165254
C         2.65111754412588    0.03757968795661   18.63109168282214
C         2.88114589710190    1.37801098863519   18.91746314719358
H         2.20004679121969    1.90529680515556   19.57145792042711
C         3.96625342776578    2.04344964383214   18.38087132239068
H         4.13240225742095    3.09475617477470   18.60856140267326
C         1.47331350529708   -0.68891463970345   19.20589940152679
H         1.78017648454706   -1.64538223977189   19.62595738528468
H         0.73783115260023   -0.88943014969438   18.42638690520559
H         0.99449147101512   -0.10118739183852   19.98528484543955
C         9.31612684647914    4.31486198808448   14.94324248208377
C        10.11006565991867    4.52101042682154   13.75828601149947
C        10.97803406958241    5.77821324338289   13.92807185700185
H        10.35865217062990    6.65567529773782   14.10157772669906
H        11.56204080139390    5.94026907812761   13.02524669840647
H        11.66124102685169    5.66519058815959   14.76714134077652
C        10.99598177417901    3.28811384197190   13.52937055397174
H        10.39804614229505    2.38030673437747   13.48477908040745
H        11.72279565581022    3.18925417003757   14.33325962646868
H        11.53622149096039    3.39951035887441   12.59210903313865
C         9.11140920103048    4.70940968663643   12.60555982284955
H         8.45624911400026    3.84436781708010   12.53260525815696
H         9.65275428556571    4.83020775078304   11.67014304637656
H         8.49813683230752    5.59382819871153   12.76817832647222

