93
CSD_code = ASASIX | q = 0 | S = 0 | Stoichiometry = C41H49NSiZr | MND = 12
Zr       -1.81869645320733   -2.69602643244170   13.19090493009504
Si        3.26577685113990    1.82953676826614   14.94115101873343
N         1.99257374307308    2.63913715224240   14.08243813616893
C        -0.88454818362472   -3.91759280538308   15.19888676916992
H        -0.11117288533797   -3.52668922164809   15.84699137610836
C        -0.68187729321384   -4.73258422359738   14.06363908755317
H         0.27867848658031   -5.08723123961677   13.70917380433524
C        -1.95081929164244   -5.16328612529098   13.60556109599135
H        -2.12988819886888   -5.91803092344779   12.84731869212587
C        -2.92695502009165   -4.61678534696335   14.46446858767815
H        -3.98132156001441   -4.86472753554418   14.46415394944261
C        -2.27300658773202   -3.83559794871848   15.43520249359092
H        -2.73720097796484   -3.36984076640195   16.29598841071873
C        -2.84730326151412   -1.34582621407497   11.26304209384099
H        -2.29638253148338   -0.71280032308030   10.58008010023388
C        -3.24646168987634   -2.67480747479893   11.01470353354012
H        -3.07206762872000   -3.22159157488729   10.09706588519249
C        -4.08714883917734   -3.08288993505499   12.06592872496156
H        -4.65659361064959   -4.00419147966799   12.09168463349174
C        -4.20267989779329   -2.01248057070400   12.97798730724359
H        -4.88916522776827   -1.97407171690301   13.81798377792894
C        -3.43634243539497   -0.93160574660321   12.47700469784111
H        -3.43512457656356    0.08407882843964   12.85468121327051
C        -0.78028713142426   -1.08593992386608   14.23924815558667
C         0.31778173101506   -0.65833246231963   13.56243009220640
C         0.64854999505862   -1.30145766454068   12.25788502160980
C        -0.07538178485345   -2.38296154834358   11.88648085561999
C         1.25353263583749    0.38880972859039   14.02646806426193
C         2.39878268543997    0.14567190128404   14.72073372180058
C         1.06647949422865    1.83121793149799   13.72562152056230
C         0.19961221555129   -3.07528474600253   10.56286248346806
H        -0.34199920334078   -2.54286140608760    9.76655996264759
H         1.26272602875701   -3.04710210726504   10.30332636943632
C        -0.24432005287420   -4.54144313310647   10.56724314443307
H         0.36528669079185   -5.11738381449305   11.26346180385559
H        -0.12262885071063   -4.97733752287190    9.57593703789515
H        -1.29641837781336   -4.63003498533462   10.85804535524618
C         1.78761332298306   -0.70589127466728   11.44587262421690
H         1.53198951729101   -0.75896731566205   10.38406116605335
H         1.91037190305958    0.34760323859036   11.70410060769196
C         3.12751785531862   -1.40943221755811   11.67718215081460
H         3.49230045892362   -1.21136812455790   12.68090116236489
H         3.86835004143301   -1.04836393200059   10.96548653523931
H         3.03275829990889   -2.48667471187583   11.56056203592032
C        -1.14938421828482   -0.69359635103247   15.59805275630702
C        -2.50785969996775   -0.53796839115017   15.92957378393696
H        -3.26114298046143   -0.64399443237737   15.15319511213663
C        -2.90697584716441   -0.22552199933663   17.21216052064723
H        -3.95920208021456   -0.09783063831508   17.42946954434747
C        -1.97877181445339   -0.08053942392788   18.23850554351417
C        -0.63773264912679   -0.26207770179334   17.92955412085274
H         0.10439477095198   -0.17143739597298   18.71107554300393
C        -0.22773992506926   -0.55840722034965   16.64430060297789
H         0.82111857589755   -0.71022022962867   16.45157077945125
C        -2.42279165981118    0.26925091604561   19.62643274958485
H        -3.31154277895267   -0.29569966663055   19.90256061401367
H        -2.67066330113329    1.32982389999902   19.68531530942604
H        -1.63684773271942    0.06329057456774   20.34903699060577
C        -0.17292020473364    2.43411765018298   13.09467664927340
C         0.10521223261790    3.90219325652396   12.75277904658819
H         0.92266075325218    3.97530304159005   12.04085593648511
H         0.38992573269131    4.44886485848273   13.64589161579435
H        -0.78290380229815    4.35860445011905   12.32079480919741
C        -0.63231946260243    1.72057736953441   11.82104832301836
H         0.13611086278531    1.77660627289823   11.05355899432961
H        -1.52648751260285    2.21226201563515   11.44056537956497
H        -0.86798168105077    0.67603330315198   12.01184186491001
C        -1.29141698071455    2.37641032642017   14.14429302152137
H        -2.16447042920853    2.91586055897482   13.78155960637954
H        -0.96160184517381    2.83532183541179   15.07359465773207
H        -1.57328463443792    1.34824679946626   14.34876099638853
C         3.36515440668772    2.50129720748497   16.71789412005335
H         3.32234453580587    3.58450558154890   16.70038434173856
H         4.29314946539011    2.21411773123438   17.20021506064399
H         2.54008763686727    2.14419311824354   17.32501430347085
C         4.93409481060730    1.93683618192837   14.03665991796722
H         4.86474356293235    1.54413122076619   13.02805487509988
H         5.70227049825541    1.37977742476324   14.56209474407994
H         5.25461697010528    2.97050305597270   13.97230859574414
C         2.90654987161029   -1.11907532633447   15.22317011381377
C         2.39164074273501   -2.37977354712667   14.89031119677120
H         1.56625663782611   -2.46774696704255   14.19923692244383
C         2.93265949093913   -3.53097230701785   15.42550432640913
H         2.51383716499796   -4.48899512711672   15.14969996265182
C         4.00219107458775   -3.49054532243944   16.31306255896314
C         4.52042796161719   -2.24611356341118   16.64606526368950
H         5.35370360239089   -2.18080691525251   17.33214233112920
C         3.98689611995420   -1.09139720083720   16.11202584596610
H         4.40823611287708   -0.13861290459627   16.39360839109113
C         4.56183962580135   -4.75375000716600   16.89136711857937
H         5.47782690702995   -4.55808442940678   17.44340982768244
H         4.77415131237733   -5.47448534302864   16.10307942616682
H         3.84014939585393   -5.20833729317638   17.57045569367621

