80
CSD_code = ASATAQ | q = 0 | S = 0 | Stoichiometry = C42H34N2SiZr | MND = 12
Zr        2.02895779161482    0.87207871333233    4.41865519925257
Si        5.10609672438796   -2.31694122455345    4.74367741159003
N         4.99704120634735   -1.72429879601419    6.34895604892825
N         2.01715240557692   -1.00321807815471    3.80714064761796
C         3.71706740478201    2.69778123330310    4.82595357797268
C         4.10851946478181    1.55962579906691    5.12331406525919
C         4.12515564686969    0.15584541461102    5.23936968545804
C         4.42237137706111   -0.65111242894434    3.94565412397332
C         3.15883740201410   -1.12028994458889    3.25471701073231
C         4.51606597030277   -0.52098449924637    6.43702630764584
C         3.75169414487678    4.10645289358665    4.62883815713670
C         4.66766391314285    4.68691162255724    3.74662788613419
H         5.36683252262144    4.05379669178021    3.21996261421577
C         4.66816787890199    6.05238105933361    3.55780405260210
H         5.37839422625195    6.49560561214521    2.87438798052060
C         3.77106198761942    6.87407370423421    4.23512935040979
C         3.78451006271154    8.35352935890758    4.00653363152555
H         4.79975343643715    8.74174436573738    4.06772213322639
H         3.16670203274888    8.86780942653163    4.73806739704802
H         3.40119977091424    8.58199185436421    3.01195708337269
C         2.86098467795223    6.28971038515753    5.10870793493989
H         2.15528270723585    6.91315775176530    5.63849540776158
C         2.83984196295198    4.92349082783471    5.30309499716784
H         2.12081280881333    4.47384406083839    5.97929120085363
C         5.27263905568390    0.23767213682754    3.09071996390786
C         4.69365706381406    0.99839843861384    2.07298967178571
H         3.64726174483035    0.85355744084591    1.80184959776355
C         5.44176030045200    1.92367825159945    1.36690148478097
H         4.96918372324931    2.49880070673188    0.58359868543123
C         6.78194059615459    2.13584536693360    1.66484343164150
C         7.35222217902131    1.39380646224839    2.69302396611325
H         8.38958860033035    1.55290002709947    2.95051823401943
C         6.61101337662195    0.46710456881815    3.40011366894895
H         7.06448489146420   -0.07611169576187    4.21529339284102
C         7.59240312137925    3.13439998600744    0.89629406577441
H         8.11389697756113    2.63915754364637    0.07654281400429
H         8.33964316688953    3.60104448685677    1.53457658038488
H         6.95542532975329    3.90686454928241    0.47162892849375
C         4.49890613167305    0.15607523471222    7.79709155149585
C         3.15709250919384    0.84179391487879    8.07344532337068
H         3.17106443022623    1.27439246717178    9.07229947107043
H         2.34856231000959    0.11033356778641    8.03291663041667
H         2.94926477651925    1.64834750466792    7.36109829512047
C         5.63560282901869    1.18871110915655    7.82173048496944
H         5.67691124632909    1.67187848765337    8.79534899125585
H         5.48756522302459    1.95404564084953    7.06112339381800
H         6.58790505969270    0.69707292069768    7.63807392462187
C         4.74649625989713   -0.89171258083644    8.88484699830777
H         3.95368670061403   -1.63368848591851    8.87393890094296
H         4.77755715557881   -0.41709235759476    9.86279146607959
H         5.68593916265953   -1.40338045580524    8.70345179258244
C         6.87504547967301   -2.81915756823398    4.24027586776291
H         7.58504769298712   -2.50573987389515    4.99640135030079
H         7.20574472599254   -2.42490214933282    3.28591780407668
H         6.91837889994045   -3.89967714013688    4.18517135932842
C         3.92214293203013   -3.77320260441447    4.44262202164259
H         4.13227516811680   -4.55486471400104    5.16472244358287
H         4.03802024634033   -4.19799501718176    3.45066851868037
H         2.88415463703040   -3.47773054236007    4.56649053725009
C         3.28115903700571   -1.82404008777271    1.95075649679640
C         2.09892600380412   -2.13914666230449    1.27814900860962
H         1.15703261597947   -1.87400407573759    1.74250669702856
C         2.13138437617515   -2.78104194014489    0.05611757623884
H         1.20811556158103   -3.02133840627202   -0.44956840775178
C         3.34729088296727   -3.11587412007808   -0.51777180676602
H         3.37652744613988   -3.61797524961881   -1.47341689001261
C         4.52620466070250   -2.80514388188821    0.14001383120507
H         5.47618838281813   -3.06497789391436   -0.30375982369811
C         4.49832018878171   -2.16311732003853    1.36419322673984
H         5.42839137895619   -1.92917121422746    1.85641666953975
C         1.00143622074737    1.36979902572116    2.28023265564912
C         1.60355101612932    2.63200353381882    2.68090329069410
C         0.52961205516464    2.45280502402268    3.49134283114142
C        -0.45575854986891    1.40491104048626    3.79178695536317
C        -0.16076909741927    0.73185247029845    2.52128436538582
C        -0.58293805186356    0.90048748465838    5.04879069708829
C        -0.80971032630440   -0.41644963759327    5.51944273763401
C        -0.27742132094689   -1.29959796864820    6.34804641251550
C         0.63959662121575   -0.15224324326095    6.27196497492168
C         0.55610966754582    1.19975169128852    6.05966298374988

