51
CSD_code = ASAVOH | q = -1 | S = 0 | Stoichiometry = C19H22MnN4O5(1-) | MND = 5
Mn        0.35260255378660    9.50009001906160    7.57149640841389
O         3.87135053829405    9.67451019268854    9.40840557943947
C        -0.16781748547459    8.70885229295851   10.16766241474902
N         1.64059480428892    9.38248121595705    8.89886628087387
O        -0.13622847767352   10.88813925968984    7.49645833219498
O        -2.55491103152412    7.39819126068776    9.27974661046462
O        -1.38569568881924    7.77162873453194    4.35721276205041
O         2.90387774440718    9.28963083962143    4.44299007941999
N        -0.62280021082902    8.58401713378217    8.85358808836187
N        -0.65513666746944    8.42526914609759    6.41730688526899
N         1.85219688685024    9.31226341292944    6.46743866900981
C        -1.73951672519337    7.90331930329311    8.52288125525743
C         2.94746671047605    9.56236048648343    8.61672280316224
C         1.88077879716327    9.23916912954867    5.11758579795691
C         1.82026924189771    9.34928562848498   11.40192021191778
H         2.83904837048897    9.70000072779723   11.41681240653004
C        -1.85206233143261    7.78899954472098    7.00047821971859
C         0.53487732542228    9.16502545288029    4.38589104181657
C         3.16084986224622    9.56466462389691    7.10080642669880
C         1.16182842681953    9.17720160643922   10.19425498324380
C        -0.58332963733362    8.36739125581843    5.06829423900666
C        -0.16342533648495    8.59923996773105   12.55086572269802
H        -0.67485321156462    8.37915215786872   13.47794198453839
C        -1.93938804597802    6.29006634453268    6.68245559037713
H        -2.17956180050190    6.13661205325740    5.63532368647747
H        -2.70947000997205    5.84779115854433    7.31141189920982
H        -0.98405125464156    5.81446715039082    6.90369710750390
C         3.69222866637241   10.95022788119800    6.71241839546823
H         3.97162622843482   10.96075191024945    5.66266349962637
H         4.55673539657786   11.18767287948179    7.32842123724270
H         2.90863211790735   11.68915260394810    6.88654240733072
C        -3.12381542744474    8.53391773074149    6.57542908976955
H        -2.98867142708531    9.59927053837845    6.76783521198978
H        -3.96578421548892    8.16523380849839    7.15713944901014
H        -3.30949568577753    8.37892272839261    5.51636925993599
C         1.14233411873306    9.05806599195535   12.57696785980180
H         1.64579225562044    9.19403307680723   13.52437041542200
C         0.77144477151052    8.57498455602832    2.99066044790099
H         1.51848139664062    9.16235017021005    2.46424321192307
H        -0.15971997220377    8.56777801713037    2.43113005835808
H         1.13210059708482    7.55232207302515    3.07624261079032
C        -0.83191186492396    8.41662156159100   11.34880071095200
H        -1.84581561608357    8.05265190782158   11.32300514059390
C         4.18498933948791    8.46066832195254    6.80439808479426
H         3.73618557787420    7.48622290931656    6.99620391442343
H         5.03818094647070    8.59436109226994    7.46654784693164
H         4.50586827217058    8.50732219657097    5.76874384468385
C         0.02627726722419   10.61147636590366    4.23692808068134
H        -0.14981587734883   11.05317912954203    5.21976398881635
H        -0.90507420874187   10.61613001394478    3.67295163519819
H         0.76733399573919   11.20756243535006    3.70680811199275

