59
CSD_code = ASAVAS | q = 1 | S = 0 | Stoichiometry = C18H38AgN2(1+) | MND = 2
Ag        4.93780248069243    2.67828236728176    4.51300225839877
N         5.63938655784464    1.17785171012064    2.90414714054284
H         5.43806186895578    0.23215805295801    3.23314271113522
C         4.81771349687829    1.32254653397849    1.67517042550239
C         5.36009446796411    0.43792317057892    0.54245577763833
H         5.16677887976042   -0.60943093568989    0.78745820094429
H         4.82136558281203    0.66605413118390   -0.37697061300967
C         6.85930111839483    0.62105007072953    0.33135930139973
H         7.07646963626120    1.62775960658091   -0.02541150058551
H         7.20069953678545   -0.07216670408455   -0.43772520200845
C         7.60803393908519    0.33879667491525    1.62958419384449
H         8.67698192610549    0.49629137516009    1.48770676696865
H         7.46135867562500   -0.71076325459074    1.89653029101755
C         7.11960744455754    1.22021451060738    2.78908992493013
C         3.41086747477739    0.85185209349818    2.05781314589390
H         3.41557491329613   -0.18608606277892    2.38527126512906
H         2.73919806077585    0.93028320929010    1.20829075017671
H         3.01163119119678    1.47106150399212    2.86806196950139
C         4.72299817006354    2.78706514049111    1.24641592105916
H         4.56794596714505    3.42836411081403    2.12474177413993
H         3.87660545899973    2.91864900847399    0.57803688488160
H         5.61024422835661    3.12512110933069    0.72471994699331
C         7.61820475025221    2.65854876021348    2.64929174859148
H         7.48168553320099    3.04974112717309    1.64840480103735
H         8.67904512690218    2.70216547388440    2.87979960132076
H         7.08800267510858    3.31212749492383    3.35579193496159
C         7.65554754531378    0.66218202557773    4.11139094983940
H         7.30410755988823    1.27260350387861    4.95037723490973
H         8.74127899203055    0.67140917201930    4.11653258509122
H         7.32917038063626   -0.36394007158124    4.26971977006009
N         4.19600276384593    4.11149483887063    6.16484212477742
H         4.40986357480129    5.07173555504958    5.89085118417496
C         4.98091969355947    3.89954387984400    7.40782118378310
C         4.40622958684563    4.72273950873114    8.57063797457942
H         4.91695910256912    4.44312223733521    9.49182527281968
H         4.60800396437585    5.78138706954874    8.38937285464921
C         2.90111729734442    4.53313604207459    8.72682458182540
H         2.53797056600677    5.18390294074568    9.52255318597056
H         2.67218435769968    3.50897611376465    9.02117980493746
C         2.19218184009690    4.88907813188756    7.42431263792178
H         2.34930556203827    5.95099724131109    7.21970749213595
H         1.11906425076622    4.72820470353555    7.52519855738445
C         2.71285144715903    4.06932680529721    6.23407518448771
C         6.39842228720141    4.38719003803855    7.09169895547126
H         7.05060231111393    4.24453658978993    7.94800508029138
H         6.40565838484469    5.44570967488242    6.83875586307583
H         6.81315030972250    3.82538252153648    6.24764219268620
C         5.06080130363933    2.41394869840623    7.75957633322599
H         4.14890106576651    2.04561839221723    8.21357002726914
H         5.87153683080263    2.24762436871743    8.46341913885340
H         5.26546512331276    1.82257799473772    6.85646618748905
C         2.20551690605068    2.62770302556785    6.28414542286738
H         2.77353101316988    2.00243101735016    5.58168000414623
H         1.15897176781736    2.59755690100835    5.99400170606300
H         2.28558961005296    2.19406393763953    7.27367988856742
C         2.21931891265318    4.69903930042341    4.92755619873583
H         2.55056904213975    5.73167166301420    4.83591612367793
H         1.13436096532565    4.69213515755728    4.88663919293011
H         2.59828651961768    4.13475074218148    4.06844568490154

