56
CSD_code = ASAVUN | q = 0 | S = 0 | Stoichiometry = C24H17AuF6NO4PS2 | MND = 2
C         3.79371027652284    4.52163677985529    0.11098280893049
C         4.44999986980884    4.52285580337981   -1.08163309306054
H         4.12247477086312    3.97643707708593   -1.95148317883201
C         5.63500409382314    5.32438187846595   -1.13026393977156
H         6.21418798648456    5.39046602663702   -2.03724866995117
C         5.94385541606011    5.98099140921605    0.02153857941147
C         2.57294326306879    3.84132293169397    0.48575267994473
C         2.12497722455201    3.92347513960742    1.80659809446612
H         2.71089098483382    4.48562342794176    2.52622544071729
C         0.96251206715663    3.29485510985245    2.20110220976498
H         0.63481354905580    3.36626222233930    3.22697264748407
C         0.22036265722543    2.56983932958299    1.28105206028985
H        -0.68803246299757    2.07418015984022    1.58775349094443
C         0.64952744820082    2.48327391740345   -0.03390773340332
H         0.07213359589065    1.92134596752380   -0.75294030386181
C         1.81257123871789    3.11205901050351   -0.43288817939562
H         2.13175958117144    3.04071751479492   -1.46096486358555
C         7.05417112565178    6.86481687234922    0.30495864510528
C         7.98686479737921    7.22787634314067   -0.67117219445151
H         7.89111650454166    6.84823247043518   -1.67649643158414
C         9.03358435351107    8.07229577652623   -0.35732816584925
H         9.74884574659880    8.34270294744429   -1.11990560503911
C         9.17197332849844    8.57130042262317    0.92845464088900
H         9.99499280925472    9.22703394636341    1.16854638366703
C         8.25081748380985    8.22326205861331    1.90473882447349
H         8.35066102431642    8.60249672302729    2.90985085014833
C         7.20334282619385    7.38139574032305    1.59458964050150
H         6.48803493012366    7.10579869642643    2.36167804849500
C         3.76772436121870    6.96228894641572    1.68026636919733
C         3.20972577714527    7.70162872130481    0.64066470341459
H         3.37156173554617    7.39303214721865   -0.38328388397965
C         2.45561096527768    8.82180837831535    0.93270351807947
H         2.01937363462882    9.40009593227583    0.13197840444378
C         2.25928916887024    9.20141050682429    2.25223824112522
H         1.66818428755560   10.07681636163856    2.47571551195541
C         2.81715155115075    8.46268320232399    3.28289620109452
H         2.66375585421751    8.75948426743791    4.30909037632827
C         3.57560630884953    7.33790671786496    3.00538496826153
H         4.01488905464108    6.75966417960266    3.80868236918935
C         5.57670084922347    1.09052926456452    5.34648222082948
C         7.58916566522019    5.62136484603791    6.12887656948511
N         6.36400884925506    3.60207214512077    4.79959840272067
O         7.69915041059630    1.70792184928902    3.93299263754707
O         7.80803228140380    2.23508681835926    6.33400754559964
O         5.05576233591179    5.53779736604968    5.51543296883961
O         5.77834613921271    3.95836863106956    7.24856716946073
F         4.82167176954595    1.19373043157669    4.24462811453942
F         5.92319467647776   -0.18519546359132    5.48256688499221
F         4.81791730166475    1.42815485998138    6.38021975342225
F         8.70143597236274    4.90796901636067    6.21062521023279
F         7.67050910620370    6.36317274454052    5.01473718118323
F         7.54465290492351    6.45655959918844    7.16200044036148
P         4.75434554240028    5.49528969132522    1.29716206777579
S         7.08238988857324    2.20003826633002    5.11718697798437
S         6.01590502630157    4.58941896071243    6.00537592691237
Au        5.61734209131859    4.40966590885910    3.04094046256302

