71
CSD_code = ASEBOQ | q = 1 | S = 0 | Stoichiometry = C23H43ClNP2Pt(1+) | MND = 4
Pt        2.14995895119352    5.01382216628791   11.06357451033487
P         4.28648290759963    5.79863997381301   11.34551857387764
P        -0.09213129311461    4.53507597836360   10.99922488939025
Cl        2.76000777860539    3.25515922404565    9.75731476089627
N         1.60079459656585    6.59559201115908   12.24504130312131
C         0.30689850954862    6.93568752539022   12.35446735621350
C        -0.09301683566058    7.99113474911542   13.16406598044621
H        -1.13976387855601    8.23800270082675   13.23922170152687
C         0.85709041698287    8.72413521193993   13.85276690037288
H         0.56752170481471    9.55219306234544   14.47922940675114
C         2.18759845256059    8.36951918844612   13.71808713123866
H         2.95819163483769    8.91385578782692   14.23979424983014
C         2.53363875687327    7.29035981819369   12.91485673409469
C         3.96405935937539    6.85517519539373   12.83800246375303
H         4.16044082874695    6.22679476362096   13.71328431211739
H         4.63626017409632    7.71391651086036   12.89768372090741
C        -0.71196809805642    6.19948447862009   11.54150370719709
H        -0.88183334333570    6.78110101385497   10.62912070449281
H        -1.66516121323853    6.14063039045810   12.07127570297099
C         4.75283935707951    7.00608201019960    9.98597397313226
C         5.64467146119698    4.64406035835964   11.93024119008114
C         3.58316539884957    7.99406788352132    9.91727970499119
H         3.70550799782884    8.64734514109453    9.05559408815837
H         3.52193510491179    8.62190283472311   10.80469575244126
H         2.63891549591421    7.45312368379480    9.79390314014970
C         6.06418424599146    7.74561592668291   10.22229618203862
H         6.91372206742733    7.07012046126793   10.16464684070822
H         6.07903521572431    8.25144772902933   11.18613268147443
H         6.19293995926749    8.50148665945440    9.44937278987748
C         4.79463325955954    6.22800882553881    8.66927183773176
H         3.90888932033918    5.59839626742239    8.57100856896472
H         5.67316807585327    5.59473845166215    8.59983631553291
H         4.81559083861374    6.92096101277811    7.83058297385642
C         4.91122363943956    3.61264295590898   12.79555316370965
H         4.13178882551687    3.11677347360288   12.21387978711699
H         4.45873662555439    4.06457110282910   13.67811106832145
H         5.60972249143078    2.85197155889072   13.13709886891608
C         6.73455800986871    5.34156375934565   12.74200836150099
H         7.49636664553161    4.60910028958560   13.00317851033207
H         6.35278375547915    5.76074455750229   13.66992003913776
H         7.21752759654447    6.13258297036633   12.17583035290035
C         6.25318672936791    3.93356788254844   10.72247183823540
H         6.86102032046741    3.09586318535318   11.05882934374516
H         6.89568179619343    4.60008046795860   10.15258125547933
H         5.47182841967994    3.54252551259344   10.07283872369710
C        -0.58645793432866    3.36069078438914   12.37744003898538
C        -0.94691109060524    4.28283290658542    9.34823973342137
C         0.10050336436714    2.01936930945646   12.11352952213784
H         0.04380946438382    1.39376196234327   13.00203143701839
H         1.15280622147856    2.17210612232211   11.86907938741411
H        -0.36522037069540    1.47898717687541   11.29575573322444
C        -2.09063254026799    3.17779176300222   12.54020074414258
H        -2.51783880454420    2.65136086336794   11.69066140793631
H        -2.60626504820347    4.12862319911405   12.66294491433837
H        -2.28415347769702    2.57881230276032   13.42849810044605
C         0.02278032657735    3.96562851107655   13.64702650659638
H        -0.09265838388661    3.27051166336823   14.47629686532395
H        -0.45714465719943    4.90161043044300   13.92816460309215
H         1.09467462734459    4.13997871010591   13.50512590785110
C        -2.41762741375180    4.69545379445256    9.34991957635056
H        -2.54685567047587    5.75974391560288    9.53179777930431
H        -2.99190060154435    4.14416140824576   10.08870895693915
H        -2.84138229986340    4.47719137018255    8.37122431728684
C        -0.14732582830160    5.15850450007837    8.37641770162434
H         0.90362382379683    4.86289788123122    8.37836449367737
H        -0.21643128793829    6.21723276386954    8.62593456543215
H        -0.52871425209049    5.03333569719415    7.36545737601604
C        -0.80496597383758    2.82083835045167    8.92838769989932
H        -1.07374053182342    2.71378081430802    7.87926531377016
H        -1.46375814345352    2.17687584360857    9.50556065858792
H         0.22379441908843    2.48489324297167    9.04779519743642

