73
CSD_code = ASECUX | q = 0 | S = 0 | Stoichiometry = C24H45NP2Pt | MND = 4
Pt       -3.92126469742897    4.46256221346983   12.67823643434363
C        -3.01521344486848    2.82005139427504   13.58027674790253
H        -3.49468242244168    2.48049668951094   14.49979053831141
H        -1.96385997272585    2.98940445719432   13.82903268532194
H        -3.03749289893147    1.97129564146161   12.88455473285955
N        -4.85597971066311    6.12057391013514   11.70060410671444
C        -4.23786972034593    6.83097360366504   10.75669636983082
C        -4.76394026427817    7.98442303312044   10.21784663330494
H        -4.22907905692428    8.52929181803389    9.45584306010681
C        -6.01978897843543    8.42271390338305   10.67287060646160
H        -6.45086300457989    9.32637986244355   10.26528158938521
C        -6.67799115086349    7.69638926008534   11.61236905230242
H        -7.64796459933050    7.99606465873488   11.97944595561787
C        -6.09335962777270    6.50719688567974   12.15294884844267
P        -5.95389082005055    4.30453542414755   13.71166227482679
C        -6.73838530486158    5.75775924635336   13.11238484510982
H        -7.72755360402163    6.04057738415034   13.43859109795757
C        -5.99836112511950    4.48304161827948   15.59499345522089
C        -6.98341651004524    2.85179405351161   13.06561547509567
C        -7.26566193882208    5.18638231171201   16.07716238913500
H        -7.24527671141631    5.26888754674216   17.16390981429641
H        -8.15921694441475    4.63452730283082   15.79566006279725
H        -7.33120225058605    6.18940654093639   15.66395903329766
C        -5.83430867034301    3.16690572649478   16.34748267853585
H        -5.01118197797065    2.58412449977080   15.94344302773289
H        -6.74500956405856    2.57427242817608   16.29906067248383
H        -5.62373749408922    3.36947233491522   17.39796706983713
C        -4.78878117312379    5.38670316836409   15.85383772767792
H        -4.89932221735359    6.31731533669083   15.29502035018658
H        -3.87222271043681    4.89088555099288   15.52629144884451
H        -4.69915218732990    5.62901804323608   16.91210944165372
C        -6.80453115399115    3.00541762177830   11.55147235488229
H        -5.73387555890502    3.05264400538767   11.31233043662786
H        -7.27357821956754    3.92298333616208   11.19977772829240
H        -7.24283825878921    2.16296696343158   11.01813281937823
C        -8.45647707012031    2.96354729341468   13.44112013105926
H        -9.03873396366013    2.22681355396504   12.88741549477174
H        -8.84153919623924    3.95193901927919   13.19913451863194
H        -8.60454895551716    2.77830731600222   14.50328862149357
C        -6.42663241977912    1.49299604541492   13.47976650773075
H        -6.59829995906565    1.28728391382665   14.53152007056390
H        -5.35890214308394    1.45049768838015   13.28307903659032
H        -6.91440695746753    0.70760151898296   12.90173310981023
P        -2.12114171699418    5.20078309968775   11.46975698156294
C        -2.93696156146754    6.29050540240623   10.22614084324245
H        -2.28250412329066    7.09800000011122    9.88757376368985
H        -3.17411228494173    5.66526115404800    9.35859684298428
C        -1.09617109124190    6.40939573808836   12.49336059973620
C        -1.07516526459151    4.08590748027267   10.35646616663400
C         0.04339261020395    7.09974264751175   11.75158295451114
H         0.45451741077169    7.89019847986618   12.37932820812136
H        -0.29664322252642    7.55644318088531   10.82424954058966
H         0.84824795795450    6.40316612490530   11.52815191174847
C        -0.56030344507485    5.66895650314218   13.71918361265275
H         0.16482805568399    4.90598101655745   13.45118799740068
H        -1.38710597169449    5.19539948433480   14.24782457340132
H        -0.07699909462800    6.37230834094548   14.39643162592182
C        -2.10905014519890    7.44484853930808   12.99173287302197
H        -1.65578201629832    8.07304246590457   13.75777733910008
H        -2.97031881492271    6.93604723020124   13.43492120587444
H        -2.46201050531840    8.08998582417803   12.19013774968654
C        -2.09162562127212    3.08160994875000    9.79973590673630
H        -1.58140467735495    2.26931144223925    9.28427756287085
H        -2.77151351657886    3.55090790060247    9.09086849310265
H        -2.68492901436908    2.65810876753036   10.61183229375595
C        -0.37124424330557    4.79571964474464    9.20117355781629
H         0.37252736368573    5.50293491159217    9.55548246596123
H        -1.07265786491297    5.32289804295060    8.55963567182236
H         0.14050141839666    4.05232158107177    8.58989456859437
C        -0.04722512649065    3.32835291348043   11.19466260924415
H        -0.52301819066063    2.87467764450271   12.06060190007742
H         0.75052428267214    3.98678740245168   11.53050817587593
H         0.40524302360063    2.53527296322452   10.59980294880668

