55
CSD_code = ASECOQ | q = 0 | S = 0 | Stoichiometry = C12H36N2Si4Zn | MND = 2
Zn        2.37230755864653   11.14188530445919    8.02054037002548
N         0.62848871677268   11.16569815703958    7.36140807068475
N         4.07695777821193   11.08446450733753    8.77308566638460
Si        0.20826019670706    9.94673529628649    6.21184049023376
Si       -0.42558497325308   12.35258068614489    8.04332612133275
Si        5.28866666015968   12.07502717726783    8.04247605111767
Si        4.27737031461550   10.02877810445523   10.12618155113172
C         1.64506749643777    8.68960586161458    6.29719773044468
H         2.60529296562071    9.20932677566898    6.26831956430197
H         1.62848186847559    7.98714558742930    5.47065399870177
H         1.60570098618426    8.11297011714632    7.21702342966880
C         0.10341544719685   10.64975826358916    4.43799518017397
H        -0.72140811180649   11.34748598362664    4.34557317939175
H        -0.05063654882291    9.85994437265867    3.70946168660250
H         1.01216323684798   11.17817500471453    4.16700428559482
C        -1.43295186465715    9.07803012686553    6.64313877686223
H        -2.26015768669841    9.77697669481565    6.59030981378919
H        -1.41479528702290    8.66339572831555    7.64530509979401
H        -1.64047373070550    8.26808063545597    5.95156922503834
C        -1.49237221248032   11.63259805770349    9.45747693531094
H        -0.87560056562412   11.16121164984537   10.21673184312076
H        -2.18006096074508   10.88268266289866    9.08225485479010
H        -2.08109676903235   12.40544200003458    9.94176078168083
C         0.74484800647961   13.67581975728696    8.77214473836318
H         1.22565335542872   14.24974993921412    7.98557295911002
H         1.52862542564691   13.20084241093506    9.36690050825368
H         0.22388178593895   14.37642719592287    9.41594032724639
C        -1.56349785010188   13.13791638095190    6.73267019007074
H        -0.99512084841953   13.56034355632816    5.91141810577516
H        -2.16539001994433   13.93084075623345    7.16401521198021
H        -2.23942520391142   12.39742563883276    6.32031326544708
C         6.94338826158552   11.15353280251441    7.83160132320237
H         7.36372297587005   10.89661723853185    8.79733161572054
H         7.66866738857580   11.76796555567426    7.30848922130857
H         6.81968845142354   10.23376175361163    7.27034243099866
C         5.58062392220061   13.68525763892861    9.03048002140612
H         4.65625109001274   14.23776496263601    9.16888329631710
H         6.28364969181825   14.33809652106878    8.52262282563725
H         5.98395879349157   13.46944182926657   10.01366721699452
C         4.57421674734887   12.52445273240061    6.32793164610510
H         3.53055994217289   12.83395143879853    6.42250533065836
H         4.60933518018852   11.67367768064897    5.65378596005119
H         5.11523381941830   13.33767216955185    5.85593275782229
C         2.50269693239355    9.71225192424212   10.76026876122381
H         2.09083863670700   10.60259233723781   11.22669231679028
H         2.46276786153744    8.91176446106826   11.49136549580305
H         1.84749724069900    9.43545719566635    9.93181225839126
C         5.32500342451799   10.81870966239068   11.50801837529453
H         6.33519044783700   11.00708119912586   11.16268680253537
H         5.38763115650357   10.16489305445009   12.37160225479388
H         4.90636899921659   11.76388685477762   11.83606205895534
C         5.05882987431055    8.36093736269521    9.61362344803244
H         6.07815134438477    8.49964637978846    9.27033450542375
H         4.50157006091550    7.89495339369835    8.80660362627979
H         5.08384859073019    7.66346946010951   10.44504643782065

