38
CSD_code = ASELAL | q = 0 | S = 0 | Stoichiometry = C17H12ClN2O5Rh | MND = 4
Rh        2.02010689000027    2.63631098139463    1.63709834433652
Cl        0.11494126097779    3.36038665399386    2.54045201061410
C         1.95816171152269    1.29453746218283    2.89593763571458
O         1.83395636519237    0.51465197815714    3.71831898750187
C         3.58766359369089    2.06379090240022    0.84976946512237
O         4.54545126234917    1.69846386679823    0.33458866919491
N         1.55266956634130    4.22692457255217   -0.94323558778557
C         1.37257743573088    2.99913404221259   -1.61637378454150
C         0.66616654294737    1.97352532941796   -0.99252466756990
C         0.53397367472117    0.75547583077148   -1.63891482407740
C         1.08487695660127    0.56760436947180   -2.89572752785144
C         1.76291207800845    1.60248841959791   -3.51885902717237
C         1.91528200164301    2.82107126590512   -2.88211704059963
N         1.90932030542922    4.28104146871842    0.36814011023817
C         2.03830327238831    5.54514759549344    0.72103055077266
C         2.48187689682009    5.86253902634122    2.10013359468772
C         1.75422237469045    6.37553623747066   -0.39553743646455
C         1.67176858190707    7.79264788601545   -0.69275379263056
O         1.47059996351586    8.14464241615255   -1.86579977741304
C         1.78212437859160    8.82148576774923    0.32587955320539
O         1.89754628383527    8.56174383721151    1.64675113616070
C         1.93868270810745    9.73307537134889    2.28027201207196
C         1.85397040868376   10.77401575606044    1.39820703522592
C         1.74910592972077   10.18746025917445    0.12636923938532
C         1.47076650525567    5.46990767882496   -1.43814385707063
O         1.16003467757040    5.73915370498339   -2.68673267143067
H         0.17438362741625    2.14301224595887   -0.03536026053205
H        -0.01207147284362   -0.04309407580406   -1.16088236338336
H         0.97827171066975   -0.38348050034376   -3.39460922928879
H         2.18387494261250    1.45987145596546   -4.50223925850223
H         2.44904007525974    3.62751124349458   -3.35919487748162
H         2.79697392165573    4.92768421307505    2.58745351230211
H         1.65967133702157    6.28804733555118    2.67220092349418
H         3.30634044093638    6.57120255262380    2.09257105031792
H         2.02710454281715    9.71030662679966    3.34915082831041
H         1.86323498116604   11.81846240956687    1.63133831091232
H         1.66037376202851   10.67734087874167   -0.82102982555057
H         1.17864050511927    6.74367293394364   -2.73992716019088

