104
CSD_code = ASENAN | q = 0 | S = 0 | Stoichiometry = C37H60N2O4Ti | MND = 6
Ti       -0.23122837339795    2.89908972605662   11.09421024696347
O         1.46318442546303    2.25913364834122   11.19751279880830
O        -0.59208880021571    2.05817036991985    9.52100971937826
O        -1.93265947659678    3.28356423359217   11.38570235091295
O         0.26680890073695    4.49052153093812   10.54690545207693
N        -0.68263031917010    1.01086756000787   12.01230395025479
N         0.11945310277785    3.34698972747466   13.25507832377896
C        -3.16244858825399    2.77792103195326   11.04279225387991
H        -3.70712667029121    2.44807609007990   11.95562662399778
H        -3.05152727530684    1.88971612001594   10.38634684540110
C        -4.03187040916872    3.81625611640956   10.31824475587517
H        -4.18549582089982    4.68153470427367   10.96031945194589
H        -4.99747415530007    3.38829360767281   10.05946973691803
H        -3.52731505830589    4.14064766800453    9.41064742542718
C        -0.48032538877713    5.47832714513550    9.93924659598358
H        -1.48144667044995    5.53298560658056   10.41169022070248
H        -0.62135674455307    5.23733970578555    8.86729806624592
C         0.20959714092349    6.84560173266538   10.04768203038303
H         0.31984055652604    7.12660184366912   11.09370668485648
H        -0.37265503408135    7.60768633750365    9.53578308060398
H         1.19940661882979    6.78945272932451    9.59982558680834
C        -0.80636615065140    1.06712565492152   13.44000736423058
H        -0.63853778418138    0.08267365073386   13.91335039123300
H        -1.82689454171338    1.39487542898510   13.68066910036309
C         0.20726383428735    2.08409151868228   13.98594941666230
H         0.03951099653153    2.23503930293373   15.06599858808306
H         1.21376371961309    1.67471452892863   13.84644598077727
C        -0.60092204029044   -0.10927033750206   11.40428244686390
H        -0.62621693080148   -1.04658919478419   11.98666618769612
C        -0.48716216089095   -0.27111663796015    9.98576468947148
C        -0.35415190195014   -1.57353200129207    9.48146323668671
H        -0.32370605300982   -2.38327888455187   10.19682354589527
C        -0.24935480509546   -1.82993088556217    8.13437877195168
C        -0.33288276202950   -0.73475435626377    7.26416816147560
H        -0.28589618926394   -0.92460593011338    6.20734464287281
C        -0.47614520005544    0.56742371234068    7.69001978992916
C        -0.50737928324056    0.84354421007984    9.09258868904098
C        -0.93755592259710    4.18644011600422   13.80670970563207
H        -1.89250042926339    3.66597495093226   13.76867538986254
H        -1.02470111605120    5.09264799793355   13.20649634903546
H        -0.71566364252942    4.46146609646954   14.85181235922292
C         1.38032321279865    4.10191055819004   13.33355487802830
H         1.51467811020798    4.48580296833515   14.36168090567855
H         1.27429818365028    4.95583847158903   12.64991434404422
C         2.61588891636055    3.33101585992382   12.94733893338525
C         3.77494293092086    3.51790367938763   13.68529952119738
H         3.72679711876677    4.17685493380348   14.53901925005647
C         4.96024642709475    2.89200713284811   13.34199295648920
C         4.94099081106625    2.07451297555235   12.21385152685845
H         5.85953925398239    1.59107415874173   11.92827767885523
C         3.81182422426978    1.84661041075546   11.45102022339081
C         2.59347049959214    2.47909261371910   11.82327026579358
C        -0.05409830008490   -3.25903437491770    7.64634669664315
C         1.26354926076466   -3.79980175253857    8.21993138796434
H         1.42887898838711   -4.82299363041243    7.88828954226642
H         1.25427085185744   -3.78901723793083    9.30617343334860
H         2.09745393894732   -3.18845772259708    7.88180951573740
C        -1.22494724331306   -4.12618615892221    8.12993209917857
H        -2.16586583394851   -3.72873003600450    7.75553710911339
H        -1.27510797216676   -4.15461805354144    9.21456683416453
H        -1.11212413698133   -5.14628425999683    7.76828132022710
C         0.01312133356157   -3.36406589800162    6.12030908512029
H        -0.90965024237284   -3.01562629691427    5.66250462305181
H         0.15638780287359   -4.40474205977463    5.83551246748769
H         0.84815709586263   -2.79125084861544    5.72430083862320
C        -0.62851773951207    1.72657980932748    6.70824344317200
C         0.51994235988996    2.72918062849297    6.89201284279885
H         0.39356128309171    3.56391763733884    6.20418984270348
H         1.47383214871166    2.25076818210523    6.68068022134563
H         0.53956607135614    3.11621922307406    7.91116226666291
C        -1.96945578102064    2.42637753467322    6.98092276131214
H        -2.11922755113205    3.23735916884494    6.27019840864792
H        -1.98108879689149    2.83703409303024    7.98839347421786
H        -2.79198364132600    1.72016757369697    6.87861502364354
C        -0.62569125231133    1.26963823763408    5.24453642859684
H        -1.44146008624146    0.57849803074589    5.04426184301179
H         0.31783599699232    0.79857636321061    4.97870402415766
H        -0.75708958695118    2.13692097621743    4.60040914551952
C         6.25241371229323    3.05499536028004   14.12842069072155
C         6.71132340118502    1.68069041653846   14.63661892654726
H         7.63043015577271    1.77846693425502   15.21125133850973
H         6.89598803908696    0.99741538530537   13.81276208951290
H         5.94783899441254    1.24322250165126   15.27667243549646
C         7.33004886605047    3.65473980564758   13.21468103661938
H         7.00173747540106    4.61863768165191   12.83204700744308
H         7.53383587601338    3.00527181877147   12.36831463289414
H         8.25722976184954    3.79760497283322   13.76669710531344
C         6.09101097799960    3.97753983163752   15.33982381604987
H         7.03974334296802    4.05480367986215   15.86781083995342
H         5.35129584321924    3.58435135148867   16.03342030377326
H         5.79482382603202    4.97729177393730   15.03153963612537
C         3.84269671661557    0.92145359438065   10.24003005635242
C         3.30792952241398    1.67066016306314    9.01331174287393
H         2.30645836979689    2.04940375941758    9.20842351763236
H         3.26956287885479    1.00177208902281    8.15486871902744
H         3.95838465727520    2.51045295416454    8.77516288144705
C         5.24685119715637    0.40849035170082    9.90110546773764
H         5.92757098712431    1.23225397034960    9.69856041056180
H         5.19206393534121   -0.21037930227223    9.00726745011115
H         5.65298178262275   -0.20305887435484   10.70387003353844
C         2.94975446824810   -0.29036888764837   10.53764592142706
H         3.34544398916122   -0.85151174988940   11.38327618610550
H         2.89794696063217   -0.95039525170240    9.67350412580790
H         1.94394200841204    0.04442660253423   10.77495145773870

