85
CSD_code = ASESOG | q = 0 | S = 0 | Stoichiometry = C44H32Br3O3P2Rh | MND = 5
Rh        3.30628351630352   22.55703741886721    2.15277695986673
Br        0.79359872210896   20.51658517061663    6.30054614767215
Br       -4.26360367100848   21.32620770612507    4.32292570312654
Br       -1.01064617036551   23.29449499291405    0.37605757601125
P         3.25442481125380   20.47831713078065    1.20552755851897
P         3.15033402995060   24.60678938424779    3.14999083972373
C         5.12601653056809   22.57013220737710    2.22722307426174
O         6.27643485010903   22.58450834614926    2.26648798609224
O         1.31503200500679   22.68509147488209    1.77574571004892
O         2.00113643486277   21.62607082819223    4.05818393481199
C         0.38430060590130   22.30309196606190    2.53288176225473
C         0.77983611836952   21.70045286240434    3.82662783470837
C        -0.14009716528024   21.21292764946013    4.79198140086344
C        -1.50876311648489   21.15008796966157    4.84435079036950
H        -1.93083345067580   20.71013725845987    5.73921423153598
C        -2.41370351916513   21.58387602906372    3.88756936206821
C        -2.16657913635873   22.17653481784276    2.66140219373817
H        -3.03540413718662   22.43657500230406    2.07026740266256
C        -0.94850968376728   22.47550761623931    2.09972739218017
C         1.62194520908204   19.68638844700645    1.39545954771851
C         1.30523733467790   18.92839045900185    2.51789287102580
H         2.07430310621520   18.68121101385603    3.23650760896852
C         0.00487231529062   18.49861313771508    2.72023521968927
H        -0.23444136987812   17.91306164598058    3.59629211432705
C        -0.98780079506668   18.82512300057105    1.81114239882294
H        -2.00334782542694   18.49662504759272    1.97734894524705
C        -0.67669638350360   19.57673663211881    0.68856085974651
H        -1.44803345630120   19.83533293963889   -0.02259291512177
C         0.61924980235941   20.01248674912607    0.48395828660573
H         0.85864541028379   20.62225179081773   -0.37805632029212
C         4.37967416685639   19.28847673752976    2.00304943226662
C         5.06935390729514   18.29052828061190    1.32705568316320
H         4.96665289053960   18.18561663917596    0.25662582234317
C         5.90318489419702   17.43530072712648    2.02706628002536
H         6.44104792044817   16.66232576620298    1.49770419310012
C         6.05126913265992   17.56807447935479    3.39744168229811
H         6.70235908166651   16.89624216832013    3.93683264550564
C         5.37208974105242   18.56874285087677    4.07459691548887
H         5.49064440484430   18.67873721894182    5.14228265094222
C         4.54624658722410   19.43166764730382    3.37982766628801
H         4.02175557549878   20.22721643318838    3.89673165428987
C         3.57157238680126   20.29055452726226   -0.57411672239380
C         4.21592485387397   21.33002808353888   -1.23432407366240
H         4.48066764665950   22.22024944798521   -0.67326243782563
C         4.49882993550894   21.22799654084048   -2.58443736609210
H         4.99823559480768   22.03772282686293   -3.09549194694030
C         4.13507325612934   20.08719062220045   -3.28082288334302
H         4.35299914147053   20.00558263901090   -4.33532931076779
C         3.48240198176774   19.05211339133627   -2.62910997576234
H         3.19242831965549   18.16685299363069   -3.17611986771815
C         3.19805619386167   19.14981330380764   -1.27946646983854
H         2.67681656138841   18.34876057304207   -0.77199840625094
C         1.49281823509350   24.89245297191038    3.85664588643833
C         1.17095550912173   24.49078134667420    5.14881463624691
H         1.94530828561881   24.12532169290037    5.80890380200444
C        -0.14103756854027   24.54952940017177    5.58676301947269
H        -0.38429645956023   24.23216635172589    6.59060420130303
C        -1.13995069062199   25.00253751687394    4.74091386762712
H        -2.16413347040228   25.03713278817067    5.08254277039327
C        -0.82378029913463   25.40910267257031    3.45385586907404
H        -1.59964033236175   25.76209052823326    2.78977548756363
C         0.48394654624587   25.34784359651345    3.00967386453924
H         0.72838260532399   25.63915409573604    1.99600314675559
C         4.24873944647052   24.79740567374314    4.59033063235368
C         4.44580378048629   23.65452358693849    5.36425249502433
H         3.95839469680202   22.72987790881576    5.07679969783980
C         5.25563392251352   23.70231429442338    6.48280058557676
H         5.39783168913615   22.81637551226812    7.08361758131372
C         5.88902115649691   24.88635287713986    6.82649765138470
H         6.52735711051011   24.92504504652568    7.69671415521842
C         5.71210089370737   26.01781076509204    6.04815255206711
H         6.21515822765688   26.93746643119850    6.30917794354886
C         4.89384876997267   25.97871277289309    4.93200838621134
H         4.76903016365793   26.86367711433068    4.32489568454489
C         3.41321338737635   26.11064991178070    2.16427069880910
C         4.06504556930918   25.98486915238310    0.94332028058655
H         4.36967092241069   24.99694768384553    0.61354049978110
C         4.30448426869984   27.10222351353058    0.16384512397905
H         4.80955917628241   27.00191237178133   -0.78538963306076
C         3.88981719960900   28.34950758951760    0.60089056042615
H         4.07377905431612   29.22330064942752   -0.00638357807189
C         3.22939536217976   28.47861751632667    1.81309404768788
H         2.89944647255853   29.45132238227044    2.14770067869578
C         2.98804614245145   27.36438178451851    2.59538184023663
H         2.46027513050418   27.46065190646378    3.53511392202782

