44
CSD_code = ASEVOL | q = 0 | S = 0 | Stoichiometry = C18H22MoO3 | MND = 9
Mo        1.72493159791861    4.21634478864895    4.23191709080630
C         1.24438225949496    2.14259619352562    3.28639521639759
H         0.30133065912200    1.60898173917653    3.22667428665442
C         2.07174488855890    1.88937915494826    4.40239040534668
H         1.75386537857884    1.17651171848847    5.15757110330014
C         3.32713531632423    2.49199813004961    4.48283153445552
C         3.74013788227001    3.33474587672099    3.42480216675858
H         4.75090979684391    3.72773198302164    3.45495474167272
C         2.92219628383421    3.59797919901561    2.31412197875962
C         1.65024078916835    2.95681270933512    2.21934359683949
C         4.27269934763570    2.18189064110378    5.60467633200017
H         3.73671578882300    1.80145912198947    6.47229942288793
H         4.82756246209557    3.07064190548219    5.90251050114730
H         4.99170873285627    1.42431797024721    5.28463017910771
C         3.48265888704469    4.43586302409238    1.18109959446327
C         2.33786585571122    4.90815108108829    0.27709043612795
H         1.74422507127795    5.64600376016276    0.82103835236018
H         2.75678868855380    5.40387688153779   -0.60094855999363
C         1.44801455324251    3.75901947471031   -0.16727846189434
H         2.04950956148308    3.02357490689886   -0.70557090117338
H         0.69403871114426    4.13093966002292   -0.86358798815079
C         0.73527751544015    3.07428321125952    1.00949624741580
C         4.48195330683270    3.56562636804954    0.39921527255712
H         4.02779298243920    2.63250217498259    0.07322776625822
H         5.33955413840585    3.31844704954455    1.02207443672616
H         4.83900700638431    4.10294511776557   -0.47628844171112
C         4.21314531940115    5.68183881489124    1.70073464118506
H         4.43918480032059    6.34132104653591    0.86569999406244
H         5.15344823043166    5.43341541795515    2.18625525130354
H         3.58967359635068    6.22521820420298    2.40938651927402
C         0.30315671618773    1.67354745978638    0.53927473321701
H        -0.17884654365261    1.75138845843967   -0.43288867965177
H        -0.40735308857528    1.21607078743834    1.22281680623440
H         1.16503782560604    1.01430948468013    0.44312181568067
C        -0.51687238572520    3.87638388389971    1.39250104680874
H        -0.25918863086806    4.90385727482166    1.63977847906738
H        -1.01583218748707    3.43894823035325    2.25528149200458
H        -1.21957145148252    3.88591567926872    0.56154427066590
C         0.01636099142481    4.35289999154878    5.10768745950582
O        -1.01738960374081    4.38163711853856    5.60010914258802
C         2.39492854067049    5.18567633050949    5.75370114205473
C         1.26462030586539    5.97261690838601    3.60347294152151
O         2.84645907862007    5.72472787811484    6.65810313118420
O         0.98719102517447    7.01260318875946    3.20303350416245

