41
CSD_code = ASEWEC | q = 0 | S = 0 | Stoichiometry = C14H18N4S4Zn | MND = 4
Zn        2.26484423409858    1.10101963963583    7.81612590631384
S         1.43425035817905    2.60399184528947    6.18892259902713
N         1.76922921409907    6.11213275776723    5.61892934133400
C         2.09870266252741    3.99051104255876    6.99987178358170
N         3.57681943391974    6.27751507111662    9.07090584844950
S         3.13297445527256    2.70694964404832    9.28259819160090
C         2.75056847578374    4.01988119132830    8.20384669073576
N         0.29066546641023   -1.51706244776950    4.85877685541554
S         0.76756478782978   -0.99815822053775    7.38914674436553
C         1.92736121818887    5.18257477302820    6.27351153824319
S         3.74051357757244   -0.46279033271594    6.21940681549382
N         2.39825766362028    0.10939587523867    4.02017886291986
C         3.19925204309455    5.27027609463332    8.67264526641137
C         2.37640318739156   -0.38648584007259    5.25121703772885
C         1.17172351601846    0.06610002769660    3.25802959093937
H         0.48820717626811    0.84897656128656    3.61042860530934
H         1.39537255144811    0.23824982471701    2.20654172606899
C         0.54614995558494   -1.30807116913077    3.44951982434036
H         1.22210023024531   -2.08442068047979    3.06877957154157
H        -0.39743406174483   -1.36668438098295    2.90789060811018
C        -0.91358300539358   -2.23748099970491    5.25804121061234
H        -0.76842683792743   -2.50729958827903    6.30803809245548
C        -2.13029689371981   -1.32050270171082    5.15379938037029
H        -2.32539199977309   -1.03399656397912    4.12274065010452
H        -1.97224960307428   -0.42201682522117    5.74479495648438
H        -3.00586205207620   -1.83429593960527    5.53854663062613
C        -1.08062357199281   -3.51810156960237    4.44716738723401
H        -1.35467935575136   -3.31871686556972    3.41438367208245
H        -1.87162373635370   -4.11356735521124    4.89379636953753
H        -0.16483100142938   -4.10363777758751    4.46433193858630
C         3.57066545349939    0.77188584809273    3.46363378993839
H         4.26630992576167    0.90284685573320    4.29821234227908
C         4.22794824751881   -0.12548003794823    2.41787803425008
H         3.56889764362590   -0.29194003303988    1.56827731478774
H         4.49162163039977   -1.08506054227152    2.85606697475452
H         5.13582519001693    0.34829442487253    2.05748276279683
C         3.20701296262271    2.14495775267485    2.90911162051326
H         4.12063740175179    2.69562584433479    2.70528137513552
H         2.62859834136372    2.70703038013535    3.63837977811509
H         2.64022592082666    2.07838981648666    1.98403033518712
C         1.11519919413315   -0.96883539936438    5.75113197625626

