41
CSD_code = ASGLCO | q = -1 | S = 0 | Stoichiometry = C18H14CoN2O6(1-) | MND = 6
Co       -4.38858066446458   -0.49588139319906   13.32747390640692
C        -3.86982983218530   -2.07139277428839   11.19386818089007
C        -5.59738909514643    1.58624313253229   12.09984262323143
C        -4.16155227363572    2.08467128489461   12.43739196786284
C        -2.58290503241340    1.49996957052973   14.09547718380576
C        -1.87136318957151    0.63284534941363   14.97625493400113
C        -0.85570261892487    1.16436601921326   15.78438281023285
C        -0.11827751560493    0.37719741294856   16.63282414655480
C        -0.38431734820935   -0.99310015553836   16.68885145815987
C        -1.36655155523004   -1.54758162287944   15.91344213377367
C        -2.15620285821877   -0.76762349602770   15.02664271902958
C        -5.08993855625475   -2.72850928842743   11.90363892379650
C        -5.86930650898274   -2.72978240394768   14.13426463447434
C        -6.13502060963255   -2.19000311045092   15.42731677427335
C        -6.78991497367275   -2.98649906450140   16.37803066711201
C        -7.09772779959038   -2.51534630985496   17.62965623965869
C        -6.75273255541657   -1.20347846179971   17.96367180199904
C        -6.11434682686915   -0.39632161367194   17.06119217485547
C        -5.77259501968212   -0.84673403440528   15.75787644050165
H        -4.17401610774263    3.10418826840438   12.84001281205146
H        -3.61491431526843    2.08163101359915   11.48626244415117
H        -2.24597404445330    2.54097684080845   14.06303958825912
H        -0.65835094982078    2.22769157730325   15.72743433128405
H         0.65868167078158    0.80653257682896   17.24904559249926
H         0.19273059737775   -1.62158694917072   17.35468204186456
H        -1.57681013204028   -2.60620102514725   15.95397800029930
H        -4.98119176013634   -3.81756974681846   11.96441065306597
H        -5.96018771296069   -2.48949607109649   11.28002979961541
H        -6.25059021086988   -3.73772487239209   13.94198782262026
H        -7.05415678677645   -4.00023170768028   16.10358589621245
H        -7.60082348949081   -3.14583851942110   18.34872532131225
H        -6.99216119770198   -0.82337940776994   18.94830346268451
H        -5.84447571673364    0.61817499957952   17.31509007619410
N        -5.24793691331653   -2.11622181347360   13.19426681398012
N        -3.55434768601249    1.14278103334461   13.33726850071999
O        -5.17865732632569   -0.02975232474271   14.96851019326512
O        -3.51047318372353   -0.97056320862081   11.71236496236482
O        -3.37858938019914   -2.60676256935603   10.21615068411670
O        -5.79304640323218    0.36506596046217   12.38327858371345
O        -6.39547860095431    2.34694964952036   11.58187203043192
O        -3.05467551669431   -1.36090274470104   14.33090066867423

