77
CSD_code = ASICUB | q = 0 | S = 0 | Stoichiometry = C33H41AuN2 | MND = 2
Au       11.88864342909817    2.81879568710752    2.84388948621303
N         9.53649652955538    3.77103649342790    4.51004578939224
N         8.85556751161925    2.68796654881490    2.79732421617082
C         9.96958881031039    3.09530623589641    3.43100718023499
C         8.16583671858034    3.78781269731252    4.55524884339317
H         7.62701456328869    4.27738342524695    5.33992804391943
C         7.73459375243078    3.10168178120025    3.47061731803284
H         6.74648918898576    2.87666575115437    3.12591937370954
C        10.39635729617259    4.38614417644581    5.45895751971407
C        10.88672426420606    3.62543923916339    6.52144833318599
C        11.72822557907754    4.24768421567413    7.43346818768145
H        12.12762666515814    3.68433239157639    8.26216082054921
C        12.07078455559472    5.57782379371573    7.28718019756807
H        12.73069289840291    6.04475180336700    8.00298176320484
C        11.58348487326053    6.31040594432351    6.22183892831835
H        11.87375574307357    7.34317505833001    6.11098532098017
C        10.73493134097490    5.73020842115893    5.28943609245676
C        10.54839501973633    2.16092846206658    6.66828859393235
H         9.83117836263668    1.87697936101107    5.89159339981176
C         9.90198093911799    1.87425851253149    8.02516257171807
H        10.59487960853201    2.07181885632134    8.83844733090154
H         9.60204459324947    0.83012090914940    8.08037295094713
H         9.01938629054334    2.49501816097816    8.16811396871544
C        11.80856312299691    1.31628548257170    6.46774027637604
H        12.25261048204591    1.53091409790014    5.49650009641282
H        11.56172517728265    0.25797249943299    6.51176915486299
H        12.54568418063860    1.53146688893441    7.23670785884940
C        10.24352979560648    6.51894513593697    4.09848634971990
H         9.45920507248876    5.94953793133171    3.58879533168503
C         9.63918339817823    7.86201815414504    4.51138110728169
H         8.86530050856663    7.71940834459709    5.26320345147562
H         9.19412260252930    8.34825150094031    3.64600163102334
H        10.39608794646771    8.52653755156272    4.91839695871583
C        11.39851453758251    6.71445120474776    3.11279300793172
H        11.05160558368303    7.23996140034059    2.22580410804748
H        11.80406952413292    5.74884191818574    2.81193129706153
H        12.19757839951388    7.29295102511843    3.56939968422675
C         8.85935991456907    1.92619812339512    1.59815048985333
C         8.79992887233531    0.53367029217003    1.68548748715961
C         8.81991319195337   -0.19432171265584    0.50424046430115
H         8.78965713647127   -1.27173145623244    0.53907098078242
C         8.88779974615472    0.44460437899963   -0.71910521286595
H         8.90337094624176   -0.13729208722113   -1.62851694534675
C         8.94742958778552    1.82302256240497   -0.78353935261978
H         9.01176046401182    2.30767962469161   -1.74506532397787
C         8.93741452266416    2.59055096223693    0.37328117911683
C         8.77626918774016   -0.16521124258510    3.02462365261545
H         8.54354181722754    0.56542480763012    3.80656105893493
C         7.70689037344299   -1.25699391025002    3.08703805057484
H         6.73672416972151   -0.86117522182188    2.79264100817185
H         7.62977444561077   -1.64008589969684    4.10237750427290
H         7.95322912505533   -2.08849449757405    2.43264239560559
C        10.16581552203411   -0.73987492979920    3.31346108608961
H        10.43299106661501   -1.48391298453992    2.56711998342662
H        10.18284726850312   -1.20917095064338    4.29465630644165
H        10.91414703774251    0.05169285633077    3.29003180225075
C         9.03356998834820    4.09555688719274    0.29259773388726
H         8.97305071456134    4.51519004526390    1.30189146529120
C         7.87669790928014    4.67658667698867   -0.52347961202650
H         7.92231221150186    4.34395225502609   -1.55695460434999
H         7.92376674034624    5.76328662044011   -0.51315184652061
H         6.91981902339464    4.36832448364291   -0.10596957278508
C        10.38506576089080    4.50222931713067   -0.29849586107700
H        11.19553262374227    4.08220500970999    0.29632039494732
H        10.48072445935588    5.58575274740572   -0.30132047721554
H        10.48679578674208    4.14407849830465   -1.31961478610080
C        13.79877647298617    2.57743983427878    2.24295494051135
C        14.53842852432322    1.41981691793154    2.51285659010512
H        14.07297431281629    0.61582932898085    3.07453171654935
C        15.84843846096638    1.24512684770008    2.10161316946234
H        16.37266696677419    0.32755472634213    2.34066495397359
C        16.48914120459058    2.23963990620379    1.38522182766821
H        17.51261486707159    2.11035697103276    1.05732224649498
C        15.79764195497236    3.40082924898790    1.09211471922470
H        16.28109884274857    4.19152323175034    0.53086297969072
C        14.48862283805750    3.55431388047502    1.51466430936898
H        13.98293707565816    4.48204678815837    1.26458655355472

