76
CSD_code = ASIDEL | q = 1 | S = 0 | Stoichiometry = C35H38IrP2(1+) | MND = 6
Ir        0.74183217471349    2.96803480389634   11.11981163107959
P         1.93144786545807    4.02542258437487   12.81547143832782
P         2.08766588770083    4.14948946908315    9.63331561504888
C        -0.97700876551552    2.63051310225518   12.40382994028497
H        -0.92073462123506    3.32447211307915   13.24316987779544
C        -0.19211094268833    1.49242094306346   12.46854810572855
H         0.45931412668322    1.38677518592332   13.33245197591513
C        -0.53365618075935    0.19284432911361   11.78143678897202
H        -1.61615150409569    0.10407335926241   11.69542032322273
H        -0.19094665226356   -0.63558422411338   12.40242928057063
C         0.13116026945109    0.07867743413021   10.39934337181261
H         1.12844816476875   -0.34960646741747   10.51791304737737
H        -0.43733291197024   -0.60743427521841    9.76427534699013
C         0.27248628402726    1.39878119855681    9.68827600154691
H         1.03853740999423    1.38489846101437    8.91514203558203
C        -0.70676998849344    2.37466590022201    9.58824031040300
H        -0.61725078594329    3.06463277707579    8.75010129835733
C        -2.10568068555384    2.23808077385130   10.14417851660512
H        -2.40438802653452    1.19096163189687   10.09932447330866
H        -2.79481019608131    2.79417020429385    9.50721083342379
C        -2.23454005373398    2.77354862971537   11.58494471412806
H        -2.49948187867205    3.83265170501434   11.54983933156391
H        -3.05345681578410    2.26053282991973   12.09802195230419
C         3.76397918038540    4.00184063025001   12.56156499010532
H         4.06207267175810    2.96199223817112   12.40028382961099
H         4.24355786589430    4.34009537161439   13.48472090258027
C         4.22029943936979    4.85672779355149   11.38200144287568
H         3.76893337826486    5.84965197027490   11.45498917567952
H         5.30515067674088    4.98162820514905   11.44451299327194
C         3.89213220912834    4.22951202025083   10.02941398762516
H         4.39189385247149    4.77419216274192    9.22229497146491
H         4.26968796428573    3.20298911710235   10.00757061781265
C         2.46671812527967    2.18461936106805   14.83662837023181
C         2.36344126762994    1.65675007922497   16.10992718350644
C         1.60450711566799    2.30599393483654   17.07098258766889
C         0.94578189438141    3.48197040506927   16.75345758568195
C         1.04733466905718    4.01511869946577   15.48051114473148
C         1.82144821229415    3.37756470499046   14.51657901017593
H         3.04989905417571    1.66929964698828   14.08616209280904
H         2.87287084808654    0.73675158281800   16.35338089129832
H         1.52496299686004    1.89336471999028   18.06460477787589
H         0.35060701471522    3.98721338188767   17.49864751927943
H         0.53369650260181    4.93471683722560   15.23741975936691
C         2.45219011434178    6.67222011085333   13.67285232161362
C         2.10983687886246    8.00298627555779   13.82892203837816
C         0.88162320340013    8.46657361200248   13.38497626007809
C        -0.01355595603868    7.59284785154058   12.79154038304306
C         0.32894148974682    6.26362247037458   12.62709935296933
C         1.56578262659974    5.79392712138038   13.05619020556098
H         3.40501121718207    6.32175504581198   14.04058035545498
H         2.80295711477964    8.68076267009757   14.30355173919998
H         0.62105110513192    9.50610756443557   13.50966398540095
H        -0.97662348837440    7.94769602002089   12.45808469227228
H        -0.36270030388737    5.57285863843410   12.16492734647589
C         0.19851956622710    6.13701733571023    9.53436481590739
C        -0.29117359028550    7.42348859819701    9.41757942705048
C         0.58795721742975    8.48536718447462    9.28050685081074
C         1.95158727213118    8.24985549950398    9.23998361266119
C         2.44459164292302    6.96001402807161    9.33845062220429
C         1.56995886990839    5.89152035252782    9.49876370869253
H        -0.48160401764458    5.30363006535444    9.64973856377406
H        -1.35604547469592    7.60039136410717    9.43455951535153
H         0.21147570621128    9.49316699261806    9.19864873943914
H         2.63810095734592    9.07455789250652    9.12317432263531
H         3.51002461040021    6.79974322146438    9.27965263134046
C         1.50441376553136    4.32505032068083    6.88196785082278
C         1.56488704365576    3.88466900878211    5.57116521161406
C         2.28960514146923    2.74992933995847    5.24873536800054
C         2.95453080631522    2.04983524812975    6.24291874172436
C         2.89552166833327    2.48509451372306    7.55336088002274
C         2.17960307596587    3.63500173015093    7.88300700070478
H         0.93924726805239    5.21334876664648    7.12477832291444
H         1.04398130660334    4.43130795597213    4.80000868587934
H         2.33568631690467    2.40962541110625    4.22606624990402
H         3.51744577919353    1.16240757085090    5.99647157802061
H         3.41052395374945    1.92900488732292    8.32475857611125

