62
CSD_code = ASIGUF | q = 0 | S = 0 | Stoichiometry = C28H30ClIrN2 | MND = 6
Ir       -0.04506312342069    9.66268102477577    1.14161532886987
Cl        1.26113859083709   11.38415327263951    2.11032068591065
N         2.42276210436275    8.83310475894392   -0.09673258424570
N         2.32144071229339    8.04777773956252    2.07672611870880
C         1.72314824933340    8.69124911875571    1.04877395332439
C         3.74346620182980    8.43341541464975   -0.27191823969638
C         4.45850945461883    8.70716635875677   -1.41744842029538
H         4.01530063445134    9.27909720268089   -2.21682413161149
C         5.77001655658454    8.23950952348522   -1.54273392913169
H         6.31650980516503    8.46225180572310   -2.44703888431992
C         6.35418640568536    7.50508868139769   -0.54794455499688
H         7.36115305663842    7.13139201897920   -0.65615754727089
C         5.65419587867622    7.22414898869187    0.64323421162206
C         6.21661799558038    6.47404863897956    1.69422114272716
H         7.22418425131873    6.10097192249766    1.59174057645484
C         5.48379272531766    6.22704822328641    2.82031125431825
H         5.90573566242396    5.64162326723183    3.62422877716161
C         4.18566959580283    6.72575445026708    2.97425807604204
H         3.67136927497313    6.49607124923217    3.88715582589746
C         3.59982428543863    7.48605969942009    1.98276171514164
C         4.33276061194651    7.71227878160709    0.78909693762646
C         1.77017962039326    9.46191378639231   -1.20430135437242
C         1.59899343736760   10.83986084660698   -1.23151990511527
H         1.96835085097229   11.44134955173956   -0.41611112229388
C         0.96944396095720   11.42547965471299   -2.31712878915894
H         0.83096122445717   12.49597728757243   -2.33865794461924
C         0.52301567737355   10.64555063693232   -3.37144651218968
H         0.02796160052516   11.10631559093158   -4.21356500381784
C         0.72228218129342    9.27529698773596   -3.35316873896219
H         0.38829565338952    8.66714723052036   -4.18069206532772
C         1.35294807210970    8.68032409758571   -2.27487650159558
H         1.52558601048598    7.61380068758955   -2.25700707487426
C         1.59752596506549    8.04619724497563    3.35575902144494
H         0.66972495387458    8.59307496190701    3.13444408093455
C         2.33263473971204    8.87597255333945    4.40535389895613
H         3.32647247776094    8.49770569039416    4.62382356967006
H         1.74949655502432    8.88511164484167    5.32239316318190
H         2.42149904732651    9.89824274972401    4.04471294902003
C         1.20684615633299    6.63787725836370    3.82579875051471
H         1.80171245544115    6.30591509412293    4.67215284374903
H         1.31637573616995    5.91685730212049    3.01923630786787
H         0.16650425784102    6.63337396859384    4.14104968036642
C        -1.58482412229654   11.07100390086419    0.58703881330568
H        -1.10133104695910   12.04255001219015    0.51151188572048
C        -1.89013320540105   10.59924951276274    1.84679535701542
H        -1.60950582918590   11.21301707709019    2.69880028894161
C        -2.99165716675882    9.59843238253765    2.11482977187942
H        -3.77691785190767    9.72599313655917    1.36851389903977
H        -3.43590609414026    9.80911754345505    3.08946431152443
C        -2.47785492334227    8.14663083200223    2.10630775045736
H        -2.18925194503085    7.86700658474889    3.12209825313784
H        -3.28094718470757    7.46622674872969    1.80237915135260
C        -1.27718315594115    7.93854144038415    1.20845006587950
H        -0.73076070963203    7.02759745927475    1.45213859648322
C        -1.19708870859838    8.38368013231969   -0.12456351255020
H        -0.57335584239219    7.79341986341820   -0.78979438218873
C        -2.33264576712967    9.09232743326690   -0.83425637988100
H        -3.28312077424638    8.71662629171463   -0.45122387401462
H        -2.29307321136403    8.84510269590639   -1.89691862115306
C        -2.26105936844853   10.62388968468847   -0.68647804322216
H        -1.69676255116887   11.03077144824101   -1.52760435651132
H        -3.26805010515500   11.05297885157155   -0.73188454080482

