56
CSD_code = ASIGOZ | q = 0 | S = 0 | Stoichiometry = C26H26ClIrN2 | MND = 6
Ir        0.41689893120238   -0.04070861633035    3.68776190063639
Cl       -1.72112662661779    0.95683856721200    3.57377561115199
N         1.39945221956996    2.56750959823705    4.49605547885945
N         0.43205197367571    1.46353222720644    6.27346315041158
C         0.81326811788568    1.44902867608498    4.97991663488071
C         1.58783675573717    3.73970353489761    5.22341879727140
C         2.09835056863540    4.89283823599895    4.66726989164594
H         2.34810178898237    4.93262042381480    3.61911024171211
C         2.29080038268893    6.02221139964208    5.46899060216765
H         2.69393307745883    6.91557504572550    5.01571465551860
C         1.98377638107264    6.00739155509131    6.80232350098725
H         2.14710916758982    6.88031836373866    7.41592897352495
C         1.43731116636734    4.85252099875973    7.39752237906912
C         1.08443789978707    4.78403452061564    8.76059736935361
H         1.24196468379112    5.65058172389406    9.38449311801090
C         0.54797257178985    3.63705471224282    9.27563011406052
H         0.28146581384842    3.58647702378381   10.32107500000654
C         0.32047724909008    2.51156513818872    8.47470462133577
H        -0.11301357748995    1.63828670016771    8.93082591020859
C         0.64752747649589    2.53969872562498    7.13475331375319
C         1.22786165739596    3.70992496776924    6.58916396416663
C         1.84169929753250    2.54440959027153    3.13613735035565
C         3.20392797856426    2.51037542383027    2.86451647667264
H         3.91237337684586    2.51174078059081    3.68042949786491
C         3.64003661950237    2.47357633983704    1.55190480119946
H         4.69830153630371    2.43667148113057    1.34015881314258
C         2.72256969045190    2.48348636191772    0.51459658849310
H         3.06682961882998    2.45080678918906   -0.50859204748732
C         1.36626969897677    2.54581822750634    0.78899326945535
H         0.65057705182842    2.57008085653081   -0.01889022553085
C         0.91862251723737    2.58012062786742    2.09923187506230
H        -0.13454609536112    2.64847082171608    2.32149392473210
C        -0.28409881369963    0.32191092868515    6.80209442152587
H        -1.23407160222095    0.64789181065918    7.22622359609962
H         0.30724858586101   -0.18465004500416    7.56711574663891
H        -0.49007016026388   -0.36741480971714    5.98190778191263
C        -0.33459803190349   -1.87200869339173    2.75160692587189
H        -1.40595549008253   -1.88579885919722    2.93349815341248
C         0.14034993820816   -1.01589207859135    1.78080209719982
H        -0.58415295615899   -0.41638525907755    1.23378630804520
C         1.47076571292144   -1.15751485194630    1.08120035361691
H         1.64905294679740   -0.24409646692641    0.51069694566564
H         1.41732267835618   -1.98418064828881    0.36435629502160
C         2.65025804355108   -1.37283449850250    2.04825025506694
H         2.84261460678123   -2.43853869710823    2.18376983497856
H         3.54675465366431   -0.93769521653796    1.60225802154862
C         2.41719321595828   -0.73366377977719    3.40165847016703
H         3.15593873060527    0.02128339197815    3.65581672405365
C         1.82290422483756   -1.41110434358270    4.48397004600123
H         2.17342692076989   -1.14064601295990    5.48053452042952
C         1.31283304257629   -2.83504053556907    4.42167559325491
H         0.74736920666519   -3.02859286736251    5.33596023120800
H         2.16353839932642   -3.52534276575173    4.41822468484063
C         0.40756078423725   -3.10872346019050    3.20603667914457
H         0.99802119418323   -3.49427494355301    2.37384717289101
H        -0.31612480063126   -3.88114812104131    3.47293358871800

