68
CSD_code = ASIHOA | q = 0 | S = 0 | Stoichiometry = C36H26IrN3O2 | MND = 6
Ir        8.26455429590393    2.66456525150975   21.46016266071691
O         7.80627144232325    3.57117839574587   19.44981928080233
O         6.57668997190658    1.86885294486053   20.07987236659026
N        11.09732549196823    2.30344582819604   21.12913979122301
N         9.98405259470189    0.58678443609682   20.06299543054702
N         6.65433634193521    3.58700190497388   22.29369347084095
C         9.91601119659639    1.72522900777883   20.77422492523150
C        11.18343548953996    0.03817538185377   19.60030841635957
C        11.24543447007925   -0.99028067697529   18.68343715617961
H        10.36049968505140   -1.37067078155697   18.20254370126784
C        12.48140279262222   -1.56550972682438   18.36322330514451
H        12.50489943794139   -2.36243023497122   17.63470530130391
C        13.63498720726841   -1.16738686621150   18.98012947352579
H        14.57352455692298   -1.65545266360113   18.76592085123295
C        13.61174499686015   -0.11690260819433   19.92062024732810
C        14.74794907180353    0.30674227490534   20.63745553047636
H        15.69717002455450   -0.16759331585459   20.44018762262748
C        14.63357467523080    1.27816129399258   21.59567020514450
H        15.49236086087057    1.55568187808606   22.18869182670835
C        13.42543857437721    1.94688479675455   21.81621474518699
H        13.36720004409013    2.69814109745134   22.58554439053235
C        12.31712246330489    1.63043350617796   21.05765770633887
C        12.37761224550473    0.52590405336187   20.17797351538194
C        10.96809521500752    3.59420460175177   21.69413813006693
C         9.68136531873009    3.90361105487993   22.15910793609138
C         9.49225558836943    5.14178286464965   22.75760049614536
H         8.52484746938868    5.40680655159101   23.16020877874350
C        10.52915776321702    6.05835961283185   22.84819989522278
H        10.36359758969177    7.01247566213469   23.32725585757350
C        11.76058328323057    5.77121743527363   22.28734715305519
H        12.54963809397270    6.50821526296080   22.29838067492594
C        11.98494566888974    4.53828602960592   21.69930552910687
H        12.93041172090173    4.33862855284763   21.21848775413035
C         8.77847806853618   -0.14810557835224   19.75036684284484
H         7.93958212216252    0.27218593857833   20.29929943160721
H         8.90534371110192   -1.19327309511501   20.03623342686994
H         8.55557857880679   -0.08797437718652   18.68297897320523
C         6.84682016277896    2.78239056756673   19.26020413350309
C         6.00760396584638    2.93810594236775   18.03733160571403
C         6.31920870391185    3.91650426319811   17.10013935195165
H         7.17702888000179    4.54969928113617   17.27403264344338
C         5.53738577071625    4.06257610587309   15.96975693830524
H         5.77912776996356    4.82161986785915   15.23958707477135
C         4.44284400090429    3.23550374746825   15.77250776957053
H         3.83209903271033    3.35151465388724   14.88852412282643
C         4.12940842025575    2.26002507637881   16.70586075678915
H         3.27484088247462    1.61740480926025   16.54908848328466
C         4.90963636352274    2.10950683974133   17.83679619263944
H         4.68379278250458    1.35614918893203   18.57744788456019
C         8.17871541885231    1.65316517295569   23.19603075474203
C         9.02699284961750    0.66570622360959   23.69263317971042
H         9.94134034591999    0.42400927773574   23.16750121958231
C         8.73627021232623   -0.01972553669136   24.85998366547707
H         9.41555911469259   -0.77913292414443   25.22065021116006
C         7.57910704922930    0.26294638958810   25.56900900504481
H         7.35280080710622   -0.27529438006858   26.47769896259526
C         6.71925421377733    1.23940592850697   25.11053670072127
H         5.82142203373789    1.45748570689686   25.66988373587510
C         7.00907308524345    1.93632199575838   23.93802696379317
C         6.16639453610265    2.99942787529166   23.40536657798750
C         4.96102359417862    3.42999371016051   23.96052671856859
H         4.56828608502334    2.94705805447818   24.84043361305806
C         4.26951716093107    4.47202292790634   23.37454974011952
H         3.33228415150963    4.81075072682076   23.79073282178570
C         4.80209842369060    5.07940294456458   22.24587483122379
H         4.30178965904963    5.90302215414604   21.76218751392454
C         5.99789204629865    4.59993436348278   21.74466243757675
H         6.44750435374049    5.04512335135315   20.86703158935986

