61
CSD_code = ASIHIU | q = 0 | S = 0 | Stoichiometry = C31H24IrN3O2 | MND = 6
Ir       -0.63149276826881    3.07101469846380    8.47992785518958
O         1.44066638082474    3.99812065613184    8.42656730374135
O        -0.00891433517829    4.85336307296377    9.82345024301056
N         0.73002153223993    0.60472506718262    8.79683798078995
N         0.31566095705456    1.48783760794621   10.89147961339723
N        -1.40160125582698    4.55119105486291    7.32756396330685
C         0.16452043368738    1.58019895207794    9.56156222009533
C         1.03874396669733    0.46488921163041   11.51101279794666
C         1.04844954423668    0.25734533099284   12.87437801177563
H         0.41573416335440    0.82469496993487   13.53537620972879
C         1.90266646490252   -0.70565953332817   13.42632499747927
H         1.89135609017313   -0.85099356207008   14.49637164104349
C         2.76659824902017   -1.42399796194710   12.64703055707144
H         3.45908385007400   -2.12363639789400   13.08983671356943
C         2.77037339413575   -1.25477555701745   11.24675680278034
C         3.65357248004158   -1.93645312422268   10.38662528181244
H         4.35290891236696   -2.64190404674655   10.80905029506146
C         3.64250290344053   -1.67871301459912    9.04169252204836
H         4.36089742263192   -2.15884234027952    8.39371725234268
C         2.70059529463050   -0.81588086079136    8.47300056798668
H         2.72459696957941   -0.62439724705482    7.41334017785273
C         1.76035263899561   -0.20290128880572    9.27504416202430
C         1.85176904088540   -0.34004743410069   10.67934597416760
C         0.19103902088724    0.51135846493388    7.49137485571465
C        -0.59075851527985    1.61112156899153    7.10008334085173
C        -1.18119749663491    1.57121853977509    5.84517188492440
H        -1.78226658405364    2.40280756432252    5.50544422776197
C        -1.03219394844537    0.46754379420571    5.01852178301922
H        -1.49385563213651    0.45984070355452    4.04196653500265
C        -0.32506963170809   -0.63696095607851    5.45744109554185
H        -0.25027722082696   -1.51760071065252    4.83700998124288
C         0.28144616760185   -0.62622743663479    6.70195517906020
H         0.78599724819909   -1.51210553973471    7.05503630975817
C        -0.32236914639240    2.46080286286639   11.75179141020983
H        -0.68167899394163    3.29519528858197   11.15396277487591
H         0.39582231227258    2.83590979099208   12.48200639830848
H        -1.16946536215541    2.00885704011250   12.27149616773155
C         1.12431616651280    4.85127927987035    9.28802971904171
C         2.13164111745168    5.91453673529414    9.67952497195453
H         1.95598982958954    6.80228272118743    9.07291750102308
H         3.14081333881434    5.55595055215019    9.49495036880263
H         2.00357547081927    6.18059656062154   10.72558268116739
C        -2.58614473689586    2.71112370443106    8.76619052315220
C        -3.20121860108244    1.69311541755400    9.49064897784214
H        -2.60281296288136    0.89398495051879    9.90615667328631
C        -4.57205334164707    1.66994621473151    9.68312431732792
H        -5.02295020294114    0.86573075448221   10.24730023870081
C        -5.37118721689639    2.67221896567705    9.15452416644044
H        -6.44004063301917    2.65321358452320    9.30903567494743
C        -4.79592346598490    3.69118695683091    8.42403739422213
H        -5.42529621607154    4.46542669128480    8.01043919552257
C        -3.41620288410790    3.71739282939686    8.22233058221389
C        -2.73352594761436    4.74055132637686    7.44086867948286
C        -3.34659717236664    5.83209282500183    6.82555456392546
H        -4.40809782766629    5.98579975275789    6.93203939677674
C        -2.58810929340908    6.71756295611186    6.08514686279927
H        -3.04947307799070    7.56930267836140    5.60769522966004
C        -1.22418027100038    6.49122531779843    5.96118919207223
H        -0.59661269497891    7.15076260387450    5.38328694628736
C        -0.67910877251501    5.39412190137392    6.60169969291059
H         0.37926484879228    5.18055549121840    6.53167136220686

