111
CSD_code = ASIPUN | q = 0 | S = 0 | Stoichiometry = C42H48N12NiO8 | MND = 6
Ni       -1.63556479529605   -0.52776242582623   -9.62111456373750
N        -2.48393016702768   -1.93401218581618  -10.65153197457973
N        -0.12628610329107   -1.67666932512809   -9.25013685565396
N        -0.95652781803037    0.78083878348517   -8.37895279796532
N        -2.98458320908567    0.72865962975322  -10.21513626597656
N        -0.30246102907095   -4.82608290567691  -11.14973213519267
O        -0.58135950860309   -5.06127109269573  -12.30623880661011
O         0.28733583487997   -5.58330133072484  -10.41015025849592
N         1.98133619225091   -0.41396181805375   -6.51580589945940
O         2.11850102690698   -1.39162820632189   -5.81394102872203
O         2.68653183986359    0.56978262423370   -6.49295469884664
N        -2.40144122618669    4.09999199263465   -8.85057021623996
O        -1.38118769638687    4.73049730561343   -8.65862548560776
O        -3.51379492213601    4.58025453790313   -8.89002319704968
N        -5.76231490661664   -0.85910298918684  -11.96404906547421
O        -6.64717502937123   -0.22832514021291  -11.42235671127158
O        -5.90517520380877   -1.54611725425732  -12.95263558508668
C        -3.81066182939870   -1.95532235753376  -10.96298747050128
C        -4.29452584269385   -3.32322582610335  -10.99508177184757
C        -3.19222750832179   -4.11757884036294  -10.85355142123015
C        -2.06520718207814   -3.21977129391223  -10.68998170804601
C        -0.70800789468131   -3.54917329229073  -10.62550934602790
C         0.24670911564512   -2.71444941895415  -10.04679215968845
C         1.68517282253894   -2.89612841757624   -9.99360113866135
C         2.13569572258377   -2.05367052145603   -9.01699093776784
C         0.97461810219750   -1.32826710267945   -8.53976660598826
C         0.90099895022276   -0.42861541903142   -7.47471581728936
C        -0.12677327007161    0.50002241229218   -7.33688006827971
C        -0.35605728723205    1.42903963207637   -6.25038578517038
C        -1.24102973732300    2.35634863620813   -6.72572448964884
C        -1.54878999246680    1.96158699109401   -8.08324654517546
C        -2.26280832622763    2.68445392862150   -9.04783251534971
C        -2.83616426395020    2.08336476803020  -10.16573297643034
C        -3.52591347905123    2.70011577514429  -11.28031638817641
C        -4.22319234927493    1.69719103799220  -11.89423672309972
C        -3.90380596500339    0.48327195113125  -11.17556246092095
C        -4.46175872689989   -0.78872231120329  -11.35471538829881
C        -5.72080494288145   -3.76139516078696  -11.02500188097362
H        -5.75768048309099   -4.85034961168366  -11.06237085576163
H        -6.22579659176782   -3.39676588016450  -11.91991760764066
C        -6.46242707913853   -3.29130247543434   -9.77005102514225
H        -7.48934460726459   -3.64759474996075   -9.79062421244298
H        -6.47909654216331   -2.20632158369661   -9.69695568582164
H        -5.97372456778671   -3.68698765529088   -8.88123942448280
C        -3.16466622952434   -5.60326173294653  -10.71240856954049
H        -2.45260784899857   -6.05530767123005  -11.40206653195814
H        -4.14548837592703   -6.00209551606006  -10.97379018443428
C        -2.83467624770094   -6.01217826418552   -9.27319358139566
H        -2.89375268276193   -7.09298382504938   -9.17381801136077
H        -3.54258011597363   -5.55833638968041   -8.58240265827648
H        -1.83248709351720   -5.70121812256880   -8.98902916423143
C         2.51165283470683   -3.71083325270658  -10.93186134002218
H         2.25789535671622   -4.76948534439680  -10.86828686891965
H         3.56113984796427   -3.61931116374102  -10.65045787683070
C         2.34815433366305   -3.21315983502049  -12.37152601851118
H         2.99949018104229   -3.77735711533900  -13.03424720512172
H         2.61501585102683   -2.15980647726100  -12.43598072664467
H         1.32615865278049   -3.32324596384965  -12.72460580599140
C         3.55735622981991   -1.80800187544990   -8.63346306791765
H         3.68867416095469   -1.81870491458097   -7.55231557267324
H         4.17380353880094   -2.61719351616701   -9.02706205205929
C         4.05778385287918   -0.47915238893999   -9.20853068865429
H         5.11444689126549   -0.35414477271213   -8.98665489094459
H         3.52009718859515    0.36339280849268   -8.78025580479664
H         3.92354901895790   -0.46401855812216  -10.28830849904353
C         0.19394170734988    1.36231865082501   -4.86333637352506
H         0.58216218484371    0.36593949192390   -4.65015629372128
H        -0.62881120684612    1.53638548756882   -4.16386218852079
C         1.28353275596134    2.40862596674228   -4.61211706539134
H         1.59476443016079    2.37639272056588   -3.57101140390017
H         0.91794055466652    3.40642946738762   -4.84015226675123
H         2.15012608230437    2.21154357205628   -5.23833927368274
C        -1.90187994621516    3.44130899421803   -5.94091191371060
H        -1.73124329448153    4.41863043777946   -6.39388379109817
H        -1.45916158043944    3.47022062309743   -4.94515036895827
C        -3.40538449606077    3.18216891730958   -5.80033147702694
H        -3.85157449441785    3.93788786501493   -5.15872117323094
H        -3.57521531221677    2.20340489854079   -5.35506379701822
H        -3.91263059027778    3.21316220464272   -6.76126805649189
C        -3.38187263289843    4.10409230133798  -11.76492744679192
H        -3.73401397235027    4.81587622180592  -11.01673187883452
H        -4.00455349845325    4.23415053156202  -12.65026820405856
C        -1.92726256673422    4.40657585611901  -12.13720435717582
H        -1.84872775460200    5.41452237062545  -12.53710352009872
H        -1.58475307257718    3.70296153958580  -12.89454318546292
H        -1.26616718805206    4.32919668374613  -11.27743539894635
C        -5.06635411459233    1.82735033628683  -13.11988315728348
H        -5.19789808097993    0.85938531516061  -13.60419909509159
H        -4.54079551208355    2.46803430404907  -13.83358038612802
C        -6.43429078164084    2.44351985154970  -12.81353592334789
H        -6.99735786737468    2.57525732200598  -13.73405429398451
H        -6.31828125916577    3.40976948112833  -12.32922663084842
H        -7.00019694683647    1.79402904701588  -12.14994386070845
N        -0.33344132544572    0.37516868780297  -11.41354252889419
N         0.89101777504083    1.84497414679125  -12.48757348730630
H         1.55179632916367    2.58499392611669  -12.66053785972079
C         0.56885729885710    1.31381051108881  -11.28938457837781
H         1.00596646292617    1.63380082961190  -10.36410569069585
C         0.14198854021545    1.19787137381256  -13.42814434860242
H         0.20636129146601    1.42754530582115  -14.47130123223639
C        -0.61052239498115    0.28944481912473  -12.74358644251134
H        -1.32482784523215   -0.41603251933132  -13.11806394824524
N        -3.03371909303802   -1.34520384597311   -7.86164998877712
N        -4.92111449596242   -1.74136793911221   -6.81534059532249
H        -5.85482501860828   -1.61329213366470   -6.46055838542722
C        -4.21061110825031   -0.86400491870260   -7.55481397300560
H        -4.57988801955723    0.09969603309985   -7.84558193534568
C        -4.14025313698053   -2.84867291839756   -6.64629789849496
H        -4.46687939903581   -3.70178854952713   -6.08866045783100
C        -2.97336635073280   -2.58442921127269   -7.30092074129314
H        -2.10023992402700   -3.19749357958572   -7.40040005097531

