89
CSD_code = ASISAX | q = 0 | S = 0 | Stoichiometry = C44H40N4Ni | MND = 4
C        12.86740318118914    4.97595832225476    0.09607470485430
C        12.01197874406042    4.72135450997994    1.26178780231056
C        12.51314117085666    5.49141014001033    2.31628830931363
C        13.61837301549509    6.15343451313505    1.73654590550336
C        16.06320050348592    8.42468445588533    2.63470278740875
C        15.35302687028981    8.32877836747032    3.91615874682372
C        14.30295022558311    7.42231228508802    3.73798841670899
C        14.43590933902335    7.03490792519413    2.38585144458213
C        12.31385120029353    5.83604665054177    3.72926144388503
C        11.27313867580446    5.26395699198971    4.45955058287772
H        10.61589479828564    4.56679116460302    3.97071914908692
C        11.04016985353060    5.54656264372241    5.79093304558816
H        10.21804190069331    5.07337541620023    6.30752636869811
C        11.86861262499956    6.43514642576490    6.44825080227275
H        11.70868716969775    6.67118060945799    7.48998253156852
C        12.91101577385920    7.02295608307266    5.75931395860042
H        13.54366977079875    7.70907921277680    6.29399520194085
C        13.17776639592460    6.76630190756756    4.41519879838233
C        12.74337893599494    4.41500776382390   -1.18745679683793
H        11.91779210703893    3.72315922111295   -1.29856822382480
C        17.19121922785490    9.21293624381251    2.34525692876449
H        17.55397912042850    9.80217548340338    3.17820039861151
C        10.84203882772512    3.78486959652630    1.20482224446603
C        11.04683650109368    2.57646174739223    2.12644357151717
H        11.90321727349699    1.99916096076365    1.78338114492726
H        10.16739699220746    1.93579896380660    2.10275494297344
H        11.23656401172095    2.86944721007954    3.15374184933085
C         9.52030660435536    4.52168123853547    1.45194831193157
H         9.51782875619476    5.05842338342500    2.39477624569524
H         8.69331993542148    3.81437494854795    1.45038134871218
H         9.35482015124370    5.24703707403704    0.65775654819024
C        15.77217042363574    9.11577041573726    5.12205494982464
C        16.24784453395550    8.19679586893185    6.25362040375978
H        15.49349971651007    7.47138308385461    6.53953594246103
H        16.51283734461833    8.78827400401932    7.12768057000063
H        17.12943206467979    7.64755622785971    5.92891655602874
C        14.68072213436719   10.10093654681868    5.55670176493213
H        14.51818244702325   10.83391030339157    4.76897101508415
H        14.99050610368688   10.62675315436767    6.45775586573379
H        13.73379802614276    9.60794313032549    5.74925921335995
N        13.83388532004333    5.86114609202582    0.44435919395137
N        15.45717512285198    7.61228325581677    1.73379421267795
Ni       15.33799722060207    6.89650324549934   -0.00000092016940
H        16.63690525308752    9.72668157273265    4.84580987187840
H        10.77731737630246    3.38231228516396    0.18944235754416
C        17.80861175825694    8.81703051321507   -0.09607159644788
C        18.66403906426915    9.07162409083744   -1.26177924336942
C        18.16285749485905    8.30158775377188   -2.31628891285663
C        17.05762594711570    7.63956648653971   -1.73654617522684
C        14.61279139347571    5.36832308141419   -2.63470694089953
C        15.32296022745744    5.46423753559951   -3.91616504577695
C        16.37303308880935    6.37070813154252   -3.73799588573066
C        16.24008314328659    6.75809749189344   -2.38585322590041
C        18.36212726364670    7.95697860402290   -3.72927054444569
C        19.40281898976693    8.52909513385349   -4.45956816690607
H        20.06005035010949    9.22627540802444   -3.97074090565372
C        19.63576880299634    8.24651327513201   -5.79095866926407
H        20.45788440143631    8.71971565033877   -6.30755736196691
C        18.80731726469734    7.35794071534045   -6.44828032452381
H        18.96722355323027    7.12193116718432   -7.49002044743715
C        17.76492406760875    6.77011857219572   -5.75934001909007
H        17.13224154468767    6.08403001800592   -6.29403144187231
C        17.49820209024736    7.02673527677778   -4.41521187649617
C        17.93262996405404    9.37798404982974    1.18746337876816
H        18.75821904567332   10.06982823789657    1.29857852975490
C        13.48478110242880    4.58006552876855   -2.34525576627595
H        13.12201758777215    3.99083189419290   -3.17820252390677
C        19.83401040085243   10.00807253256856   -1.20480133609809
C        19.62926452695413   11.21648281823422   -2.12643064499591
H        18.77289566992580   11.79381134412271   -1.78338503382577
H        20.50872361445457   11.85711706175194   -2.10272896860883
H        19.43954722770893   10.92349685599956   -3.15373090597289
C        21.15572238512271    9.27121538321899   -1.45190330690990
H        21.15820277878220    8.73446688240463   -2.39472691867649
H        21.98272918463026    9.97849702439044   -1.45032478683847
H        21.32117298637487    8.54585870356946   -0.65770510921014
C        14.90381369129225    4.67725517846584   -5.12206465120233
C        14.42819963416421    5.59624695805706   -6.25364042549307
H        15.18258620685611    6.32162190606845   -6.53954485039840
H        14.16319541850531    5.00477750883366   -7.12770330624219
H        13.54663181468612    6.14552828379300   -5.92895358362508
C        15.99523012847348    3.69204334101237   -5.55668743590990
H        16.15771560467999    2.95905648208021   -4.76895786644313
H        15.68544381151330    3.16624703288878   -6.45775253243669
H        16.94218416354010    4.18499026146098   -5.74921659595739
N        16.84211985534640    7.93185081471152   -0.44435761174568
N        15.21882213097535    6.18071879422478   -1.73379425293215
H        14.03905021492034    4.06637808366365   -4.84583552128383
H        19.89872765820375   10.41062748557347   -0.18942070160096

