29
CSD_code = ASOCOC | q = 0 | S = 0 | Stoichiometry = C10H14O4Zn | MND = 4
Zn        3.75722628046122    3.44905517455780    7.97395962920461
O         5.33687101090764    4.43067252790774    7.97209028929617
O         4.08933674744979    2.46714756130361    6.42991131859215
C         7.46338362486181    5.18695661740044    7.25201959865969
H         7.36765726535481    5.78867341909418    8.15112580672816
H         7.56567177828791    5.83962366871261    6.38801794964807
H         8.35641541978291    4.57013064038864    7.31949006768638
C         6.24124674508313    4.31209949801877    7.09413890174314
C         6.19854505614278    3.44752262827510    6.00108262825140
H         7.03760038852896    3.44693689578669    5.32318706694547
C         5.13771017505165    2.58427147689284    5.72997076077058
C         5.23816596637700    1.71024420132572    4.50115406595488
H         6.11241537381178    1.06728346818093    4.57351612127914
H         5.34391887963914    2.32925339886591    3.61314290786037
H         4.34434394266345    1.09926135842560    4.41412186136045
O         2.17763955700357    4.43077922875013    7.97595794655109
O         3.42499963313026    2.46684248238890    9.51779535193964
C         0.05101454517967    5.18680584367464    8.69594957348197
H         0.14704352545376    5.78908364777363    7.79725241291420
H        -0.05202556875341    5.83888515468853    9.56029424518745
H        -0.84177471005348    4.56971755469530    8.62754719027927
C         1.27334192229720    4.31225134529818    8.85398827629845
C         1.31606690090149    3.44763766472753    9.94700903098804
H         0.47713176305935    3.44719048909502   10.62505293335063
C         2.37672693722882    2.58409891238904   10.21786114230385
C         2.27649535365244    1.71033274173186   11.44682510168798
H         1.40151476049887    1.06854568824056   11.37574928843193
H         2.17245412678971    2.32922157529910   12.33492320368631
H         3.16936259920802    1.09817513611068   11.53326532891662

