80
CSD_code = ASODAN | q = 0 | S = 0 | Stoichiometry = C27H36BIrN6O9 | MND = 6
Ir        5.01638703922155    8.52924578232340    3.53656402265825
B         1.88850107439772    8.58994855985804    3.88683946784265
H         0.71727155043111    8.56712859828389    3.99214092809941
N         2.54994159570795    9.06296377514173    5.19068902360111
N         3.88310060907627    9.22825818410418    5.26422185493931
C         4.15472355736241    9.84934851746259    6.40721566545921
C         2.96270883476417   10.06764964152859    7.10309617285873
H         2.84969807070797   10.53699895150874    8.05921028490288
C         1.96407212458728    9.55610431065399    6.29712351602627
C         5.51254193879576   10.29762835937975    6.81459663760961
H         6.24926553780548    9.52213784898203    6.62737730008705
H         5.51385526165926   10.53732593839719    7.87511848724777
H         5.78587761590863   11.19664016615380    6.26173699067376
C         0.50016283158118    9.52252174872607    6.55053870977454
H        -0.03267266776273   10.13512020417915    5.82513067461385
H         0.29707097587599    9.90535602422240    7.54707780913816
H         0.12134489314588    8.50507911473266    6.47841649556113
N         2.32599833045034    9.57020431978788    2.78897635718769
N         3.62994931463715    9.79063451777568    2.56903926366060
C         3.74043320110665   10.77236684732195    1.67984611303215
C         2.45897981504244   11.18624831295778    1.30579046382914
H         2.20841979107314   11.95690294150205    0.60490560703007
C         1.58544423292060   10.39912636176551    2.03294051217878
C         5.03040379179851   11.35464086847170    1.22427158601997
H         5.70045812560623   10.58857140164861    0.84195839891594
H         5.52573716948248   11.85667497512895    2.05375548829932
H         4.84471259699863   12.08120346917160    0.43706712224987
C         0.09939186745120   10.41215380329629    2.02527034545186
H        -0.28979728067276   10.69115405105795    3.00299636338206
H        -0.29164208001744    9.42815037063315    1.77398746977894
H        -0.25367562896382   11.13099451766189    1.29073884939213
N         2.43976234186730    7.20470061268225    3.53122492708861
N         3.75730267560600    6.97619015422929    3.35707523147121
C         3.92368779177892    5.68073610671895    3.07343934395448
C         2.66909830510685    5.06979770179527    3.06424622802194
H         2.46315332786823    4.03686935890518    2.87244728389010
C         1.75530135516131    6.06204946895783    3.35863057429424
C         5.21672643461002    4.98993884230127    2.85246741831974
H         5.76037629267106    4.93228346108377    3.79400930394102
H         5.82910185711182    5.52137094192168    2.13098794755227
H         5.02779785087779    3.98157644619859    2.49430300175654
C         0.27877461852765    5.94454945777270    3.47904764648265
H        -0.22102441298618    6.59553431368924    2.76480272800608
H        -0.04952809639757    6.22245754494402    4.47840283588258
H        -0.01657520245647    4.91711216629438    3.28595763676374
C         6.58798221095852    6.78927277809931    5.71294596784747
C         6.52436943706096    7.42151706205733    4.37988781176566
C         7.59547129383732    7.27511200962161    3.54798186350377
C         8.82416266849512    6.59354240599297    3.98690429011937
O         6.15509818537827    5.68783695774840    5.95179614136100
O         7.11685212309556    7.59505449983751    6.65379214315091
C         7.29482300106900    7.00172218729667    7.93119915226667
H         7.64347847265042    7.79236523119125    8.59147824976369
H         8.03648066012889    6.20457372852206    7.85854028560040
H         6.35146874754131    6.58371956605107    8.28889857698124
O         9.03084050322097    6.22319511090531    5.12098891034488
O         9.70911694032053    6.42926772583832    2.99200389908179
C        10.92187227494033    5.77383846049490    3.32193742198079
H        11.63237103498683    6.02626317232573    2.53806572886596
H        10.76498578653772    4.69331761346709    3.35954507441237
H        11.28288332878221    6.11366042914819    4.29508330703593
C         5.66739644692546    8.18980964210995    0.49092562144610
C         6.09262132412360    8.04322394416554    1.88540290720229
C         7.36144729302560    7.65676270710486    2.15828536855903
C         8.42888541881256    7.59559970325421    1.11425148119670
O         6.39287981492556    8.36182663517084   -0.46560438431766
O         4.32886055664940    8.07129500785627    0.39731302381103
C         3.74082388609693    8.17271995488306   -0.88712973570317
H         3.18031217140620    7.25808931437254   -1.08347343676063
H         4.51876714089043    8.30607086882025   -1.64226542437276
H         3.06476086096144    9.02966390647657   -0.89070730779763
O         9.22170781611016    8.48829352082062    0.94662321543464
O         8.37950709401140    6.47170675272387    0.40570732855269
C         9.29086165360755    6.38515820665911   -0.67967359669170
H         9.24805084696325    5.35916510871071   -1.03662388594767
H        10.29928902377812    6.63992547338960   -0.34738861752130
H         8.98715272146077    7.07966531094072   -1.46555754619070
O         6.52452583141453   10.26994792264556    3.74544987467010
H         7.00016566162423   10.08296274072102    4.56436740772981
H         7.15330853868065   10.15590527925285    3.01926879369415

