70
CSD_code = ASOJAV | q = 0 | S = 0 | Stoichiometry = C32H33MoO3P | MND = 9
Mo        4.65821768548643    9.22020558648351    2.37025667324423
P         4.53765024109240    7.00381077945430    3.20019487495788
O         7.65174290827931    8.54916486897915    2.39320812523543
O         3.99352098181180    9.77701363497171    5.32506777036949
O         5.06898685956309   12.00813607669270    3.04823176203587
C         2.63042967476735    9.28869120274109    1.24493704169853
H         1.65075330683356    8.98613835324966    1.59183624619390
C         3.50406124915575    8.48575137548830    0.46787946941118
H         3.30206186722864    7.46721101194386    0.15185786073552
C         4.56626643872768    9.29469593525746    0.02393609396064
H         5.32387317059897    9.01063425604354   -0.69671546759085
C         4.35529315804631   10.59905571910675    0.51785931464729
H         4.92056051188844   11.48125152852486    0.24412880831008
C         3.15242558723976   10.59370574925349    1.26730305604961
H         2.66112169286366   11.47230728462671    1.66462322114584
C         4.97282714054830    6.77397001789275    4.95144255629420
C         4.06632430398322    6.43637080087728    5.94865575890925
H         3.03431693742722    6.23158021436991    5.70251896599355
C         4.48624526368877    6.35852856707548    7.26632881690459
H         3.77483118953195    6.10262370131875    8.03779907754410
C         5.80575712555914    6.61058749368933    7.59672849921905
H         6.12556884506249    6.55628533206184    8.62662285104082
C         6.71796984928129    6.93138434863648    6.60276475310864
H         7.75068279130829    7.12087677969733    6.85605429682696
C         6.30472294057151    7.01373615433441    5.28785997897968
H         7.01324463265245    7.25623906577498    4.50628654307829
C         2.85262734476995    6.33247347634533    3.09264492901225
C         1.84257657825982    7.08908163601656    3.68585160128110
H         2.10484690406580    8.00196527507456    4.20775064142427
C         0.52584877515652    6.67881143107753    3.60569910388856
H        -0.25158611129076    7.26361291610601    4.07559573981921
C         0.20269231410014    5.52081066496977    2.91380646075498
H        -0.82724136877139    5.20391670162391    2.84334722683228
C         1.19975613005747    4.77656639508363    2.30729957716184
H         0.94781294678987    3.87952437415242    1.76061209857802
C         2.52300245883482    5.17662073294454    2.39497645180526
H         3.29728348657408    4.59139673292953    1.91848148572874
C         5.53673334044700    5.68749889754653    2.44014411834160
C         6.09496236175232    5.88321574094834    1.18381115758677
H         5.94430547650081    6.82937657275396    0.67945177431485
C         6.84466277420753    4.88206733205097    0.59153675789135
H         7.28117767010080    5.04000618297716   -0.38372274269957
C         7.03958609190451    3.68076956001852    1.25231138454824
H         7.62894644131161    2.90125856596357    0.79272124809513
C         6.48188495884419    3.47848525219806    2.50557756592220
H         6.63407619570642    2.54090361072184    3.01994029489942
C         5.73186380167340    4.47544456307106    3.09996926759110
H         5.29242522057062    4.32334511831343    4.07703557218916
C         6.52711516746045    8.78754438341917    2.47374016382543
C         4.27294194330010    9.54755230795021    4.22494219461048
C         5.53830215126399   10.95767195348346    3.40276231461255
C         6.68660762026936   10.93997592295262    4.39580064852462
H         6.36967790733684   11.52249023572084    5.26714255939528
H         6.92331565156029    9.92602001777062    4.72494011336229
C         7.92180153453289   11.60965319133644    3.78350791747024
H         8.23429602108112   11.05015872966206    2.89907529428652
H         7.65215870618936   12.61856720281732    3.46509864014618
C         9.07496547656027   11.66983574931678    4.78110916280472
H         9.33244858832347   10.65422922345793    5.09149475622615
H         8.74991683545475   12.21878773242604    5.66626194173441
C        10.30759427118067   12.34031085269050    4.17861370876911
H        10.56745382898209   11.82316313602464    3.25166130420158
H        10.06730812991424   13.37485182666230    3.92300100923325
C        11.52204785022235   12.31928077962939    5.10750574023736
H        11.73104463363693   11.28833554475165    5.40251404709412
H        12.38959564624768   12.68594143986276    4.55339877588209
C        11.33953002833453   13.17563463397318    6.35527607448036
H        12.25842900893913   13.19586321182285    6.93724837522995
H        11.08542773683060   14.19719897526449    6.08091699954111
H        10.54812111767901   12.78152537756850    6.98717959508395

