78
CSD_code = ASOKAV | q = 0 | S = 0 | Stoichiometry = C32H40O3Si2W | MND = 9
W         1.68217492607732    3.08202391217209    7.69881392143131
Si        0.51507750428837    2.15196558885889    9.87369394064116
Si       -2.67884767200605    2.86457478777526    6.62331760650993
O        -0.67005944392430    0.99876398251595    9.82490359651392
O         0.79588095735962    6.02408312607336    7.15709284087857
O         2.62275654768594    5.27235698865484    9.71884652631751
C        -0.26842858480877    2.68615061528115    7.90601209429868
C        -1.45609130965603    2.15213784802531    7.89074237257922
C        -1.81032540944505    1.18495910655333    9.01053576680648
C        -1.67540561057453    3.36913048595917    5.08228004118458
H        -2.18804325438591    4.14070672978878    4.51673156139869
H        -1.50672833190081    2.53213153592364    4.41193215844572
H        -0.70820251333717    3.76455839113058    5.38515240269408
C        -3.45607599982632    4.43303326543318    7.38643976459242
H        -2.68843652887353    5.17635992246653    7.58018526236496
H        -3.95996362408609    4.23169249456961    8.32644523174790
H        -4.18215278572769    4.87754687911160    6.71235032703604
C        -4.05784960715147    1.65366019160455    6.08939445363629
H        -4.71585847807226    1.38970952108998    6.91117779040639
H        -3.66158813739216    0.73528059945368    5.66739414576898
H        -4.67119478254047    2.12174036759052    5.32572008905331
C        -2.18157901848755   -0.18804262571564    8.44816874096830
H        -1.38576539258145   -0.55087530231047    7.80100571272603
H        -3.10484948282245   -0.13678351367051    7.88255713430679
H        -2.30154868210051   -0.88791666847512    9.27184714499328
C        -2.93884514058374    1.74935287697784    9.87092558293828
H        -3.11182433276537    1.08694246943653   10.71578332730739
H        -3.85190669258387    1.84002110468357    9.29034697419780
H        -2.64885736070899    2.72584116421674   10.25054651702799
C         1.84619267840343    1.23408353110033   10.86556053735186
C         1.74239365715665   -0.11650549882636   11.17365959347902
H         0.89282248679715   -0.67031014827671   10.80623635354459
C         2.70130624296415   -0.74682685176727   11.94792682837831
H         2.60584205612099   -1.79916627899212   12.17609028728959
C         3.78068272938052   -0.02867906719893   12.43415300442165
H         4.53054849931304   -0.51738749299111   13.03952053758418
C         3.89011698419746    1.32210419722089   12.14564496835316
H         4.72557272587206    1.89016838907586   12.52911380602561
C         2.93054619671478    1.94352002808570   11.36620069463266
H         3.01582291974420    2.99747767004651   11.14796693628934
C        -0.06687934017193    3.60168688985150   10.98577463723530
C         0.06021042888930    3.53821106363704   12.36940610375699
H         0.50714127864637    2.66119194610979   12.81492596603491
C        -0.36778352375326    4.57645870662232   13.17799542842670
H        -0.25441888011598    4.50735130188253   14.25062208335734
C        -0.93680969257071    5.70453628193563   12.61286680050783
H        -1.26838975790973    6.51891762738444   13.24084220474894
C        -1.07453479997777    5.78529949666807   11.23715411345821
H        -1.51413178337091    6.66413839791894   10.78789486130333
C        -0.64161365868931    4.74486636121744   10.43536465666486
H        -0.74565110938852    4.81683669658256    9.35940904127309
C         1.10893673106261    4.92421858914553    7.36071977693784
C         2.25135050635514    4.42415674708669    9.01571448478071
C         1.90845445908142    1.43639695667417    6.04373687503873
C         2.56731666704276    0.96392632860661    7.21685083435036
C         3.64387969079708    1.85309723845275    7.51423709402478
C         3.64540906381872    2.88430114935238    6.52713395699436
C         2.57482565386696    2.62099937866182    5.61002322495199
C         0.86848375691647    0.65529052922641    5.29197912737085
H         1.26583862846436   -0.32580146791689    5.02293392735335
H         0.58339589609036    1.16846484246771    4.37699137017403
H        -0.03096413304579    0.50465762453061    5.89173991892304
C         2.32396562165459   -0.38716105394906    7.82225545551359
H         1.25848284098972   -0.58175960599227    7.94086162303747
H         2.79588343242024   -0.47807551532600    8.79793684650150
H         2.73814351407180   -1.16015511166836    7.16921386933513
C         4.73986359753448    1.61522429947001    8.51123252522239
H         4.40469819176746    0.97828254793980    9.32731699311760
H         5.09629372781525    2.55124265161035    8.93972433582980
H         5.58553399124137    1.12620988580183    8.02121042723523
C         4.73052704877737    3.90371299071158    6.32904656292850
H         5.52372068825895    3.49155736006447    5.70031749728930
H         5.17198689042228    4.19654927140429    7.28062024823252
H         4.34576302350624    4.79982254450906    5.84355193738145
C         2.35731376530795    3.34203433359264    4.31113897894090
H         3.01818266992969    2.93213575556297    3.54356876627075
H         2.57593802459830    4.40435896246708    4.41124978053209
H         1.32992795393275    3.24063367503789    3.96672108884107

