66
CSD_code = ASOSAE | q = 0 | S = 0 | Stoichiometry = C32H28Cl2N2ORu | MND = 9
Ru       10.30017813004831    5.85785949432072    9.83373292470172
Cl       11.35728884151921    3.93539319433209   10.64795169036796
Cl        8.96312591058080    0.36799691645633    3.26945695509407
N        11.53163120064369    4.96290352560419    7.40500613025187
N        11.74143224007559    5.82225375068011    8.42455980203814
O         9.53382586890569    4.57898528509190    8.40893906386253
C        10.37862273331053    4.33945937047401    7.48688293883625
C        10.03912258909132    3.36076065556719    6.43802735644099
C         8.81942396603419    2.69085381503847    6.49268789451815
H         8.14480984932213    2.89860566931354    7.30911603304576
C         8.48378399186823    1.76941212755216    5.52041483450399
H         7.54109846248017    1.24612595826247    5.55840838303892
C         9.37628512536721    1.51805764455687    4.48936626264362
C        10.59731655296778    2.17474745612470    4.42282965567573
H        11.27890874712281    1.96103058571424    3.61433253075108
C        10.92657257160503    3.09466331502197    5.39804459854111
H        11.86882168147337    3.61696263431464    5.37451465193619
C        10.15893058577688    6.67904389059790   12.01106140746608
C        10.60959128589898    7.73717898930757   11.21043638331396
H        11.46714668530829    8.32080013401819   11.52097180537566
C         9.90955767457110    8.09432323049248   10.02847376805414
H        10.25415070525981    8.94712599694088    9.45196100015391
C         8.69571400854344    7.46987262860703    9.67671115153946
C         8.22749358974902    6.42342725459773   10.51727126265717
H         7.27632324248013    5.95164413284058   10.30123172235891
C         8.94543461212045    6.02334376273019   11.64791137876410
H         8.54990368069894    5.24890454917493   12.29599844164069
C        10.90061563728680    6.25486424112528   13.24037120387335
H        11.71393525593191    6.94156810421373   13.46409741731886
H        11.32586607174084    5.26249369748686   13.07416366006318
H        10.22756464408925    6.19681346153345   14.09495233901331
C         7.87495998674539    7.99992169481036    8.52485093541784
H         8.54535717385222    8.57584634134887    7.87524749247870
C         6.80335295947133    8.94872084662747    9.07496802025196
H         6.21895385924598    9.36407925161675    8.25770722352065
H         7.26108442144376    9.76791774463876    9.62602172097974
H         6.13078253662719    8.41635861160848    9.74454221669560
C         7.23968829300664    6.88705009654003    7.69070197872500
H         7.97796431059828    6.12263558695752    7.45463171174421
H         6.85219025391207    7.29457475875131    6.76008037489180
H         6.41511419840070    6.41864829866182    8.22273467024927
C        12.86272020015942    6.44870850146327    8.42280774159810
H        13.56492754232693    6.23613597590694    7.61869762817261
C        13.23435818160711    7.45020073707194    9.43440351255957
C        13.80939476070889    7.05119542352792   10.65022633455768
C        14.06164332824061    5.68841848082861   10.95244616311739
H        13.82049940355997    4.93918792233183   10.21530982788679
C        14.58433311170790    5.32859859220816   12.15696081918723
H        14.75848528861398    4.28747224671892   12.37986867160109
C        14.90166672705648    6.30506637563011   13.12403299676322
H        15.31126165000943    5.99424341131174   14.07412306794709
C        14.70531496526750    7.62568755531264   12.85905526990914
H        14.95988814081114    8.38282754540533   13.58769339164330
C        14.16147973091722    8.04526855911554   11.61784991606394
C        13.95342652634336    9.39090609131262   11.32616915468739
H        14.21811665980312   10.13860531495133   12.06160396724142
C        13.41319406788658    9.79667058387401   10.10897183395948
C        13.19717711584992   11.16518895512999    9.80298946112375
H        13.47917819575607   11.90393599322484   10.53968279336490
C        12.64993781111435   11.54020498613656    8.61498171564660
H        12.48900537348108   12.58427490594100    8.39022444495707
C        12.28591077604638   10.56673553250037    7.66047469593564
H        11.85258569782870   10.88485100123124    6.72347474943573
C        12.47746763143100    9.24300237199532    7.91514969041346
H        12.19512546013591    8.49521378710526    7.18785096548459
C        13.04667751814958    8.80967044611979    9.14178019395976

