69
CSD_code = ASOXUB | q = 1 | S = 0 | Stoichiometry = C17H44CoN4O3(1+) | MND = 6
O         8.97205283904961    5.47942865080414    6.33411696087039
O         7.63633780236373    5.99344360319088    7.88715081938646
O         8.45109034250180    7.65485793561868    6.60220237009884
N         9.78399915152996    4.63954549340353    8.63349601076682
H        10.38997300260239    3.82751351752446    8.77345430656971
H        10.31151885678125    5.26780701634521    8.01448501789182
N         8.98766624020351    2.62267179652786    6.77208763697192
H         9.26140458822155    1.93831365330447    7.47981409203695
H         8.27881625182536    2.14990801678204    6.20958582103071
N         7.18938536998202    3.36705980106704    8.93875633409581
H         6.94500276504166    2.39171159642228    8.75715746750626
H         7.80787592913015    3.34112179690897    9.75033908597024
N         6.64939347385158    4.23420299064353    6.26374819156894
H         5.94200517684377    3.54070010633121    6.51745699317509
H         6.21571191005683    5.14654334216479    6.45036990653916
C         8.36281760545280    6.50237251747022    6.90684228190166
C         9.68000529677531    5.34326047260614    9.92971514873493
H         9.25910344247040    4.66605295508358   10.67676639133862
H         9.00247166112572    6.18897662299484    9.80180432836188
C        11.04076585429569    5.84320376519949   10.40999277890031
H        11.45660571805432    6.53201730074088    9.67153542806970
H        11.73147858339247    5.00142981054854   10.51604320045463
C        10.92106010607936    6.56573263621015   11.75182107276981
H        10.23256801177296    7.40531889067553   11.64555672170597
H        10.50422411210421    5.88358104188585   12.49614799618244
C        12.27344747407232    7.07609998342848   12.23220215813700
H        12.16600650965518    7.58704857914503   13.18458044744899
H        12.69483832634409    7.77589028363193   11.51508716379039
H        12.97266331316789    6.25325589096370   12.36259175308533
C        12.06512711835308    0.40331794332657    3.48991725709841
H        12.92267674656488    0.56143425202341    2.84275682192589
H        11.23133823351247    0.07142165157957    2.87585965864333
H        12.31055783733120   -0.38836023436333    4.19406917676396
C        11.71478989473653    1.69070217332047    4.22499819821342
H        11.49031105547486    2.47538646371220    3.50105790510554
H        12.57339295821232    2.01799754926231    4.81379230610036
C        10.51147062642019    1.50030645592401    5.14808729346697
H         9.65927449153931    1.16138339054692    4.55286340769150
H        10.74173110940809    0.71893855069474    5.87828047041658
C        10.15182194707701    2.79572074244007    5.87054368247296
H        11.00406078530510    3.13862118965531    6.45823790750645
H         9.90803107234157    3.57795728953494    5.15205566736648
C         5.96215452658598    4.03612813613445    9.43242583585208
H         5.17222824931666    3.91723798304043    8.68948302132242
H         6.17964499671967    5.09881031351491    9.53064356037881
C         5.48422450794615    3.45750732066829   10.76462865127061
H         5.33012249351268    2.37987801013829   10.65512490272864
H         4.51626918261704    3.90292993164624   10.99461582431641
C         6.42809766567177    3.71555050475801   11.94179735218375
H         6.03141017860931    3.18632174971599   12.80942864963902
H         7.41789325543109    3.28986960706728   11.74471028221929
C         6.56086063357149    5.19371128133047   12.28875297630202
H         7.19930719713620    5.31707475525563   13.15942915070035
H         5.58609597867891    5.61193462347607   12.52369237652391
H         6.99018726424567    5.76545519710941   11.47039146137927
C         6.82967967479588    4.16221116161660    4.79799702112726
H         7.18129322776062    3.16378829481478    4.52640395426265
H         7.59206025314392    4.88857565767727    4.51255989782995
C         5.52567740582501    4.46459046796461    4.06221510764017
H         4.75353804333788    3.75039603165778    4.36363518355196
H         5.18255323852854    5.46654664273773    4.32898047766828
C         5.71084373562211    4.39144568820634    2.54663232194472
H         6.05268343986718    3.39185641306987    2.26937674710762
H         6.48056760508587    5.10342372610557    2.24551029316450
C         4.41358402854941    4.70559583107285    1.81252938849023
H         4.56531074193958    4.64719883172780    0.73867520563245
H         4.07013641228233    5.70808635061670    2.05465360404009
H         3.63384289418242    3.99853676436987    2.08658534853757
Co        8.19775957801317    4.33614123922833    7.48519376605800

