49
CSD_code = ASOZEN | q = 0 | S = 0 | Stoichiometry = C25H20AuN2P | MND = 2
Au        4.44741924281756    4.51350604301302    3.27500126374937
P         2.94866751872477    2.86149401662475    3.17749640576248
N         5.73281062030655    6.04179059550077    3.41878537112035
N         7.41667474245256    7.48168100117460    2.97523803346898
C         1.85309342603949    2.81560048517597    4.62272073910717
C         1.49362125590209    1.64657202752953    5.28388333353408
C         0.65074166900360    1.71375581497744    6.37955809699157
C         0.16702190757080    2.93661536881217    6.81528588783865
C         0.52629863442990    4.10344809801493    6.15787854383706
C         1.37088677406975    4.04484684884960    5.06624641776644
C         3.63683540611962    1.18630637106016    3.09703281316204
C         3.29333925361880    0.25489199638023    2.12472808858955
C         3.89797710190897   -0.99052640412842    2.12894961287536
C         4.84217202955414   -1.30601713904195    3.09175111997119
C         5.19491916995389   -0.37278444767040    4.05537390847465
C         4.60022405660710    0.87358386192480    4.05488237072251
C         1.78892930940096    2.94200256826470    1.78555340648726
C         0.52367644274269    2.36442138318079    1.84474759987597
C        -0.31594437697195    2.44462676041950    0.74925897799627
C         0.09945300234522    3.09703288217781   -0.40145920102747
C         1.35710262025758    3.67562694522035   -0.46023366975876
C         2.20146620051118    3.60229076568399    0.63267385213003
C         5.70510316437792    7.01517772272336    4.38440121611216
C         4.86908387994290    7.20406396269182    5.47449481315507
C         5.10396773132217    8.30456789090456    6.27229011074582
C         6.14339197085523    9.19606055513345    5.99609426028462
C         6.98297635228782    9.01814098174738    4.91675664296523
C         6.76398907005134    7.91572988341431    4.09941767079359
C         6.77645380083594    6.39902726979055    2.62989277888398
H         1.87439594153449    0.69243002061449    4.94551122271968
H         0.37195937876925    0.80682219379982    6.89569211788507
H        -0.48778247943874    2.98158691916152    7.67248364894158
H         0.15356085476901    5.05691195906567    6.50101540775349
H         1.67013947588064    4.94826528225881    4.54864678135617
H         2.55910045355187    0.50228611835062    1.37072102448076
H         3.63082235140233   -1.71650990080070    1.37535799012541
H         5.30968327638037   -2.27916598009003    3.08877348055151
H         5.93692619784384   -0.61675441579417    4.80079005118386
H         4.87184655077566    1.61794207898082    4.79354650616856
H         0.20336861658482    1.85930349157927    2.74599536255596
H        -1.29849781913417    1.99838616061275    0.79310350822099
H        -0.56169518442469    3.15807203872565   -1.25281862339277
H         1.67737540294722    4.18793977197573   -1.35498048115516
H         3.18328035742437    4.05848269593873    0.60588763016239
H         4.06557853421895    6.50920544007714    5.68858298697655
H         4.47186430375083    8.48402271602162    7.13148624920262
H         6.28811891420628   10.04488039771025    6.65019252325887
H         7.78658939994371    9.70676981397291    4.70520730237701
H         7.04791349597184    5.80988908828618    1.77120484503612

