41
CSD_code = ASPHCR | q = 0 | S = 0 | Stoichiometry = C21H15AsCrO3 | MND = 9
Cr       -1.13857506905182    0.59461267951397    4.72529307559686
As       -1.79793582939342   -1.32224343013150    1.53504147441725
C        -1.39766670679138    1.94983228774332    5.91535130707604
O        -1.65235513798300    2.78247955639094    6.67540033730499
C        -2.13054022918457   -0.29427471245468    5.96610435431489
O        -2.81285196132852   -0.79114279591867    6.75560294713736
C        -2.78576542629560    1.16402198765509    4.20848049487539
O        -3.85127049029740    1.53620188182991    3.95286764183386
C        -2.50305602540337   -2.70207951881933    2.74468015254342
C        -2.10226472060988   -4.03144862180483    2.73844114525287
C        -2.62276583547151   -4.92341295051459    3.66096147744383
C        -3.54715872343200   -4.49507169609270    4.59832545403911
C        -3.96333713741379   -3.17360423906684    4.60305013947526
C        -3.44960727848951   -2.28556193699348    3.67607705516999
C        -0.46231686796337   -2.42350039692289    0.59041717221290
C         0.90169933500256   -2.38593994457916    0.84454656117240
C         1.77693390575531   -3.17992378168040    0.12280726652245
C         1.29817234585536   -4.01889497392568   -0.86802992814419
C        -0.05962025520289   -4.05520153494303   -1.14307426638502
C        -0.92951382091262   -3.25744848321659   -0.42356319487657
C        -0.58443902650299   -0.52442069415937    2.85481662408375
C        -0.20310817008514    0.82823228539674    2.69384317079270
C         0.65691213186408    1.44481106442203    3.60148501331739
C         1.14558233048178    0.71706148851149    4.70530009195101
C         0.79343882331075   -0.62121494426512    4.86998503061402
C        -0.08443172051598   -1.23194165927856    3.95165440332452
H        -1.37829517726282   -4.37536357486238    2.00894869024566
H        -2.30102498431298   -5.95534905446240    3.64851225999422
H        -3.94508533948400   -5.19127875253119    5.32166429076930
H        -4.68403334225861   -2.83205616939429    5.33023204508993
H        -3.78064813588564   -1.25269384915076    3.67694193573628
H         1.29402379934307   -1.73022596648493    1.61459013580410
H         2.83614758626716   -3.14335090345542    0.33543937932145
H         1.98151222345407   -4.63947720866262   -1.42860343864652
H        -0.43671022475007   -4.70344926160674   -1.92085774737912
H        -1.99499212538669   -3.27647015994861   -0.63629315797530
H        -0.54147106407997    1.36776692305010    1.81067653871082
H         0.99684386736083    2.45978636974825    3.43307878000434
H         1.85786176042314    1.17923461061516    5.37910883478159
H         1.23016456860453   -1.20726432648952    5.67041173290001
H        -0.31655185197159   -2.28803559302453    4.06348471949669

