69
CSD_code = ASUBEV | q = 0 | S = 0 | Stoichiometry = C34H28N2NiP2S2 | MND = 4
Ni        2.28567495272797   12.39107651598617    3.34322216517661
P         0.35079373723216   11.86658186840956    4.18014268839895
P         2.79107511174819   10.28926037823067    3.56108357526427
S         4.35795965276640   12.93541644509215    2.94617028981195
S         1.58556512532825   14.35919148060552    2.72271128120128
N         5.39111321545648   15.15119153468282    1.99920032345183
N         2.91315579359061   16.46182132727239    1.89142677342705
C         4.28518953666389   14.56237350810470    2.35562714039972
C         5.30429370257926   16.43376677098120    1.57305683119477
C         6.46554154689502   17.11829905551933    1.17775767400721
H         7.40728254273549   16.59290601543594    1.21997351212369
C         6.37898424201070   18.41833095420673    0.75513149649076
H         7.27045939404427   18.94790068297220    0.45073415957080
C         5.14206711775575   19.07695761035511    0.71215502823461
H         5.10131161975184   20.10310569297000    0.37572622143859
C         3.99304110727694   18.43409124372000    1.08985773842637
H         3.03062686414666   18.92167110376155    1.06311696330489
C         4.05039884637017   17.10003358193203    1.52625745086133
C         3.02067000202995   15.22509213117697    2.28660292472395
C        -1.31129773865352   12.52905774707904    3.91327600775447
C        -2.33414765743843   11.80684608595884    3.30921271979248
H        -2.17366225784184   10.78418241145557    3.00010618319614
C        -3.56639254448374   12.40207548367014    3.10318799070650
H        -4.36301517870822   11.83736329487613    2.64092465540033
C        -3.77854499364006   13.71764401551239    3.48041394397239
H        -4.74124570389424   14.17724911228184    3.31279227087013
C        -2.75339139638187   14.44706966633088    4.06246919941560
H        -2.91374878754698   15.47677020065088    4.34458484568185
C        -1.52240942988155   13.85842961494467    4.27502842726792
H        -0.70992913258825   14.42067837122497    4.71436209606988
C         0.65239117518334   12.23505290719707    5.93692945204692
C         1.90580643885097   12.73418490316544    6.28024349001402
H         2.64949917763966   12.91716405812909    5.48743572252609
C         2.20442302012370   13.01238645957310    7.60132152415429
H         3.17629025909356   13.40061247143645    7.86692546647602
C         1.24814069882594   12.79653758988536    8.58082140767166
H         1.47611514088572   13.01568323491542    9.61342575055830
C        -0.00475576865924   12.30858066141904    8.24092406494188
H        -0.74816752904558   12.15065844113436    9.00860279575155
C        -0.30777575311132   12.02732102660663    6.92131732261203
H        -1.28754303850436   11.65851199243130    6.64900209710926
C         2.38095080437900    9.68814058775949    1.89282390961278
C         2.51438606578767    8.35397999731213    1.52347753345205
H         2.90088084688007    7.63476984705167    2.23303342145527
C         2.16474991380326    7.96129174597460    0.24450590881594
H         2.26898333620943    6.92651331643422   -0.04752222227412
C         1.68541161683922    8.89204470764587   -0.66508423060775
H         1.41664526791549    8.57762757114792   -1.66266868711115
C         1.55842077014441   10.22355901925574   -0.30264602005505
H         1.19324020341851   10.94815748905157   -1.01497256956108
C         1.90819955266585   10.62153329239779    0.97449087445514
H         1.82964449616591   11.67991687047424    1.27235119226007
C         4.34940794333464    9.44385624076177    3.92110491603538
C         5.36769660718283    9.57175415928519    2.97804291528426
H         5.18185033214263   10.13603843980696    2.07472709480975
C         6.59966858838732    8.99085554899987    3.20564307545105
H         7.38588524310081    9.09105653529910    2.47257347354516
C         6.82772470777039    8.28709390509665    4.37788501046340
H         7.79118243825882    7.83358396181399    4.55730117258617
C         5.82392244816741    8.17395924897354    5.32514279279030
H         6.00535460875677    7.63373170338114    6.24282549209836
C         4.58808243669457    8.75678807545764    5.10576328010724
H         3.81539810098563    8.67448680842146    5.85618972449158
C         0.15243466072456   10.02316245317720    4.22731681169417
H        -0.62161179742088    9.74077707737735    4.94630266081905
H        -0.14864392368863    9.69201666659746    3.22849592118439
C         1.50768235862731    9.42314770214539    4.58243135871065
H         1.53950036473536    8.34531325714134    4.40059408999476
H         1.73150889679408    9.61511612143983    5.63640942831780

