35
CSD_code = ASUCNI | q = 0 | S = 0 | Stoichiometry = C8H16N2NiO8 | MND = 6
C         1.10810988666821   -0.16404630620755    2.80238287181227
C         0.74416846789822   -0.14780166582561    4.27993181971819
H         0.99078799268511   -1.11645565029988    4.71542103231949
H         1.34497460259862    0.60554714464187    4.78882933893691
H         2.22934043803650    0.25324109432513    0.79294787760450
H        -0.34700469086846    2.66455416619757   -0.77388095179616
Ni        0.00000000000975   -0.00000000012238   -0.00000000000001
N        -0.00000000001617   -0.00000000002570    2.03172272201173
O         2.24813557982511   -0.29953579813864    2.38815176781743
O         1.81950236345934    0.68081064199040   -0.00000000000014
O        -0.77706040115382    2.29034466156168    0.00000000000010
C        -0.74416846793430    0.14780166586853    4.27993181971188
C        -1.10810988669940    0.16404630620875    2.80238287180453
N        -0.00000000001617   -0.00000000002570   -2.03172272201172
O        -1.81950236354396   -0.68081064196375   -0.00000000000019
O         0.77706040134927   -2.29034466167141    0.00000000000010
H         2.22934043803657    0.25324109432438   -0.79294787760426
H        -0.34700469086785    2.66455416619772    0.77388095179595
H        -0.99078799272205    1.11645565035639    4.71542103228218
H        -1.34497460263982   -0.60554714458292    4.78882933894840
O        -2.24813557985584    0.29953579813764    2.38815176780804
C        -1.10810988669940    0.16404630620883   -2.80238287180451
C         1.10810988666817   -0.16404630620793   -2.80238287181224
H        -2.22934043808175   -0.25324109426757   -0.79294787760570
H        -2.22934043808168   -0.25324109426844    0.79294787760595
H         0.34700469104507   -2.66455416628450    0.77388095179655
H         0.34700469104565   -2.66455416628431   -0.77388095179677
C        -0.74416846793432    0.14780166586845   -4.27993181971188
O        -2.24813557985575    0.29953579813829   -2.38815176780799
C         0.74416846789824   -0.14780166582553   -4.27993181971820
O         2.24813557982503   -0.29953579813934   -2.38815176781738
H        -0.99078799272230    1.11645565035610   -4.71542103228251
H        -1.34497460263971   -0.60554714458330   -4.78882933894810
H         0.99078799268537   -1.11645565029956   -4.71542103231989
H         1.34497460259850    0.60554714464230   -4.78882933893657

