57
CSD_code = ASUKEF | q = 0 | S = 0 | Stoichiometry = C23H29ClCuN3 | MND = 2
Cu        1.94405422105550    5.05847131610870    4.75525842026526
Cl        3.75399622356586    5.57302956639414    3.88668861857764
N        -0.65915226398668    3.82331172574426    4.89266769059229
N        -1.78686827367343    3.70418455003495    5.55506417010062
N        -1.63625163032214    4.43820998798765    6.62716085062796
C         0.25397347642557    4.63156293719652    5.48809583280005
C        -0.41657708223675    5.03204270623628    6.65347325222401
C         0.06278837801058    5.91643242430602    7.70375781214787
C         0.83188299241325    7.01972032299063    7.34451041822344
C         1.33692428265976    7.87751221193891    8.31011133402114
C         1.05695281409685    7.62057692439413    9.64513110181096
C         0.30368764724118    6.51762215891013   10.02869647870789
C        -0.18976693972172    5.66748353203301    9.05200504852476
C         2.15698256372900    9.06255354917937    7.90623096116891
C         0.03346196544443    6.26153943680829   11.48054326968815
C        -2.73304185336134    4.56802680594882    7.54237858549986
C        -0.46575966041683    3.14465909242806    3.65977824797195
C        -0.79318475450958    3.79988204286508    2.47244831517234
C        -0.56575653774851    3.12802853033237    1.27904675772963
C        -0.03367315947668    1.85338593433622    1.27435894519871
C         0.28621077152404    1.22565096459543    2.46298983758072
C         0.07319684673854    1.85736363637704    3.68018700327831
C        -1.32621538819782    5.21205592629840    2.46865784881390
C        -0.25369823865755    6.15722430860304    1.92106601760609
C        -2.62298081676193    5.32155967606353    1.66445685746992
C         0.47903275475961    1.19858924543359    4.97648874905974
C         2.00212103885903    1.27625182083242    5.11635062799116
C        -0.00929158571323   -0.24777681060484    5.06685586394181
H         1.04135317185656    7.19678602250365    6.29993409061510
H         1.44488888218488    8.28213068748816   10.40673409206696
H        -0.73392224818069    4.78378592977107    9.35083654947732
H         2.80080379787878    9.38704901093733    8.71948147198085
H         1.50501989336318    9.89314223860346    7.63579496788665
H         2.76998198074287    8.82329583571550    7.04125284056466
H        -0.43748076968797    5.29287469384675   11.62812675507828
H        -0.62589251170460    7.03102024711682   11.88174250822190
H         0.96019400665429    6.28951071347800   12.05035371793816
H        -2.69911304280000    5.54778220790169    8.01627692790485
H        -2.69049912668532    3.79167991458698    8.30828916800616
H        -3.65912199560743    4.45067625341017    6.98139587144153
H        -0.79655215922444    3.61078506784549    0.34274483262987
H         0.14346146759401    1.34878738721849    0.33638250971992
H         0.71603684754100    0.23703151377731    2.44201293702261
H        -1.54833902678420    5.51636458250479    3.49620677517881
H         0.65854506500540    6.07402639479047    2.51180821190213
H        -0.60192962950428    7.18673713686228    1.96302326405577
H        -0.01544060857806    5.91253916214913    0.88934470047794
H        -3.35811813890006    4.60760692640025    2.03012048543532
H        -2.44922308291893    5.12835042405267    0.60965104454445
H        -3.03423726399143    6.32379184094938    1.76143646550884
H         0.03369093541896    1.74699686273725    5.81242809834696
H         2.48667174587220    0.73006791564122    4.31121127041839
H         2.31684045636361    0.85020555391648    6.06618747815829
H         2.33335077867957    2.31412390913722    5.07329291734105
H         0.19065314845964   -0.64188120143789    6.06063777251905
H         0.49897483124788   -0.88212469593467    4.34654385787666
H        -1.07994519603749   -0.30049705973982    4.88178950088556

