97
CSD_code = ASUNUX | q = 1 | S = 0 | Stoichiometry = C40H52IrNOPSi(1+) | MND = 6
Ir       -6.97454652159745    3.69890640727242   -7.84234958154283
N        -5.10931227117218    3.33082707691568   -6.98035421122385
O        -3.23146752065569    2.87679265757499   -9.99770166476463
P        -6.70876527627312    1.47117426985321   -8.50199113864853
Si       -2.92080344617882    3.78935918126372  -11.34625532407017
C        -4.09803987969713    2.99503475539040   -7.76663448695452
C        -2.81402358813689    2.71689986331228   -7.28097485871630
C        -2.57608832135634    2.77862700667479   -5.93587621180659
C        -3.64188147513129    3.07683928942099   -5.06353929233761
C        -3.49156032926176    3.10172232605786   -3.66201109388966
C        -4.56149609494070    3.35669544775985   -2.85026102874340
C        -5.82630014708131    3.59382218736006   -3.40846029510831
C        -6.00169600555935    3.59040578956783   -4.76575726840203
C        -4.91770767805191    3.34221498521947   -5.62979372879887
C        -4.39229255521042    2.84001417728130   -9.23871845977147
C        -5.10856569964127    1.49078063026527   -9.44155607496220
C        -7.84850036915443    0.60021204359891   -9.62438248081472
C        -8.74062880444287   -0.33681100077561   -9.10944816192635
C        -9.65698745878788   -0.95523011208558   -9.94040920781491
C        -9.70355109788633   -0.63358421290440  -11.28697533875772
C        -8.83660267371672    0.31750548560248  -11.80040795372929
C        -7.91913173906763    0.93926515522996  -10.97366946206543
C        -6.39026089370860    0.20633114690255   -7.22936298331026
C        -5.82724639171405   -1.02306222296734   -7.56297690338906
C        -5.58072306250722   -1.95870025971710   -6.57604707848616
C        -5.89399933140432   -1.67817842026765   -5.25444520396100
C        -6.47477384940102   -0.46616712964552   -4.92143173813090
C        -6.72850296944775    0.47051553578998   -5.90773641549374
C        -5.55935026274335    3.95357138884729  -12.56132306553562
C        -4.17804532014563    3.31573214425454  -12.73400432289902
C        -3.65724745377125    3.63525167573749  -14.13539107592474
C        -1.16188524212967    3.18803610440717  -11.78868886380163
C        -1.13900346514333    1.67603668886517  -12.01741012166560
C        -0.11462369647030    3.56073662541221  -10.74096735544394
C        -3.09486639223348    5.65101956335555  -10.88040004394881
C        -2.39856656330867    6.57351731395983  -11.88089867180225
C        -2.59134925388759    5.94990521755258   -9.46653823318108
C        -8.57401858328883    4.10687942455413   -9.23582323352927
C        -9.09922831258119    3.86497835150224   -7.96170540449214
C        -9.62419593916884    4.93649919074793   -7.03409915407498
C        -8.66618077295457    6.13460732237434   -6.87667074814892
C        -7.21360667371604    5.74546896198018   -7.04590436985484
C        -6.54214784313667    5.79651009531254   -8.25741123579215
C        -7.16565260147804    6.19133530029773   -9.57205082845138
C        -8.50268483453290    5.48373962203909   -9.86164344044464
H        -2.04583610941028    2.46960651922597   -7.99455907325725
H        -1.59466530946021    2.58444312171922   -5.53153618485644
H        -2.51479402857024    2.90612091979895   -3.24670414064265
H        -4.44213588152880    3.37126718462092   -1.77839941592827
H        -6.66659412278996    3.77878146230148   -2.75712875424154
H        -6.97894990666233    3.76138113254041   -5.19548594744895
H        -5.07685696943560    3.64618970134700   -9.54087255813516
H        -5.29325804144096    1.36117883608300  -10.50844351314893
H        -4.44742707659186    0.68824767603323   -9.10729575478678
H        -8.70793581182442   -0.58760528008132   -8.05853330504377
H       -10.33686873125774   -1.68885159011664   -9.53525903611665
H       -10.41717829784717   -1.11873556442033  -11.93438067244824
H        -8.87751678148920    0.57742615078854  -12.84726184061599
H        -7.25637036792736    1.68822371937010  -11.38353683236666
H        -5.59958850016484   -1.25185371471648   -8.59505039283824
H        -5.14592730566649   -2.91145829149875   -6.83711416121418
H        -5.69428912931521   -2.41028465458489   -4.48745146777503
H        -6.73365036096510   -0.25127666247948   -3.89581475105476
H        -7.19945316016586    1.41105464463769   -5.65976346652169
H        -6.24943153171837    3.56973077366265  -13.31200522589496
H        -5.49777675153877    5.03143889674373  -12.69143129303571
H        -5.97807583007931    3.74832490132633  -11.57711125691078
H        -4.31228043419271    2.22790315722703  -12.68319701322954
H        -4.36219640964656    3.29234519147953  -14.89086902596974
H        -3.52408363868169    4.70615681857591  -14.26185594395555
H        -2.70289383982722    3.15093350751654  -14.31705669773394
H        -0.87030931283542    3.67021148603363  -12.72536342264019
H        -0.13902328629835    1.35086050316089  -12.29844618058218
H        -1.82464517144806    1.38699480147342  -12.80928812612763
H        -1.42564393010716    1.15394724579975  -11.10806503550262
H         0.85633379262551    3.15365926662535  -11.01814373162953
H        -0.01288528857376    4.63879257232519  -10.65400355692427
H        -0.38606663512733    3.15867121009703   -9.76819226846397
H        -4.16076545080212    5.90895503351636  -10.89652357173463
H        -2.53372344652404    7.61580484717582  -11.59710745262597
H        -2.80177160166427    6.43850968799840  -12.88039772353014
H        -1.33256793961338    6.36735451813540  -11.91597356291595
H        -2.80178803985405    6.98504915448655   -9.20010399120722
H        -1.51850096304721    5.79812082204402   -9.39893517980565
H        -3.06590279415782    5.30203289269513   -8.73157918571656
H       -10.59545119414465    5.28042017664466   -7.40061464427949
H        -9.79645307636144    4.48394044190156   -6.05608263650669
H        -8.91060262750272    6.91347797465942   -7.59834409937862
H        -8.80412638523203    6.56168784495278   -5.88304863034267
H        -7.30799212981456    7.27607419489635   -9.58056125216620
H        -6.45924227647120    5.95791793200468  -10.36987515732523
H        -8.61797903363802    5.38877393631662  -10.94154371238258
H        -9.33840593379132    6.08209643646102   -9.50031395080359
H        -5.46282265817551    5.93228023877579   -8.22821524834113
H        -6.60964850756604    5.84837205801309   -6.14856750864874
H        -8.64919403277848    3.29535870951215   -9.95700130782773
H        -9.55337908704975    2.88681040608699   -7.79143332079496

