102
CSD_code = ASUPAF | q = 1 | S = 0 | Stoichiometry = C47H50IrNOPSi(1+) | MND = 6
Ir        2.80373166617082    1.13837241630805   -4.28810490991373
N         1.02646945458164    0.20663782732681   -4.87188366319673
O        -1.32656306171364    2.60852302856038   -3.62832513992934
P         1.86080229842547    0.55929011091546   -2.23843200362365
Si       -1.57442302762289    4.25232812029110   -3.62880548870238
C        -0.13765188523368    0.74541792250960   -4.54404708589106
C        -1.36601235718527    0.18133811853266   -4.91248586120955
C        -1.38346845513589   -0.99922874914486   -5.60311263895200
C        -0.16515197792384   -1.65384502886933   -5.87364028580658
C        -0.10101772305329   -2.92113655797838   -6.48681844561263
C         1.10157027451462   -3.54351599231147   -6.67481784332776
C         2.28787137684120   -2.92446446384743   -6.25460612599943
C         2.26086611325555   -1.68528121687415   -5.67500214345060
C         1.03995763341906   -1.01349749846916   -5.47944269836997
C        -0.10044774704496    1.96336310666648   -3.65574551974436
C         0.28526226754472    1.51978575606288   -2.22793505264474
C         1.40462967833112   -1.20701225546164   -2.25833876647103
C         0.10914409200164   -1.70732483196713   -2.25140691886139
C        -0.11020197658278   -3.06574146883754   -2.40853911054423
C         0.95456099206878   -3.93463551618390   -2.57130385677394
C         2.25122932636066   -3.44473257000747   -2.57342074339386
C         2.47237631064689   -2.08957963517872   -2.42818953256502
C         2.47304774141018    0.85446637114871   -0.54906089128469
C         2.73714236651094    2.17105878480656   -0.17417058732002
C         3.23007203656050    2.44980193347139    1.08589153911927
C         3.47194869348872    1.41851773325934    1.98016639186254
C         3.21760890844571    0.10878374779442    1.60981007178665
C         2.72473882929402   -0.17739837511800    0.34833777129140
C        -1.90474192500585    4.78792108510376   -5.44968085880091
C        -2.00103339481357    6.30959347029645   -5.56938687674746
C        -0.82608029858779    4.26302421196011   -6.40349375178726
C        -3.24769444488369    4.18732684881959   -5.88279734623602
C        -3.10553195058488    4.48634605381165   -2.56021468906912
C        -3.42256315941215    5.74926574502432   -2.06716108456540
C        -4.56798212851517    5.95693492121765   -1.32100731310235
C        -5.42231040119197    4.89966965537912   -1.05481974251768
C        -5.12106406122520    3.63597924386767   -1.53426701473107
C        -3.97379236435369    3.43542036076160   -2.27969586896904
C        -0.06854471636341    5.02496768115892   -2.75923069838936
C         0.97752165386985    5.66531249571720   -3.41569284924395
C         2.08611360700849    6.12881232169172   -2.72735577311542
C         2.17116352198461    5.96189252005796   -1.35616332602972
C         1.13191940926425    5.34548391308033   -0.67798914751618
C         0.02801540456401    4.88643583276262   -1.37394231010059
C         3.65057974521607    1.33365395503014   -6.31454913227524
C         2.88586352458711    2.45230866728445   -6.02019732245291
C         3.43959351612374    3.79350419745288   -5.60897980831130
C         4.51369456049772    3.70755427283824   -4.50915281510230
C         4.28960045009071    2.53140649545152   -3.58203249179835
C         4.87215596563780    1.27319944693174   -3.78215230235446
C         5.75678167243842    0.91615061635173   -4.95530369159629
C         5.16384908981224    1.32970101201805   -6.31739665391570
H        -2.26763393499158    0.70285093698572   -4.63604783955119
H        -2.31251776142777   -1.45183022250120   -5.91406487393105
H        -1.02290644211495   -3.39286206851317   -6.79098895516060
H         1.14507082297106   -4.51638925004132   -7.13854013182528
H         3.22837487748905   -3.43591435018713   -6.38858791717001
H         3.17047795179509   -1.21440140320707   -5.32914242257060
H         0.68962891835780    2.64170865820687   -4.01558460830861
H         0.43881267152746    2.42319917344798   -1.63327386933732
H        -0.53949628831641    0.96353794811401   -1.77783719577688
H        -0.73968194674944   -1.05126484428156   -2.12930659051523
H        -1.12082505993158   -3.44509981649211   -2.40415806026575
H         0.77513994035677   -4.99106489524733   -2.69597451255790
H         3.08512856869270   -4.11855854197798   -2.69659415180523
H         3.48037395238896   -1.69431531950043   -2.44435499454152
H         2.54506559508103    2.97943442395819   -0.86727350076546
H         3.42904135790482    3.47164961518183    1.37084103851010
H         3.85801222114328    1.63630576919738    2.96378460542285
H         3.40300211822897   -0.69560515136353    2.30505542558688
H         2.52678439583892   -1.20144190872591    0.06718316421191
H        -2.22018738535781    6.59527560558770   -6.59705805101312
H        -2.79966235357199    6.68723890002457   -4.93588968792501
H        -1.07520111364456    6.79487468232129   -5.27126785515069
H        -1.07555567274622    4.52336644813854   -7.43134897991037
H         0.15003359319981    4.68761396019264   -6.18049274133637
H        -0.75420788516920    3.17778440347600   -6.33883250132448
H        -3.46762359549239    4.45892690829552   -6.91422180365918
H        -4.05554889236368    4.55376647909082   -5.25413363524429
H        -3.22718760364948    3.10181691819852   -5.81344121441987
H        -2.75749138030628    6.57682987068789   -2.26772583324111
H        -4.79701235325274    6.94386815683527   -0.94721276275240
H        -6.31901968152607    5.06014134120930   -0.47535252624792
H        -5.78416708987102    2.80825935067694   -1.32846505261809
H        -3.73892612614635    2.45001376027781   -2.65354482079929
H         0.91985024435344    5.82507093960673   -4.48203837195067
H         2.87913516445980    6.63288682272849   -3.26077987249250
H         3.03416982231440    6.32367819609263   -0.81728501631947
H         1.17781249713257    5.22876427944659    0.39501387685056
H        -0.78750615027274    4.42444689618067   -0.83486168614160
H         3.84561457560455    4.29506403080137   -6.49240531274035
H         2.61320956059843    4.40283898931124   -5.24230508713264
H         5.50843195320041    3.63308250424188   -4.94716071655154
H         4.48494454331968    4.62694760049453   -3.92460350448338
H         6.73717612411034    1.38054847057753   -4.81751467687285
H         5.91288063081880   -0.16389825920112   -4.94608539078799
H         5.51386442087752    0.62967257091175   -7.07631936519810
H         5.52034148012615    2.31885103600007   -6.60267454665210
H         3.19487594627559    0.58026303692851   -6.95171153747919
H         1.88763915887945    2.50575201509131   -6.45114080812575
H         5.08042704442698    0.67828242352545   -2.89106899604338
H         4.07543344089894    2.81217706772651   -2.55351372363122

