33
CSD_code = ASUPIO | q = 1 | S = 0 | Stoichiometry = C9H18ClN4Pt(1+) | MND = 4
Pt        0.73278178603350    1.85499182595561   15.01518180367696
Cl        1.17621125268838    0.71044695883286   16.89134220273450
N        -1.21947749015042    1.93950362218562   15.34209255702190
N        -2.03431604095215    1.61578411331538   14.31487942898876
N         0.49800746277939    2.78387123292333   13.06627175474034
N         2.71848094690147    1.74975001947372   14.51023696027687
C        -1.98120890941942    2.26900705690453   16.38143245467352
C        -3.32452017944605    2.14623576835887   16.00361149339935
H        -4.17847230539642    2.33621609714767   16.61920941862684
C        -3.32936683120128    1.73302186660575   14.68719951565051
C        -1.41963586233912    2.70795281535908   17.67942486299096
H        -1.45238408804062    1.88814952740308   18.39538100356040
H        -2.00156538503149    3.53250308004000   18.08277224071059
H        -0.38090508427699    3.01176085263973   17.55494085468429
C        -4.46945830137562    1.44010050477208   13.78694445744684
H        -4.45187689676740    2.07738322387388   12.90368090432207
H        -5.39973045587478    1.61538903042269   14.31821708539126
H        -4.45159958605911    0.40001689699840   13.46332763233263
C        -1.47577785489995    1.26829695392779   13.03469115228587
H        -2.28220325821183    0.92333129386489   12.38743641191015
H        -0.75694226401918    0.44786190049563   13.17254811172369
C        -0.77322249371911    2.47888555488281   12.39146048488526
H        -0.59935067749089    2.26823776695672   11.33191765663873
H        -1.44032250364122    3.34136412624380   12.46242939198722
C         1.69325044981879    2.29526774692845   12.35614478062689
H         1.55601937179759    1.23118335662802   12.14068563704867
H         1.83603974346055    2.82447563723229   11.40638765770468
C         2.92495525786343    2.48094317391686   13.24740392419304
H         3.81881260543643    2.13548145910405   12.71830084238475
H         3.05310964417102    3.54363974925345   13.47466965266332
H         3.33224032282754    2.09415473340642   15.25213007843796
H         2.93887241874308    0.75566867104685   14.39759044061002
H         0.58835520579284    3.79322338290016   13.18105714567204

