100
CSD_code = ASUSOX | q = 0 | S = 0 | Stoichiometry = C48H39IrN6O3S3 | MND = 6
Ir        3.96986951661905    5.30898759260115    3.51559058002015
S         8.02189954085995    5.30597937866738    5.44690973771465
S         0.87489010137850    7.49335506182178    5.92371062713288
S         4.07256250259244    6.57941673076530   -0.78850517660219
C         5.88822422422859    5.78928873846386    3.99683020595258
C         6.92100391072063    6.64836170339600    3.54277882158907
H         6.79571987503553    7.35829335748834    2.74372932941937
C         8.09600475320647    6.50016724942829    4.21339085757770
H         9.01918468164138    7.02635550679993    4.06203493867603
C         6.35579509752673    4.99977757805652    5.03425124160032
C         5.49089651847672    4.06414830224479    5.67093531474319
C         5.80160181552714    3.24643696722742    6.77232426599948
H         6.79069562312986    3.28429261957770    7.20159138993317
C         4.81886217560906    2.43972591914391    7.27640055759147
H         4.96461609532708    1.78920704247824    8.12264050523536
C         3.55868349009155    2.49784583518844    6.64644708289947
C         1.29210656074290    1.92181809041454    6.59390296393670
C         0.56960535246946    3.07791608019443    6.88180775818712
C        -0.72751557511480    3.17073971917734    6.39536104365883
H        -1.30769332218159    4.05303102168710    6.62129485548873
C        -1.28116100556826    2.15172743294068    5.64345394239519
H        -2.29312990691979    2.24038605374656    5.27727922125952
C        -0.54583235016094    1.01319011344592    5.36813375557063
H        -0.98157151558610    0.21516824363058    4.78485987641515
C         0.75036721564516    0.88016156107116    5.84337637232559
C         1.16814393571457    4.18293835208891    7.69471428195124
H         1.73675559327214    3.78341629196070    8.53332971211631
H         0.39229703957339    4.84326842278149    8.07320221947592
H         1.84719554130601    4.77215436767416    7.07731123826772
C         1.57466713012591   -0.34237073657999    5.58039467658328
H         2.49431519247216   -0.06924012158547    5.06379161300376
H         1.02327981985545   -1.06047663363671    4.97891351497213
H         1.85511060494191   -0.81132015542589    6.52289928952376
C         3.06770617023056    6.64681028513938    4.75589810452263
C         3.42723597014711    7.69919256529805    5.63567444328658
H         4.43634667399248    8.05199043825868    5.75978162913422
C         2.37565292139181    8.23383848888599    6.31436421365940
H         2.38373969749014    9.03203814307731    7.03189651378549
C         1.70122343680642    6.42944608860337    4.81679580836980
C         1.09670754434553    5.42768402362473    4.00445605246036
C        -0.27605567449649    5.13645047230361    3.91024770630093
H        -0.98064541594391    5.69138070607650    4.50992669672119
C        -0.67203984212342    4.16254083614645    3.03531678250973
H        -1.70185529577341    3.88103635864293    2.89120455139509
C         0.33949879907096    3.52617082071690    2.28701925429548
C         0.97891211410307    2.07907287526689    0.56484402298734
C         1.50441300509154    2.86869363239622   -0.45587218081659
C         2.42881034465105    2.28902989615147   -1.31449519628488
H         2.83573267877655    2.88171046780216   -2.12024601534079
C         2.82005537648141    0.97284513259122   -1.15691802492413
H         3.53743264828227    0.53844402487375   -1.83712959563913
C         2.28630035130212    0.20692448766729   -0.13649803851675
H         2.58873463375113   -0.82329983928968   -0.01784057744577
C         1.35444171104357    0.74817723484434    0.73664929281104
C         0.74134618563657   -0.05147099421680    1.84478036535700
H         1.13847834243218   -1.06318161646756    1.85924025207138
H        -0.33946982629826   -0.09739545022032    1.71581994309589
H         0.93691937534018    0.42703830961869    2.80395064290379
C         1.08297987184042    4.29456675959929   -0.62754379978753
H         0.01035261236538    4.40343752953778   -0.47327370658840
H         1.33749872835321    4.65176865256191   -1.62196851234804
H         1.59406736125762    4.92326664836626    0.10253174662001
C         3.85628113297098    6.43372791755028    1.82318741757699
C         3.44729559207192    7.73305792661817    1.42913129962489
H         3.11997156358330    8.48905261515324    2.12159509503445
C         3.50821601311696    7.94663365730294    0.08638465428811
H         3.25510041307273    8.83653347205889   -0.45772389704279
C         4.22210534492424    5.69786541092286    0.70831927529370
C         4.68814581045136    4.35963449430730    0.85248613035702
C         5.15444079176763    3.51650594754959   -0.17217347630788
H         5.16176341833434    3.87051810432580   -1.19131059949731
C         5.60627163675298    2.27172398162986    0.17001740471625
H         5.98984860331085    1.56475711546910   -0.54664357302699
C         5.57180976203539    1.93327668420230    1.53839407298166
C         6.13184932798826    0.47452527063362    3.27879367528811
C         7.11632240113577    1.10335887357850    4.03833537005034
C         7.23108731890797    0.74709938105808    5.37534949027994
H         7.99817707948436    1.21325805841490    5.97565064988460
C         6.39054499296195   -0.19596552189706    5.93609504761862
H         6.49781794363813   -0.46294628918104    6.97688419155320
C         5.41915077530568   -0.80714136917781    5.16434306041183
H         4.76640814540563   -1.54800097865718    5.60248472366269
C         5.27876944491413   -0.48353323308788    3.82295402093578
C         8.02665037015872    2.12543330531201    3.43263639032034
H         8.35287370315551    1.81490624447604    2.44096085832863
H         8.89913698446807    2.28163235436566    4.06158484374128
H         7.50280486482934    3.07676389434241    3.33255736404549
C         4.24986943352254   -1.13276837209634    2.94939928936387
H         3.59053298867748   -0.37713499356248    2.52330896507627
H         3.65884298684772   -1.85011955266418    3.51294559892927
H         4.73641258757630   -1.64751772759053    2.12164936149278
N         4.25934377005323    4.04281399188873    5.13281440962234
N         3.32080180365146    3.27699205660049    5.61056198026665
N         1.98799607674080    4.75799634161877    3.25345497872190
N         1.61480197827093    3.83119537135719    2.41855193378122
N         4.68695851901847    3.94220856276800    2.13022035689231
N         5.11744844704110    2.75840748676177    2.46005266865919
O         2.56926848805058    1.73189091077181    7.12700589556556
O        -0.01646801826957    2.57895847318509    1.40792856267035
O         6.02337677201189    0.72694546890771    1.90911351963669

