82
CSD_code = ASUSIQ | q = 0 | S = 0 | Stoichiometry = C32H46FeOSi2 | MND = 8
Fe        0.70308238864407    2.20067615851023    3.90915575351191
Si       -1.48968223160877    2.29149435519535    3.97899293993806
Si        1.05728933531516    4.34728113961127    3.36327003599427
O         0.87089417734397    1.94349963954122    1.04206727246680
C         1.20805381715086    1.75395715955101    5.99201991949341
C         0.78661916184032    0.55402670634320    5.31805118492573
C         1.67956246206598    0.32375248846272    4.24405133943173
C         2.64772638565263    1.37536405165337    4.24545641322202
C         2.39307118347490    2.21739502688131    5.36713509903407
C         0.67981528694040    2.19839763304993    7.32097971244720
C        -0.21549135153559   -0.41670134530056    5.85783874490002
C         1.75095756821070   -0.88501916865831    3.36470124842436
C         3.87792150597857    1.37932151318279    3.39516559913057
C         3.34756753360972    3.23289643579099    5.90905105286897
C         0.74205715446733    2.07876861482661    2.18235496148209
C        -2.67587367154049    2.14821586001568    5.49496486929825
C        -3.52226064006320    1.04659486923047    5.68814800005939
C        -4.27639227752023    0.94344574345906    6.84664054418248
C        -4.22157045651273    1.91169070816598    7.83902185348427
C        -3.39791281548919    3.00773016830236    7.63701226620484
C        -2.63237146481274    3.13567128149638    6.48660883937812
C        -3.64963769845921   -0.02313503891150    4.64656851697239
C        -5.05209276267870    1.78632772794797    9.07935455725131
C        -1.79614961952263    4.36306211238028    6.30785066515079
C        -2.66076979139817    2.12432718317192    2.47053650596995
C        -2.48902575677558    1.09615637762889    1.54088098575210
C        -3.25730613691959    1.06926132961411    0.38347275274167
C        -4.20157644374847    2.04547905655951    0.11739918481528
C        -4.37814530318039    3.05817045939512    1.05150654308007
C        -3.62525802814988    3.10806742280254    2.21138412175516
C        -1.52703322640121   -0.03197870986948    1.76139015075499
C        -5.00418115841256    2.02756563025844   -1.14760967478542
C        -3.86213080298025    4.21402891648594    3.19377681716006
C         1.15091943299727    5.57757196476767    4.84968472530243
C        -0.23269267285113    5.16840710726850    2.18908919621296
C         2.71520819708308    4.60478383489466    2.40997383333502
H         1.17671376094945    1.64832010734205    8.12323093476175
H         0.85459669407633    3.25916579028672    7.48149782041148
H        -0.38877876218099    2.01485605380526    7.39837779062408
H        -1.05577002779139    0.09216551304806    6.32303419464456
H        -0.59449503792329   -1.06984134391635    5.07499139307126
H         0.25798219998179   -1.04497057530447    6.61543212047882
H         0.81813090037586   -1.44301014450831    3.37673368161812
H         1.96869457299335   -0.60229794922417    2.33726827918970
H         2.54801905703753   -1.54785969267487    3.70720485986468
H         4.52823298465408    0.54802647104852    3.67524595370851
H         3.62279495884939    1.26523469976079    2.34380313480431
H         4.43337720380616    2.30407594777015    3.51540793300487
H         4.27204350456554    2.73382788013015    6.20633326854599
H         3.59493737860916    3.99253633844432    5.17330967940537
H         2.93740137013647    3.72704793807895    6.78501569330230
H        -4.92184736918291    0.08642301794436    6.98323507258456
H        -3.34795008475560    3.77893004909810    8.39357167471130
H        -4.18732240076802    0.36195030292005    3.78131598463113
H        -2.67490128408059   -0.35987528602496    4.30773416251891
H        -4.19784989662353   -0.87694400450485    5.03863893378485
H        -4.60034416431582    2.32914006488039    9.90648191732164
H        -6.04545973729473    2.20162870051983    8.90501371211477
H        -5.17072274235451    0.74273354389808    9.36290587137275
H        -1.58286426210819    4.82796691751295    7.26760159089680
H        -0.86609061127826    4.12769169731382    5.79949691343259
H        -2.33096273146041    5.09081709120884    5.69827083301858
H        -3.10986370424004    0.26538097911839   -0.32480505918108
H        -5.11792984946579    3.82442617627469    0.86338687232269
H        -2.07437867400153   -0.94886062305272    1.98397625937274
H        -0.94418638154791   -0.20707644167166    0.85955836407035
H        -0.84240289639536    0.18333386776894    2.57705187633354
H        -4.57786380395965    2.72758350081889   -1.86688918808305
H        -5.00296351355710    1.03717807907855   -1.59648551768933
H        -6.03245834529187    2.32922214755881   -0.95777009621804
H        -2.94252370398445    4.76761860056634    3.36978309443504
H        -4.61625226324904    4.90426683412384    2.82269942657323
H        -4.20131488885013    3.81079129571926    4.14648040657939
H         1.28054568184135    5.08046364798933    5.80133458693031
H         1.98346363394487    6.26047354224408    4.72326401106274
H         0.24890299656859    6.17444518007996    4.91052197325578
H         0.21154585581089    5.98264586828214    1.62712957529758
H        -0.62975541215468    4.45389464540378    1.47732911458222
H        -1.06945140966532    5.58151501350671    2.74097422245962
H         3.58677422220813    4.37432668025287    3.01198538967273
H         2.74743259201242    3.96569971084551    1.53480965052911
H         2.81892310985414    5.63207775257771    2.07116510244198

