54
CSD_code = ASUTEN | q = 0 | S = 0 | Stoichiometry = C17H30Cl2FeN2O2 | MND = 4
Fe        5.76221657382418   14.72300187058724   17.05823463101169
Cl        6.49817943208756   16.01570300833207   18.42514866811909
Cl        4.82444412948581   13.30630600332118   15.97488009729288
O         9.94805088310534   15.05249179875983   15.26864468435383
O         6.47735701260159   16.71346165466429   12.88820780650188
N         8.06750717529610   14.41110233688698   16.27620505928999
N         5.89651309605560   16.08666370257486   14.94757878030167
C         9.09703004778551   14.19514451787935   17.28397135559625
H         8.88556641128658   14.85801839682108   18.12989045824627
C        10.39101366611231   14.63321812741002   16.55489071386508
H        10.88957589664004   15.47191787062469   17.04522693011392
H        11.10843192151989   13.82040487751979   16.41637330082681
C         8.61718507050082   14.86458052796957   15.22818351218136
C         7.94550717299291   15.11188009059383   13.90726843172425
C         6.73890217778395   16.00696593511746   14.00369555276775
C         5.28509945595276   17.44872760660846   13.13155533586845
H         4.59033312959424   17.27556579112119   12.30887009873031
H         5.54568171885179   18.51051620325998   13.16914102790780
C         4.77578726307224   16.90484788253842   14.48704370102301
H         3.93857412923244   16.21250938226520   14.32530719470966
C         9.07258980709531   12.73997947459747   17.80664828144688
C         7.76099262264758   12.52445887682236   18.56628895163022
H         6.90618294193016   12.68423233840254   17.90226859532075
H         7.68551434085162   13.21399799530962   19.40428299562506
H         7.70858386716916   11.50785517261608   18.94780689793613
C        10.24093902650994   12.52872464359534   18.77353588884105
H        10.21390157938465   13.26867604996750   19.57000016621893
H        11.20091423379516   12.60384584198050   18.26904997970957
H        10.17303534333231   11.54065210247673   19.22206427535577
C         9.14770712880813   11.74550617665956   16.64699445208895
H         9.15070317276283   10.72775243057094   17.02950574342938
H        10.05004082773695   11.88629717219943   16.05571956705277
H         8.28356863450641   11.86900928949171   15.99871404288720
C         8.95065130808935   15.69252416954664   12.90892961882926
H         8.47413451960733   15.83283538934750   11.94316010884227
H         9.79203153394936   15.01449147882406   12.79634759963620
H         9.32587616810260   16.65141382572752   13.25712961288096
C         7.41801212416335   13.75271238118397   13.40108474361178
H         6.69050130586279   13.35407739173755   14.10452574776171
H         8.24232656715922   13.05083910002285   13.30039579863123
H         6.94441942611188   13.88050807460438   12.43070564957301
C         4.30950258957308   17.96834517083155   15.50342283747523
C         5.50702731733810   18.71995647056291   16.08323790041194
H         6.10423947659435   19.17835626500148   15.29749998775039
H         6.13865704594674   18.03538505320831   16.64450251940232
H         5.16589066062981   19.50468223748430   16.75354931925920
C         3.34735987233897   18.94593447575741   14.81777654266717
H         2.89133624857463   19.58947933530640   15.56608406664511
H         2.55515888797423   18.40748058136461   14.30201659943912
H         3.85711083153792   19.58019286474878   14.09754739399580
C         3.54548474689067   17.25968750625135   16.62476103715010
H         4.14537420490518   16.44470220706422   17.04324296235407
H         2.61586933808622   16.83884744418135   16.24834533606494
H         3.31500593629440   17.95723342782124   17.42533743958633

