79
CSD_code = ATABAY | q = 0 | S = 0 | Stoichiometry = C29H40O6P2PtSi | MND = 4
Pt        2.81088812626035    2.76586222662195    0.86874500750978
P         4.18429709362620    2.23886110465531    2.71012962992551
P         0.94203016212375    3.55935252776137    2.09646763066245
Si        4.33138879962220    4.23875979943482   -1.46761925315262
O         0.64030974461626    4.09554938351962   -3.26068600160683
O        -0.47792076450091    2.65804636636357   -0.72711519336056
O         4.36388026598716   -0.41572742500504   -1.06783188617605
O         3.91102784930123   -0.10224815873703    1.10487552162394
O         2.64891575810842    4.89803347741981   -3.87008104328849
O         0.79256718444853    1.47470304815834   -2.15247926255134
C         4.47094811363362    5.20828080157263    0.16935575618896
C         4.70281158287520    6.80898023432456    2.45406111523848
C         1.00916604409214    4.15500717866854    3.84419426500722
C         4.15058322796831    0.37051141608607    0.00173551815951
C         4.21961529163684   -1.80854551897208   -0.85466271146184
C         6.08437174409534    1.84931213398155   -1.91342299249559
C        -0.15863563154823    2.11103693906597    2.31316176586149
C        -0.21201319557656    4.82099724631271    1.43806265548036
C         5.83275272585391    6.25082610538651    1.87641949795450
C         2.08852473527179    5.33290847210960   -5.09416449954847
C         6.30837718824452    5.20196892628530   -4.99841535817032
C         5.58982473545414    4.54302698403403   -4.01862257526861
C         6.77924535491630    6.48424877504542   -4.76828732957512
C         1.81377196785125    4.26946712283252   -3.01638107879691
C         5.80219535936312    6.43208756951868   -2.57928216060764
C         4.58066764278131    3.61997760225361    3.86445265025731
C         5.32547654745484    5.14442888004709   -2.79289915082578
C         0.60198995771961    2.44111472764670   -1.23588022786752
C         5.91492287349849    1.69700742675694    2.42413464905904
C         5.71309478435984    5.45634274671063    0.74992323663255
C         4.93290478924055    2.45159552249738   -1.16194806022187
C         2.49989810808905    3.87978699514777   -1.78991988756897
C         6.52264618081013    7.09854603271373   -3.55478762287141
C         3.59233729218391    0.98718401918172    3.91265191913981
C         3.34338843486866    5.77004284360790    0.76840741379207
C         3.45846205354383    6.56148971856835    1.90088602872038
C        -0.37944779313219    0.81563850496383   -2.59742061361179
C         4.15783514703326    1.79572675516973   -0.29218852562414
C         1.88577189025781    3.07837012878897   -0.89488389087091
H         4.34084005966632   -2.28091632589054   -1.82642987708919
H         4.97941411245270   -2.17107305865868   -0.15713867333192
H         3.23297754851781   -2.02969039918518   -0.44137924011069
H         5.74379947899891    1.51168204702269   -2.89133576365786
H         6.87008245605557    2.58692908253668   -2.06697301599980
H         6.49336049580467    0.98812446377465   -1.38978974270819
H        -1.03064218195588    1.52806951845346   -3.10870961797112
H        -0.05070168192658    0.03688757786485   -3.28144847316697
H        -0.92094398868254    0.38228656225712   -1.75255795926816
H         2.89902286316838    5.80371121009161   -5.64613878996322
H         1.68453551998205    4.48481203936000   -5.65276671631325
H         1.28126201550281    6.04695552533812   -4.91294776949138
H         2.37976474375237    5.64680851699280    0.29328331426733
H         2.57771492655463    7.00987491384535    2.34054835862305
H         4.79546364767560    7.43771368371636    3.32837949052106
H         6.80776854804034    6.44581149969133    2.30183664807504
H         6.59911026559898    5.03665376711764    0.29471049209170
H         5.21456489504965    3.54953508384926   -4.20941409057323
H         6.50232891542824    4.71860588409698   -5.94588922874588
H         7.34082204326455    7.00258824610762   -5.53250383656634
H         6.88363730749070    8.10062091171280   -3.36994777335027
H         5.60456518554918    6.91956870505089   -1.63554369542987
H         0.25241456404024    5.80415913584148    1.47653220672297
H        -0.45799123017290    4.57314487780670    0.40892402790662
H        -1.12380533517031    4.82710825121934    2.03468911365799
H        -0.60573145562399    1.88432214647786    1.34849818652527
H         0.42960493267605    1.25495778422012    2.64237343157727
H        -0.94396047685882    2.32332707606573    3.03789093568858
H         1.48015170635253    3.40987521985291    4.48088791924162
H         1.57896889257273    5.08004453315669    3.89728811951487
H        -0.00258278709482    4.34103855577128    4.20345002890719
H         5.20507590343728    4.33964349017577    3.34174445430645
H         3.68112446018447    4.12817326128125    4.19334304696610
H         5.11732625413372    3.24024079739067    4.73325956518089
H         2.65705450620945    1.31903210556463    4.35960293581346
H         3.42492711700785    0.05352185920013    3.38478572301275
H         4.33802862508164    0.84385816634963    4.69392117338098
H         5.93100647489966    0.69006293537599    2.02125008422446
H         6.38301638871211    2.37449012259635    1.71213947987614
H         6.46425291228923    1.72028158734939    3.36489059310697

