105
CSD_code = ATABOM | q = 1 | S = 0 | Stoichiometry = C56H45NP2Rh(1+) | MND = 7
Rh        2.01519914235817   12.79354655055026    8.66547913118592
P         4.26328752979798   12.34472728457107    8.66170871054610
P        -0.19275702105667   13.24814714937204    8.72946149919165
C        -0.62080136530459   14.70338972315338    7.65426844123289
H        -1.71491005173506   14.79808193532514    7.64297697080828
C        -0.10763875450472   14.56247100849677    6.25525371518950
C         1.23997814118155   14.27753306630919    6.00335507821965
C         2.26841895153528   14.17343362722029    7.03859101116094
H         3.24666927150415   13.99310729873415    6.59151089997652
C         2.31171355577836   14.91495057010043    8.25290591252775
H         3.32071316601749   15.15415874519672    8.60224984834533
C         1.33982983204602   15.91764766406843    8.68469910020366
C        -0.02444799945040   15.88861197212692    8.35944064807027
C        -0.98863657572721   14.71630615637959    5.19024751686989
H        -2.02370381555221   14.95547781555539    5.39194723667482
C        -0.56673923616540   14.56060271759982    3.88341872498924
H        -1.26749324055942   14.67883806949301    3.07165903179896
C         0.75844756314295   14.24491291899753    3.62712960958311
H         1.09822023275427   14.11258920944407    2.61141164796147
C         1.64538829409827   14.10986177494266    4.67436458781668
H         2.68159239717518   13.88127701110710    4.46912716407222
C         1.81677430562610   16.99653562102773    9.43810029883081
H         2.86470446177120   17.02696538225036    9.70180834388393
C         0.98492194775504   18.02126344515554    9.83644641003296
H         1.37911402913800   18.84189016950909   10.41576784041919
C        -0.35614087160199   17.99468822889815    9.48875109188274
H        -1.01534032612351   18.79203706686088    9.79422445361602
C        -0.84987976661212   16.93038192856610    8.75860052087041
H        -1.89923097975170   16.90018836758224    8.50234848200099
C        -1.35264636200957   11.92528140149955    8.28165620062388
C        -1.81162245811996   11.74156791384392    6.98147417739199
H        -1.53386338664719   12.44037295419782    6.20552220293477
C        -2.63231809598472   10.66688501670748    6.68425523033027
H        -2.99593958472958   10.53394970230546    5.67645987485593
C        -2.98616174835179    9.76390785785664    7.67289382794170
H        -3.62701101450889    8.92839153142867    7.43687262339190
C        -2.51475203970637    9.93121393923482    8.96645596797783
H        -2.78765401954592    9.22533490029225    9.73684917401986
C        -1.69617288388776   11.00214476359127    9.26936031610964
H        -1.32031988143800   11.14175116292406   10.27569809629707
C        -0.87872905601700   13.87488835126928   10.29181843953424
C        -2.25464312847346   13.98895120032087   10.46735300011880
H        -2.92866822827369   13.61549175209998    9.70808069763598
C        -2.75670263109432   14.57258793885778   11.61535661670285
H        -3.82422719972622   14.65996425472541   11.75072141643459
C        -1.89305729812024   15.05123448647439   12.58812057869709
H        -2.28969402279374   15.51207045722361   13.47982016518967
C        -0.52331463366591   14.93947509906161   12.41644179756140
H         0.14878354198636   15.31513142317659   13.17340759328474
C        -0.01675271787022   14.35304717951995   11.27131491329006
H         1.05315326615514   14.26650307591052   11.12426845512593
C         4.70679568007253   10.70767633253719    7.84972516621336
H         5.79988240496530   10.63436551832396    7.92429471758145
C         4.08102297929350    9.55194028654634    8.57649705590276
C         2.68921453869038    9.40887266765508    8.67931696968148
C         1.72094210143634   10.26087341298362    8.01328807247936
H         0.70477463039797   10.14812697882572    8.38387597658220
C         1.87236563595651   10.92617164675259    6.83105502359669
H         0.96589134223013   11.29598660049379    6.35582420221952
C         3.02555625760127   10.86055240332628    5.95204043871117
C         4.34039206600539   10.66011570803316    6.39357697682329
C         4.90243104373010    8.59088111098461    9.15634565465971
H         5.97336477668604    8.66102505073308    9.03196017872023
C         4.38193324747792    7.53850063659919    9.88408339616625
H         5.04239492634211    6.81012733021391   10.32810308276923
C         3.00871374762058    7.42957139134309   10.04458586100834
H         2.59125723583106    6.61759199914878   10.62084888961802
C         2.17898320720693    8.35223274933491    9.44455805806611
H         1.10671913414911    8.25266115903577    9.53930086321145
C         2.78054884724808   10.91892164489362    4.57413089405222
H         1.77267998946664   11.10366430283363    4.23255678906091
C         3.79030129312472   10.71734049073470    3.65805926247918
H         3.57812736889384   10.76008812285077    2.60107247292042
C         5.07709078347313   10.44814467417923    4.10106977110271
H         5.87217757799313   10.27314715653190    3.39328289791864
C         5.34354113082890   10.42851574219797    5.45684653095447
H         6.35444335487804   10.25373940596818    5.79691150217653
C         5.49893420348208   13.48026405004109    7.93086547959826
C         5.68333750699007   13.55044603292320    6.55054407488324
H         5.13565995658701   12.89222908531915    5.89358855017970
C         6.58206765381975   14.45038697290547    6.00715098547047
H         6.72041488994090   14.48361082486267    4.93691674835685
C         7.29672785849128   15.30639028349665    6.82807544572953
H         7.99640351225618   16.00857445377914    6.40204005186204
C         7.10539767279974   15.25842323265007    8.19864907730635
H         7.65437822695927   15.92550535809723    8.84605585823671
C         6.21118345108102   14.35731220622150    8.74747912913394
H         6.07382883194927   14.33389962402516    9.81885498946483
C         4.94688876611176   12.18481777547538   10.34930458086507
C         5.99025390490825   11.34283692622236   10.71255977491237
H         6.46362622290881   10.70581993477988    9.98394396781327
C         6.44834717621761   11.32463700077908   12.01921036040889
H         7.25627937726285   10.66254612139770   12.29157611624985
C         5.88647174906313   12.15747093686688   12.97182016186265
H         6.25021391188580   12.14065218620688   13.98789243180577
C         4.86666367818496   13.02491719397087   12.61180386007591
H         4.43942094641998   13.69405194907999   13.34415539608367
C         4.40186918203043   13.03638261894667   11.31053060720680
H         3.60869930889606   13.71830278482835   11.02131639832324
C         2.01635410532988   11.07487254209037   11.36623769177776
N         1.82638186798122   11.76812039147837   10.46955620422148
C         2.24809972371429   10.22795524822199   12.48963038512819
H         2.60405650190232    9.25730745202590   12.14285003216592
H         1.32630006365408   10.09677078331648   13.05601311692347
H         3.00525521290309   10.68089266588401   13.13041252582324

