101
CSD_code = ATACEE | q = 0 | S = 0 | Stoichiometry = C43H54O3W | MND = 5
W         5.44774524990799   12.54938643873746   13.90619062537436
O         4.78465897825901   14.13622798963547   13.48859011323408
O         5.77845221766499   10.74999573966861   13.83173770413381
O         3.72925646803084   12.08595677391638   14.82946763727114
C         4.73863107261935   15.12804394909468   12.60174127031766
C         3.94918354653208   16.26722096135910   12.85293444172688
C         4.03700838259521   17.32004556656770   11.95678836488086
H         3.46599715384117   18.22026710422387   12.10864837980685
C         4.87860600316655   17.24641397131846   10.85841415263895
H         4.96501994848480   18.09565701276318   10.19719053848443
C         5.59514938897070   16.09927367495706   10.59194298057618
H         6.24339878249288   16.08549323913567    9.73060801131320
C         5.51938374477238   14.98414957932413   11.42948266219334
C         6.22993994362391   13.72378669545528   11.10036093291609
C         6.59613844315155   13.52341180426330    9.76349536837595
H         6.29265174835191   14.22809623745080    9.00440130646059
C         7.30162557957025   12.40504475093664    9.37138005047955
H         7.54674056388626   12.25827695907859    8.32936964135153
C         7.69321039499412   11.47485480546390   10.31620579348656
H         8.24903508220009   10.60131699418820   10.00807122405640
C         7.32243488897804   11.63227385538595   11.64952012452734
C         6.54467872930238   12.73783006316858   12.08407033306817
C         7.78858010152802   10.60071004750833   12.60889446957693
C         9.05095836330155   10.03306235751066   12.46207584124050
H         9.71647792791255   10.40987398039351   11.70012164135471
C         9.46747404346926    9.01785814426895   13.29799497617252
H        10.45489663266904    8.59579365369298   13.18580105539958
C         8.61768253529500    8.52533304427904   14.27379139064819
H         8.96428469644977    7.71258062228710   14.88977065258482
C         7.35154619085390    9.05860104943663   14.47094506525632
C         6.96063933226807   10.13719284748238   13.65352484670481
C         2.90111922893252   11.08210990616439   14.56643754607855
C         2.64095677728162   10.67022000120918   13.24236245451925
C         1.75068610160964    9.62877225716134   13.02270119756411
H         1.54178309978870    9.31426179236151   12.01040087486949
C         1.12460936011178    8.99007185381740   14.07453285537693
H         0.43801484649045    8.17906339886215   13.88344369320404
C         1.37157092486793    9.40036474266089   15.37429143062882
H         0.86639730012618    8.90248936491133   16.18732276548039
C         2.24641600210401   10.43621905487248   15.63941911306431
C         3.02119987180182   16.27826752408220   14.06532304717555
C         2.03972979747751   15.10065112724519   13.94398618691725
H         2.56264267979240   14.14452292400350   14.02640836565038
H         1.51766579619549   15.13934187965404   12.98890214160383
H         1.30068816309425   15.14712036574452   14.74191880093364
C         3.81891948662958   16.13428332635913   15.37127065616376
H         4.58289333593855   16.90697096249666   15.43777032108603
H         4.29667429352866   15.14985606389576   15.43944004017948
H         3.14839296204063   16.24066556566711   16.22226528225143
C         2.20540725665833   17.57256498416428   14.14789193628480
H         2.85451376539067   18.43654130942792   14.26868659905480
H         1.54285787248096   17.52769170468554   15.00983144493189
H         1.59175021004362   17.70676458014545   13.26020850352491
C         6.39089418471995    8.52122065341469   15.52733548503473
C         5.09383815596609    8.06811138356953   14.84051858085015
H         5.30812934071627    7.30378098951127   14.09571794558702
H         4.59724895902988    8.90257045654408   14.35030461694708
H         4.40355724658106    7.65416949010678   15.57268579273359
C         6.07886224940976    9.62250034994438   16.55139301907226
H         6.99518756397352    9.95246712659409   17.03818226305873
H         5.40258470384132    9.23910008976321   17.31280340946037
H         5.60582589110017   10.48790070662253   16.07213974844006
C         6.96661318133463    7.32092318501640   16.28618268992660
H         7.86678377220619    7.59416784008823   16.83159615880796
H         7.19309615454615    6.50079691131583   15.60908714718741
H         6.23212273768039    6.96766267700148   17.00718765392357
C         3.29636802031901   11.38166787940233   12.07784700570459
H         4.02663947087954   12.12168109000291   12.49980797963148
C         2.26417884684053   12.15660687550975   11.25376675997021
H         1.69452456540035   12.83209382992980   11.88874954905493
H         1.56705416437239   11.46937967632604   10.77857798897998
H         2.75792919567640   12.74025001582039   10.47800450845021
C         4.08472607063510   10.41909988346094   11.18557599546385
H         4.83010567151792    9.87566759303618   11.76696278582962
H         4.59461391278331   10.96689460032163   10.39366572277214
H         3.41915030684336    9.69231981039557   10.72434866995715
C         2.51542800969874   10.95946177281473   17.03127324791726
H         3.55844851135584   11.30057775191265   17.05350862928935
C         2.32083138075665    9.91524983483539   18.12676405670703
H         2.84997965056464    8.99650434782466   17.88311572224266
H         1.26693537677598    9.68380402057911   18.26420222126332
H         2.70572617578491   10.29532602361627   19.07110408496064
C         1.62678763262838   12.18188342442695   17.28660238088883
H         1.83602641662846   12.95150699808384   16.54734734536927
H         1.81771933166855   12.59036050865145   18.27704938229956
H         0.57539563242315   11.90783243652092   17.21760911186522
C         6.97560616441085   12.95179861933024   15.11011771933849
H         7.41766036989710   12.11644847331367   15.68580513694214
C         7.77482069970500   14.19409285446258   15.44061234045380
C         7.50848281878460   15.31680198405207   14.42850018435928
H         6.47526699583431   15.65148744863646   14.48603108514502
H         7.71349226547759   14.96363808901495   13.41730380917302
H         8.15204005112064   16.17157780896203   14.63341355865141
C         9.27517575974400   13.85651088353097   15.39588515223193
H         9.52298502197722   13.10165347342835   16.13899178749485
H         9.87649054886136   14.74233963792914   15.59272703544902
H         9.53455873074110   13.46671314445707   14.41390324309119
C         7.41890469728690   14.69358693328732   16.85279913883234
H         7.66044805989241   13.93545811854641   17.59458770308633
H         6.35329239187584   14.90622434020722   16.91596390451380
H         7.97318767213057   15.59938335533601   17.09239368940696

