46
CSD_code = ATALAK | q = 0 | S = 0 | Stoichiometry = C23H19FN2Pt | MND = 6
Pt        3.33009125555491    2.70624723949404    0.50003585978754
F         3.43784719508903    4.64785534962041   -0.17112751662486
N         2.04793187920326    3.59385418949894    2.02517627278982
N         5.11834514905609    2.93583156399933    1.64822885912346
C         1.55376443400460    2.51497719673586   -0.42047093180974
C         1.24173494534482    1.83882806788835   -1.59331802383313
H         2.00801415600017    1.29721884807510   -2.12809486003055
C        -0.04839321819818    1.84162004255935   -2.09869334916940
H        -0.26768497269913    1.30949819404575   -3.01334860760074
C        -1.05867518686874    2.52039496269017   -1.43578770703386
H        -2.06549116503503    2.51522335525177   -1.82695883820348
C        -0.77362892012860    3.20394544512913   -0.27220419015164
H        -1.56871939411261    3.71877861292480    0.24681565573471
C         0.52504170670356    3.21361888832626    0.24143577828381
C         0.86975647000977    3.92421664903586    1.47151549380245
C         0.06460594622845    4.90201648219951    2.06261291503613
H        -0.86252498635891    5.19265455591852    1.59639928798964
C         0.47943036547934    5.51971398967949    3.22472729963558
H        -0.12741488139381    6.28588891101510    3.68441509893612
C         1.69147594243941    5.14728428078255    3.78979109281273
H         2.05117572579065    5.60124764881194    4.69935711355148
C         2.44226205565063    4.18340143725764    3.14308536352865
H         3.39633439330907    3.86758893269258    3.54892132003319
C         3.40614632493694    0.89390271352079    1.36296239735361
C         2.51081171962173   -0.15777029998830    1.22229703407241
H         1.68503246646880   -0.06857451355488    0.53009087543948
C         2.65489389607180   -1.32616163883156    1.95299704916890
H         1.94472328854245   -2.13094240409309    1.82761146312217
C         3.70683938958473   -1.46598437062289    2.84469998475635
H         3.81886895387408   -2.37608252971350    3.41567756298652
C         4.61425059506449   -0.43865068442718    3.00105748767424
H         5.42955844116643   -0.55940231742016    3.69913489371150
C         4.47761295426433    0.74224834296464    2.26821781266183
C         5.41364822962847    1.85912626154772    2.39533811714578
C         6.54861511747311    1.87467624176718    3.21029305248494
H         6.80055908795850    1.01684748088612    3.81223685220203
C         7.35360064012391    2.99775105519719    3.23817658067889
H         8.23409748128483    3.01866078200259    3.86373156197471
C         7.02120178125507    4.09423941234859    2.45432843771651
H         7.62725099066669    4.98569499663043    2.45038614815682
C         5.88537260399400    4.01285209737311    1.66767827643037
H         5.56903149912010    4.82864710161113    1.03001053072648
C         4.45400080383427    2.04291313769844   -1.10055809707541
H         5.51833199352118    2.14500310928868   -0.87240246687011
H         4.22396485494369    2.69081159740580   -1.94826296822474
H         4.26270799153116    1.00538958477637   -1.37661597288201

