97
CSD_code = ATANEQ | q = 0 | S = 0 | Stoichiometry = C41H52N2OZn | MND = 4
Zn        4.29670805184567   16.34254730790357   18.70873569392386
N         3.42100219000889   18.34697862166914   19.20151053362005
N         5.55345709008414   17.64773495559092   17.35073410119083
O         5.15951488379178   16.29311323195681   20.36295303007424
C         4.60083179735738   16.69228866007211   21.47923984420373
C         4.60697537744954   15.86705633391645   22.62954467513813
C         4.02966169509661   16.31487008680841   23.80264180898158
H         4.03216451494468   15.66787481771290   24.66331165783394
C         3.45428801445046   17.57441933260149   23.91009890253886
C         3.47377441223296   18.39286748893638   22.79018997573214
H         3.06686217495257   19.39394778511681   22.85887409844143
C         4.01035874831644   17.96900993804892   21.58949134314591
C         4.05413424457053   18.90044825385795   20.40882286268250
H         3.59532044767119   19.86625138608294   20.66778989081218
H         5.10655939827512   19.07522835120140   20.17274163253413
C         3.71757784107860   19.16337404374637   18.02980834514197
H         3.49620009826747   20.22529708997093   18.21716952455684
H         3.07916501408168   18.81442306787275   17.21467834142365
C         5.17990137014254   19.05097897358867   17.57646797232320
H         5.82165556797203   19.46726975460689   18.35497799525645
C         5.39355900903066   19.80700796422222   16.24309900541456
H         4.49863841239581   20.36979366208994   15.97940798751624
H         6.21775068843706   20.51421469937537   16.32208327543873
C         5.68676292950808   18.71581519708796   15.20863087457237
H         6.74707095285744   18.69189603794939   14.95681103719794
H         5.12818214975083   18.85645892193436   14.28566145690136
C         5.27476583768934   17.42864135143594   15.92858495397202
H         4.20318715187659   17.26031596299151   15.80865186741224
H         5.79682169438717   16.54925710660953   15.56017188735027
C         6.96298223771856   17.40402502756177   17.68454295693916
H         7.12346185757427   17.77359276986000   18.69897891636382
H         7.62695638958819   17.95262549506479   17.00238500109080
C         7.31604439966608   15.92589496756319   17.68457857090180
H         6.66499526847472   15.39533348742404   18.37778283754143
H         8.34013478753164   15.80412954806795   18.02752256347645
H         7.23207248333697   15.47941218977704   16.69689139704614
C         1.97013300783786   18.17036133177482   19.39540549142223
H         1.85048427916682   17.54611057634598   20.28484369366895
H         1.58823535524320   17.61842815438028   18.53053635638038
C         1.17915519131344   19.44418044578426   19.56929259511428
C         0.86344028242396   19.90432173415934   20.84195195594900
H         1.15573354935671   19.32588981287346   21.70454335873405
C         0.15894365712441   21.08253037922534   21.01543273074985
H        -0.07494450046401   21.41884671067377   22.01459204806575
C        -0.24856705475640   21.81622473084144   19.91493699890274
H        -0.79747448166961   22.73691991465685   20.04689201070113
C         0.03679832488779   21.35446091661506   18.64116730850915
H        -0.29550695505874   21.91092541797077   17.77665965741923
C         0.74149297726124   20.17603340774190   18.47047009749397
H         0.93687503036389   19.81629206441136   17.46996014388066
C         2.85161252450135   18.11879398708897   25.19691613336823
C         3.86596655836275   19.10042713813701   25.80030047770598
H         4.82090834979429   18.59289765326958   25.92318548460493
H         3.54106736161524   19.45404237413959   26.77682286432196
H         4.02024096045983   19.95267659341601   25.14271207908499
C         2.56311459969366   17.02647927812885   26.23739844557545
H         1.95009154187593   16.23539754295696   25.81278613309424
H         2.02392311376660   17.46107925601289   27.07794621590801
H         3.48815037428331   16.59653647860527   26.61409410135640
C         1.51874266474680   18.76863658522874   24.86343680983694
C         1.14412337370973   20.02739267835694   25.31229240029741
H         1.81749275521655   20.61691135786455   25.91453316439603
C        -0.09809693595032   20.55366713746660   24.99560325398875
H        -0.36714000287701   21.53742221664930   25.35482353381202
C        -0.99076688224620   19.83011520798167   24.22672309875370
H        -1.95925941457555   20.24102343775816   23.98040722065326
C        -0.63052511419499   18.57157427456573   23.77376414063275
H        -1.31748107620592   17.99804107424263   23.16787369838471
C         0.60924101480186   18.05027019796097   24.09024533905205
H         0.88832110928943   17.07293458493180   23.72218402230334
C         5.22051852671981   14.48017308195242   22.49739559225148
C         5.47943674608178   13.80022740625322   23.85106295887787
H         6.07923922176330   14.43589503966224   24.49820348983402
H         6.02551271714729   12.87244930057313   23.68666085421976
H         4.54485302985681   13.55762334351424   24.35212649556398
C         4.22582734820871   13.61867673694889   21.70684569926090
H         3.24919628638192   13.66734110650819   22.18611679319338
H         4.53927752109750   12.57721149105114   21.67950717087191
H         4.13099720340119   13.99400533121828   20.69009492744202
C         6.57383145849597   14.59984163109113   21.81968154454929
C         7.02168599517142   13.70890740628258   20.85395758375464
H         6.37844868302703   12.91984038521072   20.49711463424705
C         8.29613218736957   13.81746154284864   20.32395644970486
H         8.62296767029272   13.11351654305017   19.57060429365905
C         9.15001838638979   14.81778198391863   20.75098264356473
H        10.14556882084299   14.90088050376939   20.33710852772105
C         8.71670831827584   15.71054093674587   21.71656460133730
H         9.37478425250280   16.49734988855398   22.05953472129038
C         7.44713177180511   15.59566923838077   22.24829600345576
H         7.11662579682359   16.29954570121579   22.99919508166849
C         3.23993974839131   14.92173499732290   17.72319250164715
H         2.47818417763301   14.49308095020936   18.37771304054806
H         2.68703721916917   15.35527502464937   16.88736113396650
C         4.07325778955277   13.76153820235364   17.16965003651493
H         4.79260968067782   14.10938385922997   16.43099932218334
H         3.42885535442947   13.02342397834808   16.68643641003716
H         4.62172936701311   13.25898586670438   17.96283760577864

