76
CSD_code = ATAPUH | q = 0 | S = 0 | Stoichiometry = C31H37O6PW | MND = 6
C         0.45945145054793    3.20070377077254    4.35413559484207
C         2.62686555853340    4.87131850091491    3.49161930629442
C         1.73818317850352    2.70158931626356    1.99768038193878
C         4.21065507347375    2.61177002070801    3.11192744872059
C         2.16386085152313    0.94384536086143    4.01371880188891
C         5.16349179474481    3.33247257794899    5.62242123650999
C         5.69845362515198    4.51718589178666    5.12107271498377
H         5.10312779885128    5.41976469903378    5.12407770493447
C         6.97977621021354    4.54886625093225    4.60323605824012
H         7.37975521195248    5.47553140880874    4.21834117856381
C         7.74438794529465    3.39476754055416    4.56769374038776
H         8.74391699673507    3.41835011817960    4.16038740210153
C         7.21321065128942    2.20647666987976    5.03908591535090
H         7.79632100572682    1.29830685234139    4.99451255845643
C         5.93044390173725    2.17170147444347    5.55564209459852
H         5.51971882698240    1.22823067430053    5.88691806155454
C         3.61322324959590    2.05452882163809    7.58053498877896
H         4.68957011914740    2.05383409567476    7.79192102915152
C         3.13460600485303    0.62625804481824    7.27073648839317
H         3.27552141409639    0.33133142333361    6.23062804950511
C         3.85270900545129   -0.27763223797701    8.28229104312659
H         4.92490720234838   -0.08056495121817    8.31372696829551
H         3.72272559856738   -1.32878028425880    8.02910840931051
C         3.15635647395583    0.08617280817957    9.60913704921149
H         2.70280179486749   -0.78300364887086   10.08315661592727
H         3.84908700172028    0.52195286307068   10.32948069991052
C         2.07137994991771    1.10108367625095    9.19193829933547
C         2.84138495571758    2.40200100426807    8.87606890194006
H         3.54828377082175    2.62062541512347    9.69592779867952
C         0.71194946916168    1.50043362747813    7.04118174462506
H         0.54296396907700    1.11646370858793    6.03651095222738
H         1.07387345717350    2.52150661599336    6.97861080419217
H        -0.24477915842072    1.51865634638766    7.55942250386636
C         1.68007357114501    0.59001558974292    7.78498437854623
C         1.06107005894390   -0.80926825434631    7.75595820913023
H         0.02461209709630   -0.75844075711085    8.08184038984938
H         1.57374825348749   -1.52648023969024    8.38587775016685
H         1.07244190906860   -1.18440299026979    6.73450711702345
C         0.96775005044383    1.28597986128175   10.21361007364505
H         1.39304061538277    1.56513328137517   11.17559056948644
H         0.40706465873092    0.36287232660831   10.33708387292051
H         0.29346951171581    2.07567999877755    9.89535445169135
C         3.44146168251091    4.85181141815987    7.22870480663068
H         4.50914032388772    5.05500183044812    7.37536235602075
C         2.75069953789834    6.10413049699142    6.66680618893594
H         3.25982644455105    6.54972432737971    5.81268124356441
C         1.28141005156705    5.76160873931690    6.39374892811309
H         0.81140103951046    6.51455112536618    5.76174278666531
H         1.20025116422059    4.80447639347133    5.87909084071291
C         0.65129178144417    5.69726881220247    7.79507366703285
H        -0.11747762333932    6.45506701074700    7.93962307103890
H         0.20787423544003    4.72680823409506    8.00436326351516
C         1.84813325959097    5.95397503223345    8.72042224895509
C         2.74776504859382    4.70083939170879    8.61047770572149
H         3.49942587343542    4.71023162694699    9.41817040938553
C         1.92906608508493    8.32113365384558    7.66411206055606
H         1.75881906780728    8.84035178602929    8.60465799970079
H         0.97378320345290    8.18973314033503    7.17128006933818
H         2.54673263884926    8.95865039199257    7.03444012617763
C         2.66175427657722    7.00343417475411    7.92025550747346
C         4.01291695761436    7.38009726151028    8.53379657169619
H         4.63752350253032    7.85549965738869    7.77951350240432
H         4.55719053164100    6.53454958490518    8.94072326142543
H         3.86147609521362    8.09422986890064    9.34031473355928
C         1.47107341652119    6.28695647039185   10.15019980062149
H         0.81356319496680    7.15231140731063   10.17881275470940
H         2.35688807507732    6.50134641057756   10.74423189385898
H         0.95086498038971    5.44206222980663   10.59550907753950
O        -0.67087671208021    3.32654002160201    4.46638243316325
O         2.79336099437852    5.95423315505684    3.16491889067912
O         1.38381183164223    2.57137748547274    0.91709520740698
O         5.16591377847047    2.42262139865876    2.51403173728563
O         2.03560335450016   -0.18959733546219    3.92350893679703
P         3.41651122889184    3.29005439855442    6.18834134695663
W         2.37852558228411    2.92309093277493    3.85113541658913
O         2.00024001148446    3.51919219394290    8.73651179748382

