125
CSD_code = ATAQOD | q = 1 | S = 0 | Stoichiometry = C65H52CuN4OP2(1+) | MND = 4
Cu        5.14494272097966    5.11044497599265   11.04044157277594
P         4.45864277882936    3.01398089226542   10.48891295551888
P         6.16784832236652    6.21904120353613    9.33220629599225
O         4.30282729288698    4.63811513561154    8.29208228927448
N         3.37376439784083    6.24326039861705   11.39325411755502
N         5.40228236511722    5.75566158471147   12.94322522854802
N         4.47782733349392    6.63080411788736   13.36132881997610
C         7.77113580045227    7.02475715642759    9.62561306155984
C         3.97436472789562    1.82161187226344   11.76897293596716
C         5.71387575659453    2.14025831089341    9.49922487343664
C         4.69277428469520    0.66787827371053   12.05776757934886
H         5.55315062613368    0.40269170627510   11.45944124862605
C         5.12305936185672    7.62758615216834    8.84704454721595
C         3.38202065133752    6.90197012293481   12.55143390239674
C         6.34315809418622    5.68677161681325   13.87238143511855
C         1.36057960416462    7.34519710549475   10.75530137831641
C         5.35302314804659    4.50574811154834    7.42791390977366
N         0.38955040512592    7.48824624330972    9.76435958899626
C         4.81967057082586    7.13430943751986   14.57511403578146
H         4.21526813336727    7.84943389067093   15.09338525001330
C         2.88711385323232    2.17907236241947   12.56575732097608
H         2.35604152610114    3.09864188359231   12.34816058260246
C         5.39252365563376    1.02149716846451    8.73512643425870
H         4.38533092408030    0.62711344135199    8.75495085881801
C         7.60150920494654    5.26627607110656    7.02631531540474
H         8.44949718216833    5.87566763375594    7.30233633155180
C         3.19991461703726    3.80988655175164    8.23909230281867
C         3.05572234470096    2.93555874141535    9.32075061958728
C         4.50283380911615    7.75883972244931    7.61149725871923
H         4.68717196074531    7.03321813802637    6.83189602558777
C         8.71747017746208    5.15517713446284   14.32328134146748
H         8.80079082970486    6.06763319353523   14.89399878310067
C         5.42080519276875    3.65105278080249    6.34460444551788
H         4.58858049662716    3.00840628578042    6.09838564455518
C         1.11147154241571    3.08969906875454    7.34393386561499
H         0.35158151377758    3.14518831103757    6.58056196732213
C         2.40934302998602    6.45305283796078   10.52612391825263
H         2.45657395801380    5.88676110454408    9.60723440127070
C         8.21754658114745    8.11236200447189    8.88053054976810
H         7.59915163725826    8.51166610701125    8.08809915001276
C         2.35583969932875    7.77604228108843   12.90376203358198
H         2.33863682981742    8.26031892706508   13.86617648210813
C         7.50040397441170    4.81714348335784   13.73354599708124
C         7.66728444161389    4.42098016234509    5.93001239229777
H         8.56884380880912    4.38071579756759    5.33898365714349
C         3.42501146436134    9.77111900423330    8.36376002457367
H         2.76223532687309   10.60100495763912    8.17313126561692
C         7.40581317068124    3.64013336901797   12.99020184614883
H         6.45346014091322    3.36540693538690   12.55335276472448
C         0.46816802712148    7.24005783224950    6.49437776987729
H         1.29525085647434    7.16463523239393    7.19823776941926
H         0.66696625184704    8.06467041562561    5.81329875573549
H         0.41037656869680    6.31716248069285    5.92100486293837
C         6.43748313225863    5.32283806539983    7.77463057014832
C         7.97520645421080    2.04335364244157    8.69046660748730
H         8.97772370240999    2.44329764203860    8.67087479819554
C         7.65225119881557    0.93205332202183    7.92983605539334
H         8.40443840833848    0.46192767200517    7.31507433999637
C         1.92038462731202    2.14324919163817    9.40399301076036
H         1.79481310708489    1.46401218499898   10.23469614020127
C         0.00174824945555   11.14032897241153    9.31242673981345
H         0.31039187993654   12.05546353633578    9.79458897688743
C         1.33270142440738    7.98852769842109   11.99938187270385
H         0.49647009807606    8.61301499275404   12.27226000009216
C         4.88710529630480    8.57803777919878    9.83891288648047
H         5.38321176839685    8.47046616512654   10.79648904532663
C         6.36348859463950    0.42132172600733    7.95552135301897
H         6.11500596322148   -0.44699959157030    7.36381844122082
C         0.41915536831582    9.92668423091073    9.82373118534656
H         1.07044095544567    9.92269760806560   10.68215153291450
C         3.66056547592649    8.83212669907410    7.37436605278714
H         3.19064615398710    8.94055759684791    6.40848185252752
C         9.44890072890149    8.67492906819538    9.16164856663517
H         9.79856950256322    9.51747313223429    8.58385848295215
C         6.00877520769378    6.56027697914317   14.93370260816311
H         6.55736636133665    6.71988010026130   15.83809561400625
C        10.23491944218986    8.16186541384308   10.18273822692272
H        11.19393212039911    8.60829984778925   10.39760440271304
C         6.58851883068712    3.61987975121043    5.59694844286973
H         6.65249812070018    2.95472134018244    4.74986264196491
C        -0.40815919623245    5.26152536801771   10.26868709915762
H         0.12769371013695    5.28635306657349   11.20621383908416
C         2.49423732046162    1.36521983446333   13.60991523482298
H         1.64329679505108    1.63578788241695   14.21748526867353
C         7.00803293210216    2.64766740155704    9.47256548911007
H         7.24677657395658    3.52445317140050   10.06348423921321
C         4.29789590699095   -0.14052469533952   13.10970165043196
H         4.85177460235813   -1.04071373877431   13.32988513392143
C         2.23549267081077    3.89560041201754    7.25157602140305
H         2.36414761884990    4.58471316108892    6.43013197714190
C         4.04473496953465    9.64492234041438    9.59800312792206
H         3.87243129202754   10.38337022644125   10.36729104519361
C        -0.86589886099744    7.48050953868882    7.23529304116018
C         0.03344984954675    8.73068983078931    9.22401443944274
C        -1.84841642432088    5.22472444777182    7.92233529404719
H        -2.43006473073773    5.19152841263997    7.01635416583083
C         9.79020733994552    7.08324097535486   10.92992913836238
H        10.39752939095646    6.68521271303300   11.72930809670126
C        -1.91384382810334    4.14627757001262    8.78650101055000
H        -2.53857856036396    3.30076630287180    8.54417399721687
C        -0.81324589660989   11.17406937100444    8.19763835723580
H        -1.16859961036103   12.11459008913686    7.80724086534700
C        -0.70341021030166    8.76297490518843    8.03099127215943
C        -1.98296471274572    7.56641930666226    6.19470624469784
H        -2.03625675684219    6.64662347026866    5.61903152171946
H        -1.78257403121271    8.36593781101836    5.48730117203097
H        -2.94459783373635    7.74405610943294    6.66994990141410
C        -1.05546675878020    6.32844233321260    8.19865803405539
C         9.81933907903429    4.33697250021981   14.15803551279601
H        10.75996821825891    4.60627694361224   14.61418726442114
C         8.55910421144789    6.51709226140859   10.65341612791196
H         8.19398813049209    5.68053818489534   11.23622173239186
C        -0.33446959630132    6.34700466414146    9.39638078564418
C        -1.18068751189742    4.16134555338548    9.95848382304302
H        -1.22552985434895    3.32993325368148   10.64514923815718
C         3.19917650595161    0.20176073487608   13.88029677988441
H         2.89454426226282   -0.43410532800631   14.69735172872946
C        -1.13918823366873    9.99118435155042    7.55745182472621
H        -1.73476051974835   10.04361172549938    6.66185977998227
C         9.72025390303347    3.17479299846418   13.40960217579428
H        10.58362498989360    2.54018910022680   13.28140801967379
C         8.51050624710837    2.82662605439608   12.82929236510807
H         8.42830119678367    1.91908517725331   12.24993331060988
C         0.95726760625225    2.22105580130282    8.41106939803073
H         0.07989465702103    1.59628390871503    8.46954524297323

