134
CSD_code = ATAQAO | q = 0 | S = 0 | Stoichiometry = C53H74ClO3P2Rh | MND = 4
C        -3.21978243045930    5.55679761033385    1.16071632171222
C        -2.46548726940110    3.39396043499149    4.73588240159093
C        -2.50406329053333    2.57295774740192    5.85631626494837
H        -3.44598936406432    2.29512807475300    6.30980597373092
C        -1.33173887639492    2.09230701447269    6.41368549913195
H        -1.37707954637867    1.46869463073681    7.29518466264943
C        -0.10730916260389    2.40312523081122    5.84828741986941
H         0.80411287706701    2.02859814418574    6.29053857383150
C        -0.05906830199490    3.19170834874182    4.71076247590806
H         0.89060250526851    3.42924719494046    4.25362898684777
C        -1.22965127031311    3.67817600824423    4.16182276291303
H        -1.19656423321525    4.30400448783323    3.26817805340348
C        -3.74429266167312    0.71125147288860    1.37175546568699
H        -3.02688659052496    0.31985809897468    2.09355834517627
H        -3.35602510381456    0.49715381986348    0.37707467936733
C        -5.15867691902397    0.13274168083529    1.57412858047553
H        -5.22081889923015   -0.48892930738813    2.46806578834806
H        -5.47354356913056   -0.48164870099753    0.73144179884314
C        -3.98222915127474    2.21381820837290    1.55882451837662
H        -3.15190676817342    2.83859983839890    1.23097093883928
C        -5.28103022048871    2.04549585156879   -0.66284222090297
H        -6.22486160580417    2.31934246370318   -1.12987536274543
H        -5.11367487874125    0.98993339706109   -0.84385812940195
H        -4.48721758091393    2.60788482528377   -1.15015022980195
C        -5.32431171154202    2.41417269794197    0.82223702715955
C        -5.89000467785822    3.82958718445271    0.89815330509231
H        -6.97401434700623    3.80169467756899    0.82200135676315
H        -5.51051937462537    4.42276122291427    0.07043141676970
H        -5.62255120372104    4.32751096602366    1.82635618089348
C        -6.06132147856599    1.37849465049208    1.70608623852454
C        -7.52444220783226    1.10441009674184    1.41894658786983
H        -8.12111634515442    1.98663832642608    1.63229054772130
H        -7.88055086715768    0.29138466778675    2.04891980451529
H        -7.66093576652082    0.82236220799180    0.37782507224834
C        -5.80422676367152    1.92884565768830    3.12280726514925
H        -5.93321786725392    1.13162136225774    3.87689870769004
C        -4.33149564267872    2.38297323532680    3.05039937298611
H        -3.71707873571646    1.68311870463422    3.62886019669801
C        -6.34766795228526    6.21096458169054    4.26682535617675
H        -6.52064242523822    7.27004486067078    4.44925277318336
H        -5.62449431484731    6.14345277330675    3.43966811161779
C        -7.65183519966897    5.45048028299731    3.97402395142237
H        -8.52386838301534    6.10276159460880    4.01896864051726
H        -7.64536584011568    4.96752357883680    3.00102181897171
C        -5.81157917405579    5.52408958389427    5.52510350041857
H        -5.09622689444684    6.12452905689270    6.08027016245470
C        -7.89555635208661    6.39871389931319    6.73361338884219
H        -8.85110879000960    6.09394290389283    7.15572585954304
H        -8.08702073308639    7.09364994210497    5.92534721435173
H        -7.33743117055254    6.92670090920626    7.50430651289124
C        -7.10101548113992    5.16784954264941    6.29394238526932
C        -6.87785565096795    4.33272697771472    7.55766569016286
H        -6.50422389114389    3.33419679925156    7.35724727065652
H        -7.81441242035772    4.23044481628521    8.10229329757470
H        -6.16471582164921    4.83887223401749    8.20574205630077
C        -7.70502320708626    4.39911772826174    5.09536687235228
C        -9.06284765493765    3.74929997021918    5.27462896765017
H        -9.32749057960468    3.20345894504584    4.37183765210884
H        -9.82439001544893    4.50292999662521    5.46068265657173
H        -9.05007538852844    3.05209085601988    6.10981497665288
C        -6.58769960687948    3.37861307393087    4.77228521352139
H        -6.69524127842770    2.48008081966740    5.40605755685251
C        -5.27687993406388    4.13407201343755    5.13356507200983
H        -4.82129692932228    3.68851118990655    6.02197483587325
C        -3.93239747931481    8.98376212299183    3.40054915867976
C        -5.07899373405542    9.07252125898408    2.61181810144787
H        -5.05437057588784    8.72028567634865    1.58914139645112
C        -6.25000483331814    9.59919041538779    3.12401291259396
H        -7.12745837970892    9.66811592577418    2.49707196096762
C        -6.30199734879394   10.02376510732571    4.44213061038455
H        -7.21665335545967   10.43355787726894    4.84553480615354
C        -5.18138187231361    9.89849499137692    5.24510806572745
H        -5.22268377641755   10.20200924297300    6.28120936382937
C        -4.00556022690030    9.37960732255188    4.73189059912659
H        -3.15342711431724    9.26099046649459    5.38381673395261
C         0.31280114114623    7.08653924840117    3.91350505377160
H        -0.43132889561431    6.60334789402213    3.27077674436943
H         0.65608142459260    6.33891038927679    4.62740058019033
C         1.46062046476213    7.69912615259201    3.09487759807744
H         2.43444816519400    7.31124233941766    3.39323123175395
H         1.34590496524275    7.53060569288220    2.02710644985011
C        -0.29987857438202    8.29243423189028    4.63445066065756
H        -0.88268784639391    8.02222322964656    5.51135678577594
C         1.94048343145296    8.55101869614007    5.85371837118295
H         1.50483751296954    8.48422850220789    6.84871566702248
H         2.83344649828720    9.16970549486899    5.91611968316466
H         2.23805877361590    7.55429153043988    5.55275406084845
C         0.92690823673697    9.18863559012234    4.90228270761955
C         0.59427154375303   10.56035050656326    5.49452148225665
H        -0.00758585065121   11.18253991439842    4.84081278483951
H         1.51371082048804   11.10023637877942    5.71201752195231
H         0.05325360436699   10.42921594724653    6.42999838992354
C         1.35348587105384    9.19818248358962    3.41392411051911
C         2.57695280724794   10.00545007401396    3.02742429681702
H         3.46487171649438    9.60798383248366    3.51341879445411
H         2.45867863035743   11.04825984436519    3.31431972437183
H         2.71946378046074    9.95720629543169    1.95020706606544
C        -1.08266634621457    9.11118948288862    3.59445024645053
H        -1.60506378768805    9.93872651337987    4.08597255318759
C         0.06371654951610    9.68973810902870    2.71834258248439
H         0.02726021950510   10.79354160173532    2.73501359672716
C        -2.06912688104601   10.43522745079836   -1.47108955586228
H        -1.91289006847501   10.51647335794347   -2.54610371803931
H        -2.06416378157247   11.44780644336601   -1.06612566269399
C        -3.37094011109037    9.68438942925049   -1.13140538790931
H        -4.09796372905562   10.32272286026278   -0.62827675604279
H        -3.85161872463300    9.28040363288590   -2.02136726729846
C        -2.86690807794302    8.55995146198493   -0.21938442209804
H        -3.59006078420969    7.76085111030963   -0.06216683366918
C        -1.74049335094262    7.63916393717368   -2.34574391257088
H        -2.11128279811450    8.39293533030299   -3.03087726099041
H        -2.44041404988218    6.80606395258144   -2.33972597606485
H        -0.78879100636410    7.27724280334889   -2.72910865398855
C        -1.55091941771731    8.14978437618175   -0.91547094458618
C        -0.73830412382546    7.08506480269932   -0.18257663912693
H         0.31506349116665    7.18798356546260   -0.43084867203256
H        -1.06069125414499    6.09453422809465   -0.49207474390004
H        -0.84361157693308    7.15744681539816    0.89668065652693
C        -0.96069314754206    9.57733485055647   -0.82486581834856
C         0.41595173378249    9.82328868574311   -1.41004713613870
H         0.65625054037114   10.88369074889833   -1.35995361488563
H         0.44727464058434    9.50896527428839   -2.45042578797382
H         1.16770717508027    9.27715090395074   -0.84770013750317
C        -1.04575583424128    9.85868903751037    0.68835001825943
H        -1.03022337572256   10.94712656500300    0.87717630570572
C        -2.41683670160255    9.25878737809854    1.07876305119022
H        -3.10783389236976   10.08011928407154    1.30158078320978
Cl       -2.82017185741165    6.40073935839350    5.12563845717380
O        -3.23303849375612    5.19952278427656    0.06207420762655
O        -6.69050749766575    2.97002145048755    3.43585160918861
O         0.03432586712749    9.28611167368832    1.37743027578784
P        -3.93245665669675    4.04991185974953    3.83581561645945
P        -2.43526055348002    8.22564811452781    2.64853371626838
Rh       -3.09999747137942    6.01491492464193    2.91719330787008

