51
CSD_code = ATASOF | q = 0 | S = 0 | Stoichiometry = C19H26Br2NNiOP | MND = 4
Ni        8.35975167782645    8.46600980082856   15.06642358758033
P         9.23609336595997   10.34709631584936   15.71002593861848
N         9.89493801856405    8.48558826279199   13.75644587814377
O        10.29039558754430   10.63758117716374   14.46025974804878
Br        6.67761218792307    7.80070640157260   13.63106594415881
Br        7.24747208477382    8.02676724579936   16.92593092513725
C         9.32914973667673    5.87028797732314   14.68937000192207
H         9.73815402424533    6.51920474551030   15.46881863328981
C         8.65703401876978    4.71719260289654   15.05000881609327
H         8.47323768778665    4.50852848185879   16.09318915911454
C         8.20038673043222    3.85002154905309   14.07051205855273
H         7.65505675350215    2.96200342583941   14.35102363298374
C         8.43578139803951    4.12626737512598   12.73361989341011
H         8.07301268820958    3.45392127294588   11.97106925195463
C         9.11295292566236    5.27381944292685   12.36565341068012
H         9.25233401848026    5.50997302251647   11.32147292077538
C         9.55683769727862    6.16371852358302   13.33953394744269
C        10.19918187665399    7.43197984848031   12.98410470774043
C        11.10476403066998    7.55738665555924   11.93636271394926
H        11.33944131651286    6.69967981346772   11.32815268617761
C        11.70559148840071    8.78348674033081   11.70771448429412
H        12.40168927588508    8.90807300045380   10.89254888522738
C        11.43289390280896    9.84566458779493   12.55096824658057
H        11.90065571987093   10.80933367605496   12.43880166856193
C        10.52264078017074    9.64266282309318   13.58214691440185
C        10.42728313900571   10.48475010095475   17.16246444911787
C        11.50931049627056   11.54411807906558   16.97596411334101
H        11.10803103383133   12.54970718113552   17.05168947544552
H        12.00354016430533   11.43933647736840   16.01211213692716
H        12.26123350791989   11.42361566268134   17.75514345074501
C         9.64274840235876   10.71635042506124   18.44984477418895
H        10.29502499448903   10.56320691946822   19.30844146820231
H         8.81078774188768   10.01769041948176   18.52835874092248
H         9.25885639782447   11.73258317294837   18.50022795199491
C        11.07775565141507    9.09649604580487   17.21097295026727
H        11.78076366714686    9.03416967066549   18.03997525248099
H        11.62649881211319    8.88850383580638   16.28995088499775
H        10.31875129040124    8.32570596197236   17.35920683648840
C         8.11507975474067   11.83957417981305   15.47403429726950
C         8.84661113386037   13.16539170294291   15.64348220731137
H         9.76723884747848   13.17935575486635   15.06280608656358
H         9.07665954978950   13.35958136944393   16.68831644971840
H         8.20871439775258   13.97376499606675   15.28747543962195
C         6.93641482429456   11.72668137699166   16.43742994483942
H         6.23946362590794   12.54395613185008   16.25910170696782
H         7.25177643158936   11.76825948191451   17.47625704417872
H         6.40132593788873   10.79083735637775   16.28158580954935
C         7.59132776095136   11.70550799022118   14.04002688732938
H         7.17069452189147   10.70938712542607   13.87268262245758
H         8.38009446794417   11.87981417048234   13.30910203626668
H         6.79835445428916   12.42969964237521   13.86332292797178

