49
CSD_code = ATASUL | q = 0 | S = 0 | Stoichiometry = C19H25BrNNiOP | MND = 4
Ni        6.56542482715021   21.11329036233639   10.08105699150657
Br        4.43723386128292   21.50674998278182    9.73175899111070
P         6.31705591164530   19.89721849995713   11.91219362022697
O         7.91174790320144   19.57541807253484   12.27717356935151
N         8.41862175386943   20.79229346958260   10.39830815452043
C         7.20935273320320   22.07321217230910    8.53668564328480
C         6.52867397732340   22.75179279831507    7.52969415109396
H         5.44977957252623   22.80736126239341    7.53148391943438
C         7.21213898302883   23.37572561277206    6.49466069370513
H         6.64981842445976   23.89177840229115    5.72990287239682
C         8.59464163082738   23.34343280086499    6.43370502174346
H         9.11809848123394   23.83219752661735    5.62496515586264
C         9.30173440350102   22.68023070015630    7.41534101209110
H        10.38113725175668   22.64889515495708    7.37605500981537
C         8.62699945940355   22.04864897742405    8.45784141261933
C         9.29437625436945   21.32282359119114    9.52414265479328
C        10.66158639039515   21.13684361985918    9.70678200712899
H        11.36559198443354   21.56085157361647    9.01063543431716
C        11.10182296763785   20.40112460344042   10.79324564252011
H        12.15802226971257   20.24540423325649   10.95279114541153
C        10.18673268880310   19.86030851215054   11.68059542014613
H        10.48564979030642   19.28027276340729   12.53758221761465
C         8.83529229663437   20.08514416898321   11.43966836423085
C         5.72597543548008   18.12818984996391   11.66725657914541
C         6.28542727450581   17.79045664612503   10.27811348441388
H         7.37564251541335   17.74526334452140   10.29386652803528
H         5.97605071496155   18.54471125647321    9.54391727804845
H         5.91436145275262   16.82510306175305    9.93752826035887
C         4.20137409987777   18.09879668203394   11.61355547831772
H         3.86674556261617   17.15580329939948   11.18354301926814
H         3.81495709269160   18.90956023047097   10.99744369213102
H         3.77148560382766   18.18152172246070   12.60822636796684
C         6.26095441511256   17.13648089837234   12.69398367205491
H         6.06755801515120   16.12147251604640   12.34824134483200
H         5.77433802098048   17.26021473456615   13.65711314008406
H         7.33459564710241   17.24989218461156   12.82997749591298
C         5.82116356916909   20.67335264050380   13.54930561600958
C         4.31789863427947   20.93699889070592   13.55658468018314
H         4.06812001668068   21.60973260635127   14.37581092809498
H         3.75358691280062   20.01939421469692   13.69477114182766
H         3.99643983910578   21.40061015046343   12.62532741804951
C         6.24760488373930   19.87114531302955   14.77286902761039
H         7.27774398261684   19.53264651665457   14.68184477173434
H         5.60574794052696   19.00641725450479   14.91857248159050
H         6.17129303063708   20.49702319623221   15.66142033653245
C         6.56058605501839   22.01747930459403   13.51342495652556
H         6.33050034077287   22.55489979386321   12.58719558897514
H         7.64009516747241   21.87614114744860   13.57627291100594
H         6.25341995997043   22.64607368299207   14.34756469639972

