33
CSD_code = ATAVEX | q = 0 | S = 0 | Stoichiometry = C15H12FeO5 | MND = 7
Fe        3.68029658902348    6.82401702629525    9.63808184390148
C         3.62766328647712    8.55704993573527    9.18575174416379
O         3.73829516674621    9.66661755537827    8.93349462034470
C         5.40058990639118    6.54150808749900    9.39821213044221
O         6.53199975506533    6.42688514676455    9.25934211408689
C         4.00790436714992    7.00228788557984   11.36009293014661
O         4.24351506604084    7.17335368008502   12.46710262050032
C         1.50661364335183    6.66067559246520    9.79171390820250
C         2.06379825238104    5.34751923126551    9.77189114474688
H         1.91710140979640    4.65895673542460   10.59617154894704
C         2.91473463909671    5.05208467172546    8.70013279503429
H         3.43067300977606    4.10336626236795    8.61424664210860
C         3.04415741887653    6.10784001297908    7.73997066569662
H         3.72040362855445    5.92422572231616    6.90608703015787
C         1.75030668302117    6.75394663534387    7.26924214038372
H         1.16872272153089    6.02662971770126    6.68697602671462
O         1.98295944112012    7.81688509066313    6.37694491271406
H         2.65405959830326    8.39386079515555    6.76598349369272
C         0.92024365960548    7.22538642616898    8.49988883522489
H        -0.12217584428307    6.86836133106799    8.41065568055704
O         0.91850253704362    8.62827591190349    8.58977480433105
H         0.74652275911123    8.97542901059058    7.70224076017311
C         0.71777397480628    7.06458307115679   10.99006834723770
C         0.94218520150292    8.28243624492324   11.61934152637781
H         1.71546911994499    8.93276881099425   11.23826346089634
C         0.18805806478781    8.65471121008739   12.71677942134718
H         0.37411372115407    9.60312213883696   13.19865373393545
C        -0.80058132137798    7.81410050012245   13.20010318221720
H        -1.38747704807697    8.10325179473666   14.05933700759261
C        -1.03574972387868    6.60159549730610   12.57537048424403
H        -1.80912701424477    5.94301892786978   12.94346868790513
C        -0.28364014969345    6.22939919727928   11.47563258435973
H        -0.48011251910390    5.28725014221114   10.98248317161605

