30
CSD_code = ATAWOJ | q = 0 | S = 0 | Stoichiometry = C12H10Br2ClHgNO3 | MND = 5
Hg        3.09466605851171    5.40260719342493    6.32364628140938
Br        5.47998575170794    5.91927713076567    6.56359190622050
Br        0.77881526872348    5.40615051660888    5.63788455044700
Cl        6.38716822098242   -1.22214041391606    6.83302843068117
O         3.56847195131633    6.40734751363727   10.84760000417223
O         3.77779423054069    3.78419999033613    8.49482994751864
O         2.78692669516415    6.24487440876273    8.76656413207313
N         3.39958483115521    2.87866020586080    6.01069904383061
C         5.30794512020886    1.96700964392072    8.97620464185946
H         5.52851478943257    2.32331822358100    9.96895032610224
C         2.97468412060399    7.70274950337590   10.96447071868714
H         3.20332886081859    8.04546821618346   11.96956622618293
H         1.89629763149334    7.63870911975409   10.81212886573945
H         3.39997103477661    8.37770496639448   10.22024759900330
C         4.78139400527362    0.93374387102358    6.42238200079284
C         4.19563440867798    2.16132437254957    6.83558286901734
C         5.65133299037327    0.26272964397330    7.31338369872618
C         4.13838298396174    4.45528380801825    9.67641113425310
H         5.21870159907656    4.65703087222137    9.70335513368639
H         3.85013973568873    3.88733419788017   10.57035187023771
C         3.41606153285795    5.79471220205648    9.69250115005303
C         5.91416292659341    0.77793079948603    8.55312384118260
H         6.58494008348700    0.26274806408968    9.22212262301387
C         4.45698862006023    0.45541547517576    5.13740509758741
H         4.88592535158687   -0.47513761214812    4.79790715825463
C         3.10738307073026    2.39531681231191    4.82646786326370
H         2.44449315163794    2.99219699400158    4.21167172385634
C         4.45082479067636    2.65338677200795    8.15016564161059
C         3.60184172346527    1.17514475711298    4.34820151687443
H         3.31763846041679    0.83180275154973    3.36665400366262

