107
CSD_code = ATAXEA | q = 0 | S = 0 | Stoichiometry = C56H34N12O4Zn | MND = 6
Zn       -1.14152896631265    4.27417969062355    3.18185645996518
O         5.72015321238460    2.38447902185339   -0.67456419976504
H         6.23593999927453    1.70237344342767   -1.13470611468496
O         4.73515560201617    0.61650050848725    0.24736561745390
N         0.38770616433438    5.44128764229590    3.45833922339915
N         0.10028702904112    6.47974080302752    4.24755716789437
N         1.15448395610395    7.17462207505115    4.43565953843737
N         2.18330295895956    6.64724683096228    3.80404106655256
N         0.25401063040267    2.49808895812090    3.12142643363602
N        -0.80677195262696    3.89143041574071    1.04954416651703
C         1.70411321201066    5.56920366982231    3.19492557055189
C         4.83200176148767    1.81771468222281    0.15242386293736
C         3.27076509552636    3.66802865371945    3.07552179518675
C         3.30674779581356    3.60249503727751    4.49082452477793
H         2.73503562297708    4.32627285062145    5.05100339327554
C         4.06879746254859    2.67556694814871    5.13481216108973
H         4.10015945947599    2.64567923413327    6.21397581090094
C         4.83076543172206    1.75356558890033    4.39363015528673
H         5.43637876655391    1.02661102289122    4.91495550679038
C         4.81661111894061    1.77954960883665    3.03137357332739
H         5.40681575817425    1.06794936348356    2.47609692066539
C         4.03942892359595    2.73018471990424    2.32110447452229
C         4.02992659190075    2.80278303599362    0.91672654366879
C         3.27831846840219    3.78391741144509    0.24818451295320
C         2.49970563323615    4.70879419460744    1.01072037599523
C         2.49626153729586    4.62940984431496    2.40986742107845
C         1.75193462124039    5.70516758837754    0.33446478457560
H         1.17849596389499    6.40561369009698    0.92213608866076
C         1.75807352832415    5.78402666537791   -1.02446882851792
H         1.19618452414233    6.55482345133919   -1.52981136274535
C         2.49617750153888    4.85361547665498   -1.78023852577691
H         2.48245127673651    4.91963451617223   -2.85860113607498
C         3.22433134778016    3.87983102365593   -1.16574103014474
H         3.78324048558891    3.17545711008768   -1.76120040749435
C         0.78560388515812    1.84646585195026    4.12733391486491
H         0.53383769728522    2.20330384300774    5.11580604449737
C         1.63418354213000    0.74667468596612    3.97039513663261
H         2.04146872944427    0.25461856959488    4.83903206245517
C         1.94234494760578    0.32509953072002    2.70120768188921
H         2.60579606668474   -0.50833606197583    2.52658823856284
C         1.38698285147462    1.00408069770957    1.60398493715880
C         0.53923542747844    2.10178740084210    1.87370239335581
C         1.65195196392248    0.62306673267403    0.25858805626584
H         2.31536691350943   -0.21084171404411    0.09008055124141
C         1.10706376057857    1.30791781298253   -0.77415304647196
H         1.31007313009182    1.02569636067369   -1.79659474337095
C         0.25800981830783    2.42719409745255   -0.54457005154602
C        -0.02940071707733    2.83301023725390    0.77818410007700
C        -0.31259228349383    3.17004971113327   -1.59138470127559
H        -0.12086143893996    2.87983953319661   -2.61430433154076
C        -1.09146795795068    4.25855940417833   -1.28977804485189
H        -1.53648094485757    4.86273232752440   -2.06406224395020
C        -1.30175971468373    4.58924056439026    0.05305600717970
H        -1.87637869320163    5.46355513435544    0.32904889641190
O        -8.00412142913315    2.38408680880561    7.03655485638105
H        -8.51992383524994    1.70189351581522    7.49654902418463
O        -7.01885739479877    0.61628371830014    6.11456587603497
N        -2.67064775117976    5.44136934121729    2.90525910722646
N        -2.38294570748636    6.48006442628644    2.11646424211063
N        -3.43714676882240    7.17482231855175    1.92793249680204
N        -4.46609112833171    6.64750574625283    2.55939489855213
N        -2.53720774500783    2.49811476867127    3.24238801293819
N        -1.47649974067476    3.89164091168239    5.31419159871384
C        -3.98708695551097    5.56935397400161    3.16846625526272
C        -7.11587083329410    1.81748165939851    6.20956341037866
C        -5.55376629849583    3.66817243999577    3.28721721011031
C        -5.58932330436322    3.60277694476123    1.87189666052226
H        -5.01738831803225    4.32656708111415    1.31196087322775
C        -6.35120019907322    2.67592917534641    1.22758668132489
H        -6.38219381664952    2.64610983125850    0.14840953538661
C        -7.11340184653015    1.75386332295931    1.96844916430115
H        -7.71890905304475    1.02700136837198    1.44687114692684
C        -7.09964642868017    1.77970528113004    3.33071271035348
H        -7.69008742437619    1.06810767240527    3.88574322677822
C        -6.32264228604424    2.73024171189882    4.04130538336177
C        -6.31354767803088    2.80267937066987    5.44568915916837
C        -5.56213151155493    3.78374233939005    6.11456476302740
C        -4.78328940658236    4.70869809650675    5.35235644047639
C        -4.77945201997834    4.62947764650232    3.95320256136050
C        -4.03569308615020    5.70498499337684    6.02892736852707
H        -3.46213468081893    6.40552632527086    5.44148525368136
C        -4.04221003390211    5.78369578446712    7.38786709434360
H        -3.48047574482841    6.55444717527700    7.89345046266045
C        -4.78056082419789    4.85322747108960    8.14332356312107
H        -4.76711722638104    4.91911352349241    9.22169787560674
C        -5.50854736696242    3.87951211660089    7.52851600470045
H        -6.06758847477044    3.17505255949848    8.12374762645272
C        -3.06875745559052    1.84638805322245    2.23652300266239
H        -2.81675537293763    2.20296808950114    1.24802125684814
C        -3.91729306603457    0.74657422034309    2.39352788080361
H        -4.32444030667306    0.25436006603526    1.52491488687481
C        -4.22557891993459    0.32517287116267    3.66274061641631
H        -4.88906622901980   -0.50821992986108    3.83741610363362
C        -3.67031510410171    1.00430204472167    4.75991956819775
C        -2.82251658271399    2.10195335895866    4.49013610298784
C        -3.93541307952032    0.62346466457467    6.10534066445166
H        -4.59894190909655   -0.21034705876929    6.27388066440120
C        -3.39064292413636    1.30846211182166    7.13804509908471
H        -3.59387333214614    1.02647175581767    8.16050815031655
C        -2.54158922574664    2.42772554895542    6.90839409324574
C        -2.25398313205442    2.83331855955252    5.58561350593608
C        -1.97111810230488    3.17073489393367    7.95517033097755
H        -2.16295327572009    2.88065818334869    8.97810693811974
C        -1.19212195541270    4.25913872279871    7.65349822941249
H        -0.74721269178901    4.86343359624082    8.42774915078294
C        -0.98159263285178    4.58957194942320    6.31064066643691
H        -0.40696588924944    5.46385938059692    6.03457614189200

