63
CSD_code = ATAXAW | q = 0 | S = 0 | Stoichiometry = C22H26B2FeN12 | MND = 6
Fe       12.57183071496927    7.65875297900135    8.97367415308674
N        13.81813939826799    8.44520040707699   10.32630053008511
C        15.05442861072832    8.66643596719959   12.16793797461672
H        15.43208104512376    8.54325944602203   13.16239895984531
N        11.39868688772563    6.96547149457283    7.63009789966362
N        11.05870618589301    5.94004507860043   10.90317396047907
N        13.05010405514527    4.85767970691454    9.88170986072915
N        13.55083109406807    5.94912617138564    9.30480500013906
C        10.65572612106319    8.01461601337729   11.26594948833521
H        10.70609643732089    9.07444896233280   11.12237767866028
C        10.60250825639764    5.33388008133736    6.07212783153390
H        10.69285170970201    4.33902922133308    5.66482742458412
C         9.97980928254341    7.30998663433760   12.25354424175747
H         9.37719078616633    7.70252634397883   13.04714691347017
C        10.48191486330683    7.83260642066511    7.14796472554553
C        10.55074640788192    9.14196655962430    7.77188402306828
C         9.58455206744654    7.48541383148020    6.14457080822504
H         8.86333537841323    8.20036902898246    5.78183421444852
C        10.27080195742470    5.98676401386802   11.97885979777576
H         9.96403088988651    5.09241388220190   12.48204054027338
C         9.61812570589985    6.20876583086982    5.58976896609164
C         9.67643739340837   10.18817675089647    7.50128843499863
H         8.88759933938264   10.06984315735163    6.77559933151369
C        14.02791157195643    3.97556336914612   10.10619966916829
H        13.82653402454269    3.02741810396209   10.56220692218736
C        14.09295610013870    7.47577291998170    6.38480940690072
H        13.46357269834776    6.66165380727074    6.08955509929332
C        15.18463906780855    8.00767664403750    5.71120377935404
H        15.58936297873513    7.70139615548630    4.76817422828260
C        11.65299972496496   10.40335266776259    9.33588621601470
H        12.42870237945060   10.44959887425552   10.08186251627063
C        11.44929822893878    5.75642638175230    7.06876310778039
H        12.21746930528284    5.09796597357966    7.43896402279465
C        15.62989498127423    9.01885800328133    6.54185591429378
H        16.44983441479773    9.69819471441476    6.42622054902545
C        13.97950359317783    8.01463201711915   11.57608046611186
H        13.33751024843069    7.26715367814900   11.99666693246770
C        15.21942721163624    4.51472178441906    9.65996403138712
H        16.19456114427587    4.07318080722866    9.68928613281295
C        14.86265189721050    5.76546755875199    9.17073891419698
H        15.49043131076743    6.52014833648904    8.74159933511433
C        10.83278436906809   11.48656310858098    9.12810158388369
H        10.97346494218216   12.39368414509975    9.69480352483967
C         9.81047872193007   11.40127010237913    8.17166966547754
N        11.55073532606010    9.24986880048993    8.67410465755803
N        11.29504664035551    7.17023064646107   10.45747945996077
N        13.89845200754877    8.12938836343762    7.52953451737080
N        14.84182222957938    9.06254040868972    7.61754558005281
N         8.78621857721590    5.84787097468576    4.56561247277919
H         7.96769581932911    6.40883360382172    4.40295806435596
H         8.69861408783565    4.86739628983113    4.36025178789377
N        14.76923985861716    9.34665475747882   10.08746446668857
N         9.01392258716431   12.47402320629647    7.88226402028314
H         9.00004802766543   13.23734038720264    8.53646358556485
H         8.16262972443574   12.30779978779282    7.37372796062719
C        15.52756325213345    9.50399803528112   11.17580074582375
H        16.34809473292977   10.19249405726339   11.18604422815734
B        11.56315441828316    4.65564486145211   10.22510263579907
B        14.95064591874129   10.09303020772745    8.75308248089636
H        10.91940857804728    4.46490794828347    9.23431732928344
H        11.47661517846372    3.75880758370047   11.00354515313613
H        14.09699907260943   10.91865025741905    8.60772772277310
H        16.04507045989717   10.56184268613271    8.73387835441939

