41
CSD_code = ATECUY | q = 0 | S = 0 | Stoichiometry = C14H18MoN6O2 | MND = 8
Mo        3.40699714705320    3.32556594596539    8.90519133133240
N         3.93555695667369    5.39575234988526    6.63340862464149
N         3.34218956950728    4.38982541248122    7.22163125453941
N         2.37137467763482    3.90983385639528    6.49696672292418
N         2.28087771802533    4.61370058579905    5.39990881629398
N         5.55982366312853    3.76737219574435    8.35923521861302
H         5.66724961801320    4.75223200573373    8.10959073130716
H         6.13127086428801    3.58171779142690    9.18473570076071
N         3.95657670851205    1.60535574918128    7.52139113419443
H         3.57756101057405    0.68895181646869    7.74771698839509
H         3.57506819388382    1.85879520966943    6.60620943608181
C         3.14543681214016    4.88835203470718   10.00319773832144
C         4.32007076756583    2.45051180071765   10.43205853993651
C         2.98967286671614    1.66601001936974   10.70395755645560
H         3.25393410941967    0.60203256764670   10.71863155893473
H         2.65456547139579    1.96352445322945   11.70527664642795
C         1.94186505370819    1.95697237861210    9.65715378916910
H         1.49997367833366    1.12156950995870    9.10832523111952
C         1.27286805731940    3.17832291499451    9.78733395780620
H         1.17168517346543    3.63836349866589   10.76638113107059
H         0.43417260127288    3.36953300862980    9.12292823737321
C         5.98892285224154    2.92217618641051    7.24898927214450
H         7.08254501871861    2.86545322120386    7.17288682720573
H         5.60300019854428    3.34772469046094    6.31424933748763
C         5.41456490494271    1.52204619456944    7.44641118861933
H         5.75113806498805    0.86698540311423    6.62984082834686
H         5.78473778790116    1.11774003464210    8.39468600882606
C         3.24920138122609    5.53821851458892    5.48319427798755
C         3.52586683460646    6.53476810957624    4.47106840230348
C         4.56296465661966    7.44738543647510    4.64825983977407
H         5.15186384724949    7.40233716065577    5.55222799976325
C         4.81910688613487    8.39728585600683    3.67843382543122
H         5.62238613515068    9.10631502720082    3.81872264110110
C         4.04676208018247    8.44525653152996    2.52880365629355
H         4.24854106828864    9.19085917154629    1.77335159517072
C         3.01337277917379    7.53923844820780    2.35022397086892
H         2.40984911179844    7.57931059635847    1.45492346769568
C         2.75068237514896    6.58607833468798    3.31478949060878
H         1.94837174105310    5.87437131675787    3.19449478018106
O         2.95957330884204    5.77560994683365   10.70525494351531
O         5.34545824856587    2.29054471389018   11.03505730096408

