74
CSD_code = ATECUZ | q = 0 | S = 0 | Stoichiometry = C27H39N4O3Y | MND = 7
Y         4.31822702631189    8.38020511124047    2.85677380408292
C         6.69553509160022    9.53446569279149    4.82141993401539
H         6.26916237927861    9.08102366286437    5.70289830464438
N         5.64980666836380    9.16547825495259    0.88194686476260
O         3.24851472131389    9.68837808585043    4.86928944196679
N         3.01775451694696    9.67899292721080    1.66281088604887
O         5.00698187561782    6.70477817675686    4.77538292908386
C         7.88000234668814   10.22044838526921    4.71031214958461
H         8.59380328581159   10.40892364162140    5.49122742127597
C         7.97381788869629   10.62923950761149    3.36729428191667
H         8.77120175494750   11.19261605709525    2.91893560057262
O         2.01481393599158    7.12187854922750    3.11419516952288
N         6.03882803641689    9.49215114189388    3.62436756993198
N         4.90889325442083    6.61052223302525    1.71832164290854
C         6.83814795490095   10.17148720654401    2.73803757117750
C         6.38014952202738   10.35905611879720    1.32021375460606
H         7.23738052981991   10.57586403890753    0.66239190262451
H         5.68745630971569   11.21066382062984    1.26214286609271
C         6.54411817462698    8.05963271603686    0.52726237828993
H         7.40910504540417    8.10361175896582    1.20457212720415
H         6.91970418408992    8.15596832342513   -0.50458055445356
C         5.82341095075537    6.75359596293743    0.70380428885663
C         5.96125668665223    5.57278693923596    0.00966429104441
H         6.60750117690799    5.39583395834993   -0.83016724834989
C         5.09601024029843    4.64633849112293    0.61944521871673
H         4.94842193350494    3.62049532569482    0.33578712895155
C         4.47810878125966    5.31650900599868    1.64644542101196
H         3.75700370414757    4.93164936418084    2.35145327328617
C         4.67568174524308    9.46017314340027   -0.17382902024952
H         4.39630112640118    8.50522946761636   -0.64099265364620
H         5.10562369391913   10.10785554517451   -0.95502832801093
C         3.46304533436609   10.10300776061815    0.43461028594484
C         2.63152963888567   11.07836025266161   -0.06783298073758
H         2.73642757162993   11.58603107695957   -1.00879837013449
C         1.61708606996667   11.27233475360935    0.88793021131104
H         0.79392796694129   11.95974048826123    0.82126414077640
C         1.89037549147871   10.40834474503975    1.91966730189311
H         1.32705418121314   10.25328632822113    2.82677869291557
C         1.27617532100942    6.93225257211540    1.90503349093271
H         1.66371732353494    6.05886390830174    1.36350849113419
H         1.39799527198633    7.82747772973933    1.29463633458033
C        -0.15618424802620    6.69376607790073    2.37421518941815
H        -0.62766367968177    7.64637032664559    2.61562205785774
H        -0.75774191091907    6.18426447842038    1.62623218338818
C         0.05480318748359    5.85584067834454    3.64022448781685
H        -0.64230322869557    6.12965559505438    4.42973163799633
H        -0.06916908936869    4.79468977661799    3.42937435817547
C         1.51400481761308    6.15921450083702    4.03674285879602
H         2.12387625582799    5.24713153524412    3.99231613750857
H         1.59645252166206    6.58857818910081    5.03787442606975
C         3.58607458603998   11.08777976782311    4.89294321233742
H         3.81349901172539   11.40560952602287    3.87227902862961
H         4.48021148763064   11.21903802689991    5.51550969935817
C         2.38418343521577   11.81005126652569    5.49025058218120
H         2.66266071607463   12.74549978950752    5.96862484214190
H         1.64352685304541   12.01263883676998    4.71634643283734
C         1.86043962371538   10.76595178204268    6.47146884273419
H         0.81194384967146   10.90191066426279    6.72621621945765
H         2.45190169345150   10.77917009985532    7.38774293653264
C         2.10380427201939    9.47177610515322    5.69750490312624
H         1.24314814680114    9.23284236346289    5.05892219008818
H         2.30334609432102    8.61934475111809    6.35542148227851
C         5.70443957273531    5.60051981703130    6.76678505070006
H         5.87807271377217    5.80641397737732    7.82045368939905
H         5.38135722812953    4.56463081940014    6.65730779282751
C         4.67253208665328    6.54815103994156    6.15635617179179
H         3.65206455181751    6.15790738439642    6.23160339858486
H         4.71130017966851    7.53185794412413    6.64251835786191
C         6.92384907431565    5.86802624073874    5.89020284106824
H         7.63837195382987    5.04897222373857    5.88920085200710
H         7.42804305785518    6.78229265748736    6.20400582631970
C         6.27415830782016    6.06946465790579    4.52706344244005
H         6.85742824217835    6.71327325240762    3.86434710444634
H         6.09230992252862    5.10991361792729    4.02609574774728

