36
CSD_code = ATEDEJ | q = 0 | S = 0 | Stoichiometry = C11H15MoN7O2 | MND = 8
Mo        5.11126852705816    6.67608078192289   -1.11374809463100
N         3.57903605035799    8.79039033325365    0.59382872462046
N         3.71608125335722    7.77738171128196   -0.22088766824523
N         2.57181409319720    7.20365445941226   -0.47368890766161
N         1.63167913677692    7.84105928607000    0.16160610320752
N         6.16775606391806    7.63643797538476    0.63419679910558
H         7.08441781543984    7.97284457885705    0.34488298242066
H         5.63058738714957    8.44005975166564    0.98092125709623
N         4.65498961237820    5.23266529257451    0.60323177064607
H         3.66149576174160    5.00333515167993    0.59736688152805
H         5.16787800964266    4.35520846157369    0.53348887050864
N        -0.86550772784904   11.47158332559038    3.42039845609216
C         5.53573399263602    8.04401141816717   -2.40421210279407
C         6.94199180789186    5.97596770648072   -1.40806950819169
C         4.23674368520110    5.95991050478284   -3.14441910032520
H         3.15839277337699    5.98421905644682   -3.26874156372830
H         4.78969771584355    6.33518303996621   -3.99993997839411
C         4.78189510332796    4.95138984736931   -2.34891552966270
H         4.20085611815207    4.07109751599154   -2.06141404471978
C         6.28728544883660    4.87018572125263   -2.32228063464603
H         6.71570969946893    5.01869476359044   -3.32120737749836
H         6.62985397989507    3.90610973845805   -1.92773779530402
C         6.32601056362098    6.63771472961841    1.68675650330456
H         6.62468045407099    7.08953902072608    2.64168307366055
H         7.10323791982481    5.93193462392766    1.37525491632396
C         5.00415190950429    5.89517547144220    1.86226140598447
H         5.08305719948428    5.18185366807112    2.69393664572344
H         4.22073984795757    6.61951851246543    2.11186822178853
C         2.24890783672593    8.83429104491125    0.82373701338500
C         1.60800811104056    9.79026079547892    1.67584922817223
H         2.25832811034325   10.50959126950838    2.15431595633569
C         0.28095208532278    9.79908849490113    1.87430674471274
H        -0.35422299585200    9.07596491265715    1.38037108210166
C        -0.34727576653476   10.72310299760106    2.72010700812367
O         5.80609478154062    8.80716240449952   -3.21534596374397
O         8.10967363513704    6.03553163241149   -1.15446137529004

