54
CSD_code = ATEFIQ | q = 0 | S = 0 | Stoichiometry = C24H18N10OZn | MND = 5
Zn       11.83032121537504    2.13045490925472    3.10654046683437
N        12.65967326590680    1.95943271903215    4.84598182477849
N        13.87520560774662    1.94866796796262    5.37777231905538
N        12.39098122071732    1.69787394184817    7.03155633948295
N        10.05826515468951    1.91039060251883    4.27138294812315
N        16.85880313801982    1.56420811518235    9.48962963034201
O        11.79112866136172    4.34118894847300    3.04261230181383
H        11.01660650419312    4.75041690678607    2.64448257770816
C        13.69327348508688    1.78856947620171    6.69326616809607
C        11.77843192580668    1.80507794342628    5.85743503642852
C        10.36912640836484    1.76601849815567    5.56761914426157
C         9.39240049927151    1.58517779992848    6.54660373491510
H         9.69927643097717    1.47576442398981    7.57389754453242
C         8.06795846335811    1.54811331905176    6.15768698447618
H         7.28618436061141    1.40805209204266    6.88955523519929
C         7.75592259979990    1.68819065809207    4.81017882110548
H         6.73295097854351    1.65712270932666    4.47106408582294
C         8.78541913242584    1.86562888676104    3.90146175191320
H         8.60839433032828    1.96926242194960    2.83862925752501
C        15.59622262824684    1.47169086508448    9.87616605035443
H        15.44582325890410    1.33547314946158   10.93979189124987
C        14.52179683304691    1.53975894345083    9.00755917832265
H        13.50372069422617    1.45953218922557    9.35319930509122
C        14.77913651251028    1.71531629060631    7.64851234480076
C        16.10840808832186    1.81265934614477    7.23781837883435
H        16.34086081402081    1.94761618216922    6.19356565757760
C        17.09979050234377    1.73019625789831    8.19869246546809
H        18.14597724556354    1.79976223017007    7.92774996540624
H        12.05276866074699    4.86776757162636    3.80390042445288
N        10.96160557511500    1.93449441790333    1.39149383692994
N         9.74383900361143    1.94658572368112    0.86245798279857
N        11.21963694983195    1.65628428943868   -0.79249016144625
N        13.56211674903300    1.83674948579272    1.96219320824012
N         6.75117855729814    1.59313010735875   -3.24870720336038
C         9.92004992867953    1.77392066959250   -0.45239668340546
C        11.83701695297345    1.75931896887308    0.37920950572892
C        13.24734325600272    1.71409680631466    0.66518108874854
C        14.22188956118662    1.55796880283637   -0.31961926195630
H        13.91279257236222    1.46338380419382   -1.34776369073441
C        15.54831512217679    1.53015326592467    0.06379491744864
H        16.32873643121579    1.41069924186661   -0.67321479273122
C        15.86412096812076    1.65667389376734    1.41148119430182
H        16.88906511131204    1.63739641057871    1.74559309432258
C        14.83632564448641    1.80730165889498    2.32697705052635
H        15.01663715157824    1.90403840328817    3.38959801862212
C         8.01277374628845    1.48544803332378   -3.63490084523140
H         8.16179224795700    1.34892112654006   -4.69867573328009
C         9.08760133967773    1.53894241197486   -2.76590557067908
H        10.10480287833490    1.44680312671006   -3.11098100073173
C         8.83241560714443    1.71575908675202   -1.40652257565530
C         7.50417060522105    1.82873505637327   -0.99639229001415
H         7.27235603898752    1.96386091694996    0.04807482875093
C         6.51208675650705    1.76004979538206   -1.95757824380049
H         5.46670262437629    1.84189912983572   -1.68671850735292

