52
CSD_code = ATEFEL | q = 0 | S = 0 | Stoichiometry = C20H27ClN2OPd | MND = 4
O         4.48921026246434    6.18576969635823    4.00372127841435
Pd        3.86756267596694    3.72759005186581    2.12755538602033
Cl        1.80115666008436    2.62174988609862    1.94027976038322
N         2.84871557681414    5.53274849489709    1.96547798566323
H         3.29033877092570    6.22381321128141    2.59215489171024
H         1.95752040890485    5.25910773888974    2.39685470941849
N         4.63067542481495    1.92901332235327    2.13397547947097
C         5.68544314331650    4.58425106138946    2.73106434890284
H         6.41094757983447    3.78774114399887    2.91453088194104
C         6.19216827840854    5.63547548199251    1.75336593773920
H         5.69772390644161    6.58104194252506    1.97603818626625
H         7.26936075327130    5.77800909502539    1.88751914232149
C         5.92395826393207    5.16086444733098    0.34983864448038
C         4.83351493297402    5.58242085009668   -0.42408575447536
C         4.68803782201258    5.05639687025745   -1.70815628626828
H         3.87223782368231    5.40153107755811   -2.32651044161880
C         5.56926144375737    4.12589259520155   -2.22358021613755
H         5.42451404533597    3.73692804117246   -3.22059572294839
C         6.64889155040712    3.71504689259119   -1.46048061078927
H         7.35861865700021    3.00143525600144   -1.85398234448675
C         6.81943712508205    4.23806260123094   -0.19292630025949
H         7.67218235087136    3.93311888052575    0.39837228490393
C         3.86424486993044    6.65243694103502    0.01401163235529
H         3.58422304503430    7.23219370286082   -0.86821608248226
H         4.34353317552095    7.33558111160852    0.71659497571459
C         2.55605237298876    6.13615202464181    0.65727966960208
C         1.88795804872217    5.08129562651119   -0.22383807390159
H         2.53588078250655    4.20228328880270   -0.31087891990487
H         1.68564238454531    5.47841035503909   -1.21501751380824
H         0.94753967867065    4.76008248775492    0.21928492283857
C         1.61019727253556    7.32682369183519    0.86521652047411
H         0.68398714534746    6.99685201377391    1.33205061972550
H         1.36205164984917    7.79343712373878   -0.08450660294955
H         2.07203494223529    8.07584250767897    1.50625218589877
C         4.97264608698792    5.04650156873392    3.89293839698433
C         4.77980798996916    4.05168863592143    5.04099854029309
H         4.89679801981570    4.58164109678647    5.98444547303047
H         5.49241790082649    3.22953529263888    4.99313270975523
H         3.75053036845851    3.66670179111573    5.00951202292180
C         4.33543502916248    1.06235825925873    3.10163941748750
H         3.94553900875015    1.47487463089942    4.02696012322930
C         4.49163367374241   -0.30195581602441    2.94962406420090
H         4.23579510250293   -0.96304314669897    3.76326208270035
C         4.95845652053873   -0.81513268023762    1.74289561974411
C         5.25217422995098    0.10418859441246    0.73938568363805
H         5.60866468144283   -0.23069515770484   -0.22266884534654
C         5.07499869815683    1.45500223973264    0.97025391945120
H         5.29962826745467    2.18705734017815    0.19850725350119
C         5.10550469211473   -2.28417506518856    1.52299156375521
H         4.18391591341250   -2.68057763410897    1.09502556165545
H         5.29097556096595   -2.80159017400058    2.46106435004211
H         5.91565543156016   -2.49447928963702    0.82846748874237

