64
CSD_code = ATEPIZ | q = 0 | S = 0 | Stoichiometry = C27H30NO5V | MND = 6
V         0.89376199156570    3.31315597271169    4.60541954361990
O         1.12889263889780    4.29179791518750    3.43299031051346
O        -0.66183092825217    2.88532151391965    4.53677815228734
O         2.00095315557364    2.16591699349455    4.49756883659559
O         1.13998443411668    4.19493813242200    5.99025692524998
C        -1.87685947573459    2.48179977918066    4.81221106625688
C        -2.79613850814638    3.39426653902930    5.36809276594557
C        -4.06315321229128    2.95220009687740    5.70243922824598
H        -4.76760655968739    3.65221097443425    6.12987227919268
C        -4.45564710473869    1.63334399630576    5.49877310599642
C        -3.54435069910346    0.74889853873006    4.93979035335389
H        -3.83733266151708   -0.27752075739943    4.76590201326023
C        -2.26389755760398    1.14872837620803    4.59001569148059
C        -1.30106722877703    0.20688343507426    3.91539198367889
H        -1.23226574129791    0.51300088043086    2.86351257558095
H        -1.71457164261195   -0.81973019269477    3.94240287980672
N         0.04656635883713    0.24423242030423    4.46653691968511
C         1.01923341979915   -0.27881550351340    3.51108587415882
H         0.84107826598478   -1.35008143875465    3.29916155257042
H         0.88658359529106    0.28193252399045    2.57573518210377
C         2.44073266245482   -0.09020567855525    3.96824958106419
C         3.36420897774222   -1.12352410195601    3.91972663681057
H         3.04245421987794   -2.09623439756130    3.57336466400983
C         4.68568043778551   -0.93560455007414    4.29682510694671
C         5.08074778579091    0.32551069017713    4.73146433396140
H         6.10962196473616    0.48426000074648    5.02265520155890
C         4.19356458749601    1.38346441258030    4.79597727651473
C         2.85276867852407    1.17520029611123    4.41696876548590
C         0.15079364366934   -0.41030685157352    5.75807450234049
H         1.19449162378801   -0.69992139415597    5.90774031538606
H        -0.47735438558680   -1.31929125507279    5.80569605312435
C        -0.23959343345042    0.49510395963920    6.92597786382201
H        -1.27700023013250    0.84432626779893    6.82229224265930
H        -0.16738677993249   -0.08945988111382    7.86041386119892
O         0.64540677640017    1.59069101011661    6.99022908284043
C         0.35225407194152    2.45584437396644    8.07145345942433
H         0.26164937316817    1.86791925562035    8.99983936061530
H        -0.61695776975344    2.95826772967709    7.89300278153076
C         1.44998445939087    3.47436358249260    8.22312779876660
C         2.15347366125632    3.60986468928713    9.40949449283079
H         1.90409049471714    2.97043830542343   10.24463912353261
C         3.16283781654313    4.54865446541224    9.54119369979813
H         3.69615831565079    4.63916758292578   10.47495448704823
C         3.48671460857605    5.36539652743549    8.46931501414688
H         4.27681733215878    6.09537326875378    8.56443195386904
C         2.80242778862210    5.24854121273051    7.27641567711761
H         3.03768202695285    5.87003322890192    6.42211746062136
C         1.77797333660671    4.30301453779508    7.13225211320387
C        -2.35047178682466    4.81000431976490    5.58401081554189
H        -1.73612028609478    5.14322326412155    4.74124377278748
H        -1.73485277491710    4.88445401309559    6.48563280307120
H        -3.20535506650661    5.47315258340010    5.69590268360358
C        -5.83651912576317    1.18989290987658    5.87938790505589
H        -6.02388067464861    0.17261018166509    5.54587990480556
H        -6.58328918605256    1.84596910393789    5.43533512726780
H        -5.96303696126678    1.22741998276513    6.96137281948171
C         5.67983989936730   -2.05595837920294    4.23208785174240
H         6.45371237088143   -1.83166969870378    3.49874852672068
H         5.19799167351391   -2.98841837448415    3.95024741904553
H         6.16634620232259   -2.19133231304299    5.19686677764409
C         4.59164875540672    2.74784694224444    5.26991511288060
H         5.67263725681525    2.86425366319789    5.25791113231071
H         4.23423888669975    2.90992284929422    6.29085835007198
H         4.13503623176562    3.51226146859768    4.63286884815457

