39
CSD_code = ATEVOM | q = 0 | S = 0 | Stoichiometry = C12H10N10O6Zn | MND = 6
C        -0.62693591435021    4.23321615047308    2.18475485181765
C        -0.43952780352945    1.83115152242989    2.30027845749917
C         0.53189230335420    3.25102187264248    3.88641570971171
C         1.51675180306691    2.51315269106753    6.03087366534683
H         1.47086255965048    1.46755903849540    5.80345265890410
C         1.92712292815561    3.20138816400424    7.14247812087724
H         2.31003200102730    2.79802184388545    8.05644306742773
C         1.73788723284126    4.55720950495902    6.82647583233826
H         1.94965485435827    5.41948497365490    7.42648076837345
Zn        1.25847414744528    5.94844313136752    3.90233654593660
N         0.30115290850692    4.36663497792034    3.22294302743406
N        -0.87370137490118    2.99221671250692    1.77317407562363
N         0.20074652531546    2.05026693899895    3.52799666650669
N         1.12058071604178    3.43755983879685    5.12829093336407
N         1.24765107116759    4.68159835884233    5.61172990588832
O        -1.15812346381454    5.25102861385024    1.76655921246659
O        -0.58331159015840    0.72980729214033    1.85313628045840
O         3.29746434896131    5.03369705052263    3.85673579452530
H         3.61771298807001    5.43764419867398    4.69751652209966
H         3.96917793753173    5.21554711036040    3.19329564042408
C         3.14331596381590    7.66421973785251    5.61996607070444
C         2.95548237258572   10.06624870309020    5.50406097418231
C         1.98451348443437    8.64593882241481    3.91800345128182
C         0.99987729275944    9.38335349052644    1.77329495650794
H         1.04555570186208   10.42898444901726    2.00058385576100
C         0.58981333361234    8.69490653421521    0.66170954631219
H         0.20699848270501    9.09808935117702   -0.25237613584308
C         0.77921476023350    7.33915688488794    0.97792349809354
H         0.56771040188450    6.47678103360499    0.37797151648455
N         2.21549122223705    7.53045517155271    4.58160087596185
N         3.38967085292320    8.90532948382641    6.03147441800078
N         2.31529369087337    9.84682009342922    4.27635383539555
N         1.39604074286848    8.45912982448612    2.67607043193509
N         1.26926067008325    7.21500686740044    2.19276952914640
O         3.67444650934447    6.64655762703628    6.03859306065253
O         3.09873808223362   11.16766256261941    5.95120651447064
O        -0.78039952935372    6.86347701932293    3.94848264724818
H        -1.10085182040479    6.45980787323193    3.10764669691187
H        -1.45193639343865    6.68142448471523    4.61199651976918

