101
CSD_code = ATIJIW | q = 0 | S = 0 | Stoichiometry = C51H42N2O3P2Ru | MND = 6
Ru        4.86612966725809    6.55775025818247   23.25478403496091
P         3.13642548295848    6.09588569587257   24.73381474415861
P         6.49048415856775    7.52769632152237   21.92087323108767
O         4.41846708172429    8.47320637022115   24.00592429480433
O         2.60692796181921    5.09659410494280   18.42683671947839
H         2.85123141321138    5.73582330709132   19.13527980708275
O         5.70591530900506    3.88508394187336   22.21216957204152
N         3.44976699092577    6.93590343681427   21.75693866483627
N         3.06736199943077    5.97098143792459   20.87892903659566
C         3.86651822693283    9.44391190399213   23.38893129413617
C         3.92865607984997   10.73556344029884   23.98240874772716
H         4.46630007453305   10.81830951916039   24.91624931802096
C         3.34319832287631   11.82565233052824   23.40567679068862
H         3.41592518315648   12.79253947280114   23.88385683182294
C         2.64433291427895   11.70332087119684   22.19787533348594
H         2.18155862556947   12.57012935500815   21.75094261362682
C         2.55330663925846   10.47815776603589   21.59805323200989
H         2.01447609732287   10.36902770594354   20.66601685669985
C         3.15365559189750    9.32882502231152   22.14958092977002
C         2.97626832683969    8.11001691779844   21.45276568672546
H         2.32889465836818    8.15548403800980   20.57320456614216
C         2.86313230922140    4.77383700677703   21.28333821738080
H         2.93893062864732    4.50928314011388   22.34611642127105
C         2.49517410428509    3.70781290753436   20.39159196932390
C         2.38347517079000    3.90430884552222   18.99884499421860
C         2.02689541638658    2.82936858301352   18.18622663842267
H         1.94806596609215    2.99839638710906   17.12365770892470
C         1.78263491134127    1.58695779611859   18.73334589107854
H         1.50725460015072    0.76551894085923   18.08896467727516
C         1.88906919754596    1.38683610108848   20.10485546718396
H         1.69768748209608    0.41236639250727   20.52701239769851
C         2.24227655396683    2.43738573464387   20.92140639175136
H         2.33229671827742    2.29476556319644   21.98942506034601
C         5.33281777346910    4.89852844449051   22.62757373013893
C         2.49226482592756    4.39196903985292   24.87599962672648
C         1.14904291423546    4.04546519032880   24.96320534404306
H         0.38500356172081    4.81077268008553   24.95170679617094
C         0.78565876819360    2.71249698041153   25.05684543170486
H        -0.26007605810646    2.44706368824784   25.11580672407814
C         1.75374264824609    1.72251069429555   25.07320243205391
H         1.46223502318024    0.68463361700153   25.13899662692171
C         3.09593226073253    2.06432374334482   25.00489581400725
H         3.85342372497142    1.29482421076433   25.02063480482528
C         3.46261534377452    3.39282066052578   24.90594940074311
H         4.50633215854020    3.68187246848259   24.83817944455920
C         3.35264550036878    6.48564445848749   26.50697788250575
C         2.38794097434230    6.09147121524280   27.43078271255454
H         1.52069278694706    5.53460839576535   27.10409401898486
C         2.53932939907033    6.40967376176956   28.76717895094730
H         1.79016023198407    6.09876918237046   29.48108264890722
C         3.64757485534751    7.12590805579081   29.19187231126331
H         3.76183708392037    7.37201971318165   30.23754395729707
C         4.60546412496081    7.52430307681054   28.27505709956935
H         5.46884414444105    8.08429756050062   28.60423842014068
C         4.46055478582075    7.20369268833578   26.93652398551827
H         5.20004586482769    7.50653608229237   26.20929623085337
C         1.67107251177862    7.11771626562812   24.35774726004489
C         0.81950921569553    6.77871700292542   23.30797255271632
H         0.94493500098130    5.83604866645275   22.79002293612987
C        -0.18750509537478    7.64212336990621   22.91834757865356
H        -0.84224946211823    7.36730722629564   22.10360890194877
C        -0.34637751830082    8.86013990789588   23.55873601493651
H        -1.12382283074946    9.53971556428621   23.24261906238335
C         0.49760628008045    9.20591362345193   24.60030580144463
H         0.38242499304615   10.15775326405614   25.09757070558370
C         1.50077970816579    8.34175113829210   24.99907843264078
H         2.16596705753449    8.62055199005639   25.80461929754095
C         7.93323043247325    6.51437230604830   21.44342840877005
C         8.45782747272358    5.66757266934321   22.41528911021168
H         7.96092639170181    5.60355849490917   23.37566656526085
C         9.58565344592403    4.91416123246489   22.14904078922242
H         9.98387235034938    4.25465261448950   22.90593020416345
C        10.20112814809081    5.00213433626009   20.91094595351533
H        11.07969235505954    4.41064987963609   20.69892007502078
C         9.68676151500766    5.84817725742208   19.94292361123656
H        10.16472015721500    5.91838406536840   18.97635127929421
C         8.56005262383220    6.60696068895881   20.20561266793448
H         8.16368605843974    7.25844667217619   19.43914622523575
C         7.39578600756689    8.98647755209286   22.54106178624344
C         7.31818826594809    9.32789369053503   23.88478096102559
H         6.68927837965997    8.74168794232460   24.53941132966321
C         8.02843577498494   10.41324855288925   24.36773828152736
H         7.95883771003892   10.68114256988592   25.41212290095630
C         8.82812652066227   11.15418021263826   23.51507761484249
H         9.38076603588911   12.00317837615341   23.89043480966211
C         8.92538623857704   10.80318080439723   22.17719467542568
H         9.55733138346565   11.37494667947255   21.51284315018507
C         8.21745222245312    9.72171582795929   21.68954747431230
H         8.29880670449324    9.44695063228098   20.64698343881935
C         5.84773485636220    8.08823692470614   20.31199249774482
C         5.52034616496143    7.10596868719672   19.37786343538119
H         5.75454411586888    6.07024071649477   19.59763198299785
C         4.90063457564332    7.45052356665129   18.19195739940190
H         4.64803309389770    6.68609059260705   17.47237255818876
C         4.58829715507005    8.77753921440743   17.93663584901622
H         4.09897642295804    9.04666712410939   17.01212722252890
C         4.89206652140904    9.75453877069963   18.86989765257718
H         4.63631937068292   10.78674161841585   18.67904725793477
C         5.51236709999989    9.41377215296112   20.05938593006042
H         5.72876411635544   10.17669775087719   20.79549699186575
H         5.89215388953057    6.38136558013632   24.38276883027792

