102
CSD_code = ATIJES | q = 0 | S = 0 | Stoichiometry = C46H48N2O2P2RuS | MND = 8
Ru        5.82432889492668    6.24450756527100    3.62515641031656
P         5.29356144451214    4.28780222314387    2.66293738849496
C         4.49851548827852    4.29262500601236    1.01197518968278
C         5.27435637239518    4.11264804021049   -0.13174885578785
C         4.71443962954423    4.24033192578149   -1.39011670420287
C         3.37338769600254    4.55801735035097   -1.52748310120683
C         2.59607448124446    4.75111545880133   -0.39702257524397
C         3.15492109666040    4.62705900387242    0.86150856952656
C         6.59375809352625    3.04271941541943    2.31547740838285
C         7.92087199095134    3.42471431919213    2.46720741843451
C         8.94239444864257    2.52780105164205    2.21710198943040
C         8.64043115032132    1.23703914072979    1.81500779172457
C         7.31943301009839    0.85257603587826    1.64964585531158
C         6.29697485253787    1.75198490628472    1.89184403859813
C         4.05078460564828    3.31426432215231    3.67560930710683
C         3.83552692974919    3.93541495914480    5.05470253983661
P         4.12234975778807    5.77342951460141    5.00400185599136
C         2.41456409562928    6.31967107000732    4.63611282536866
C         2.14244690448290    6.80523822845735    3.36496950682882
C         0.85610036959506    7.17532825335037    3.01410964826130
C        -0.16731009736478    7.06155113461318    3.93994659518434
C         0.09744372955124    6.57430780652194    5.21118929217005
C         1.38172263696034    6.20084432371393    5.56101461892525
C         4.26591116567874    6.25053728055271    6.75468397762702
C         4.89082218547006    5.47076759755815    7.72283336167840
C         5.12037475385085    5.98283067661095    8.98765026306393
C         4.74007553562174    7.27710347169071    9.29954124687070
C         4.12282443396520    8.06448475919892    8.34004388653982
C         3.89519717003134    7.55627094962692    7.07624361397367
C         6.84021309208127    5.18406800086433    5.11107640977404
C         7.02516239122850    3.84251256131879    5.35033439192493
N         7.83520574944352    3.68913229975237    6.44249913776023
S         8.54446419231077    2.23773122511658    6.93224701323965
O         8.76447152225945    2.28018237818977    8.34264290301911
O         7.71470103221982    1.19983774023665    6.39281182987664
C        10.09346032211891    2.29692376777750    6.05250495830861
C        10.35818377236128    1.37094109022754    5.06442537227750
C        11.55419934541730    1.45112483078755    4.37362706781368
C        12.47366433151841    2.45668557468881    4.65981120386248
C        13.75520227902312    2.54404932158080    3.88895132141524
C        12.17450135308806    3.38344147317587    5.65401342762242
C        10.98455949543408    3.30636687117299    6.35664123653728
N         8.21810090364562    4.88884986980577    6.91494815166309
C         7.61610942894095    5.77473762188067    6.15196389249568
C         7.61163002732851    7.53629117259624    3.16739980762067
C         9.07534113274527    7.36124941965075    3.45368803944112
C         6.95592594147870    7.20937811919512    1.94574032790925
C         7.61649445084825    6.70930375165380    0.69311228262311
C         5.63392866929994    7.78914213462274    1.97317587114654
C         4.76904640070565    7.97007220838208    0.75789681137138
C         5.48115427685898    8.45071645240874    3.21919254050340
C         4.40786230271470    9.43343113777383    3.58343950221181
C         6.68596885488881    8.26892717802169    3.98270316893232
C         7.03079457222367    9.09372777674248    5.19171303235823
H         6.32065984627965    3.85897221293892   -0.03143835688770
H         5.32798810988239    4.09317179891451   -2.26753652485210
H         2.93714879946276    4.65834134999055   -2.51032696157244
H         1.55018504568012    5.00392680212241   -0.49677425688539
H         2.54062369695237    4.79757990538675    1.73447851930662
H         8.12992508578689    4.43173643550970    2.80636270205427
H         9.97237135040918    2.83033461115075    2.34259531653649
H         9.43433780450510    0.52934333477780    1.62603256629929
H         7.08632951874221   -0.15265065627289    1.32933492879314
H         5.26663971833384    1.45680490143258    1.74353334730316
H         3.10948268253251    3.29558396948793    3.11996921089277
H         4.40745029563872    2.28487246958341    3.77456766266313
H         4.55600714248996    3.52232407629177    5.76316304055121
H         2.82484305738947    3.73777372140940    5.42691870039632
H         2.96155330077965    6.87801017841935    2.66021571912292
H         0.65057822635077    7.55181460297321    2.02168178786562
H        -1.17304030357119    7.35186730607430    3.67315833087606
H        -0.70367198672633    6.48514865070543    5.93076811190970
H         1.59198051005276    5.82348632637482    6.55296477081248
H         5.20622308249305    4.46267966105031    7.50058007330222
H         5.61020847093245    5.36804148699836    9.72791780013669
H         4.92730888703595    7.67455656195391   10.28620017229064
H         3.82608643779364    9.07653339446377    8.57755602174357
H         3.41373997335424    8.16466636960468    6.32045367067173
H         6.67065446834607    2.94948931760766    4.87318433598569
H         9.62592206016879    0.60719103861963    4.85623156356614
H        11.78015423621411    0.72809988885593    3.60337363748537
H        14.47301067965212    3.18328128211870    4.39582574910811
H        14.19235074491152    1.55672350337741    3.75675129815980
H        13.56753348108236    2.95999979061141    2.89874892833862
H        12.88038972799598    4.16909791487987    5.88017034791335
H        10.72918256946858    4.01403553539347    7.12964739673867
H         7.73861993451145    6.81375349538951    6.39210470668228
H         9.57815183409612    8.32887207769675    3.38449089897215
H         9.53580166794378    6.68884740084400    2.73221789078279
H         9.24612424738928    6.95886120533023    4.45207852873471
H         6.88551992110961    6.26412378291798    0.02098502270208
H         8.38483574836949    5.96722525070314    0.90317862829762
H         8.08753467581926    7.54894101543529    0.17481103477432
H         4.61165018573739    7.03222765741446    0.22541120011022
H         5.25338772404551    8.66810934182913    0.07031336755365
H         3.79739143239238    8.38177867435642    1.02332046511216
H         3.43417004257847    9.15171636068856    3.18776117710606
H         4.66986236873308   10.41283082543282    3.17398247635539
H         4.32392236730688    9.53206313193223    4.66366196358354
H         8.04650387572814    8.89117976793034    5.52370616559723
H         6.34930967384717    8.90113363389842    6.02170236493723
H         6.96292891345462   10.15508886764797    4.93956143350817

