135
CSD_code = ATIKUK | q = 0 | S = 0 | Stoichiometry = C54H72N4O4Pd | MND = 4
Pd        8.79070668999755    3.99773315144417    7.51432036558808
O         7.41812522131374    5.13452092201368    7.74225436985190
O         7.76826107411798    6.38080831946669    7.39538274563020
O        10.15361929167875    2.88893514909266    7.12929174801571
O         9.81688274387326    1.59562529538346    7.20273573158496
C         7.43147561858541    2.37295757238214    7.51407091772814
N         7.24191366953960    1.51134460106119    8.53719848004016
C         6.54655065363159    0.40602170000806    8.11503084908875
H         6.29886326066757   -0.39806668754365    8.77668495269926
C         6.27466122924569    0.59071684703749    6.80619609932764
H         5.75030167460648   -0.01802361936362    6.09907529304204
N         6.81763351221372    1.80353537932708    6.45709861843529
C         7.67828229450896    1.68169060111960    9.87923092490576
C         8.61404960926521    0.78868242381507   10.41040665148514
C         8.95675382770019    0.92869443837908   11.75171568613374
H         9.67087689154030    0.24857842195074   12.19075819336959
C         8.38728815174944    1.91280167752137   12.53348459743540
H         8.66246950832864    2.00057101382668   13.57458229597051
C         7.44548310401455    2.77097388300027   11.99622478041385
H         6.99043816289038    3.51355207232046   12.62954712553677
C         7.06433485733324    2.66936994698038   10.66623073172276
C         9.21729317873224   -0.33861362166357    9.60486839215784
H         8.87611181092768   -0.26944604278700    8.57049429251138
C        10.74173826888582   -0.23773977703922    9.55049545730826
H        11.00883874470939    0.64046761090209    8.97013918520587
H        11.14584392911826   -1.11160568367158    9.04484046295316
H        11.18496430398405   -0.17322096008912   10.54098923265830
C         8.77981395529361   -1.68648573371696   10.18758822804176
H         7.69609221304822   -1.74537210751223   10.27372173202900
H         9.20455093395793   -1.83688669739027   11.17740256319128
H         9.11767065240697   -2.49597180594827    9.54470102357065
C         5.92534923689707    3.49800108520650   10.11089646576640
H         6.16650134656769    3.78219676398389    9.08145550482339
C         5.68031526631541    4.79499166966692   10.87675198807461
H         6.60629181285625    5.35347292351870   10.97530668612585
H         5.26317301242809    4.60660979525743   11.86427964689776
H         4.97178995912477    5.40757113232758   10.32425633122640
C         4.64539587998222    2.65123763811555   10.11305644479229
H         4.75442389692482    1.75325923023329    9.50897320817540
H         3.81577587833641    3.23200249624991    9.71607655801027
H         4.39919044770586    2.34957988010464   11.13010249098253
C         6.59261121825354    2.36732792805096    5.16935927731968
C         5.44116083438532    3.13889622126088    4.97885045439847
C         5.16305408274487    3.58834281336312    3.69501967690390
H         4.28252414976223    4.18606057446286    3.51743798695547
C         5.99061429790305    3.26695684343903    2.63626208706888
H         5.74925590880771    3.61262791624526    1.64142197346082
C         7.12360945898953    2.50511988794722    2.84595766350880
H         7.76220904732894    2.26015125709895    2.01121245660351
C         7.44916881171157    2.04290904141172    4.11548450132519
C         4.49679771867900    3.45852531118945    6.11373009096701
H         4.86959971040644    3.00193547349712    7.03445151932297
C         4.42492862765152    4.96730189657011    6.35231562487430
H         5.40411070272680    5.34422476421607    6.63495090024286
H         3.72888177889768    5.18203810984628    7.16059880420999
H         4.08996235444242    5.49313254779485    5.46172837595830
C         3.10835624422215    2.87552571868239    5.83358865224612
H         3.17223276461121    1.80422272058825    5.65110978620680
H         2.65536102964263    3.34427724770438    4.96377737574844
H         2.45612710986963    3.04041213304948    6.68839341226701
C         8.68838990061238    1.20928612270827    4.32678619893921
H         8.80708411929802    0.97927128064699    5.39054079478711
C         9.93019369024349    2.00437680255387    3.92194693742300
H        10.82033900386333    1.40649587285754    4.09920463519107
H        10.00265556972357    2.90140459332410    4.53608479058207
H         9.90528404030365    2.29635020832732    2.87474906604163
C         8.59075719952546   -0.10732335099428    3.55336893705277
H         9.46176052310171   -0.72324173791115    3.76286319967974
H         8.54459489662829    0.07005324422285    2.48094237647287
H         7.70033292488918   -0.66035703123901    3.84750157451308
C        10.17619023643791    5.58314570620823    7.65308781648907
N        10.88951307035367    6.15168381127222    6.66126062780812
C        11.43395069582090    7.34172391783211    7.07890680350814
H        12.02738704891297    7.95168820516206    6.42967728444111
C        11.06109314171403    7.50962559111617    8.36603406238968
H        11.27582991017576    8.29437583906559    9.06145872949777
N        10.30715339373785    6.41521768750189    8.70865295332994
C        11.19624852922111    5.58501530949174    5.39085303978651
C        10.36702294380716    5.85314359344845    4.30104056049554
C        10.74171146591240    5.36574083696450    3.05540484190549
H        10.11348873567097    5.55312550616826    2.19874926542666
C        11.90794841774961    4.64205623488286    2.90108139185496
H        12.18999317279367    4.27436984294045    1.92533394272004
C        12.71210113150837    4.37925554699225    3.99308632475386
H        13.61513097136880    3.80405011966117    3.86062723208089
C        12.37616252892659    4.84677699066623    5.25656105161135
C         9.06485146052166    6.59080778657365    4.48046955470874
H         9.00856226710867    7.01211856334213    5.48803223242899
C         8.89369722694692    7.72923379125001    3.47502760853128
H         9.74283241381444    8.40887411546453    3.51851948580712
H         7.99185509017950    8.28900990296527    3.70968263833685
H         8.80464834299793    7.35376961953351    2.45848274465795
C         7.93254024368755    5.56891109663983    4.36718965553158
H         8.09602074380412    4.76067572857313    5.09755720767147
H         7.89272861316706    5.13398304497427    3.37136389274224
H         6.98047053116062    6.04199325902800    4.58998681922072
C        13.27697234050828    4.55834725140169    6.43350364085646
H        12.84197329992363    4.99794350836171    7.33450598098716
C        14.65744605506246    5.18706541033856    6.22554977450042
H        14.57041539756076    6.26020812719494    6.06499091019375
H        15.15847771266332    4.75221428011378    5.36450292601306
H        15.27884586226101    5.01994766477291    7.10272590149847
C        13.38202910375102    3.05029889333432    6.66599871476105
H        12.38844339572967    2.63312414246273    6.80779207773981
H        13.97701038389840    2.84941526946807    7.55472091142002
H        13.84977677285160    2.55278041542019    5.82041968689871
C         9.80607729997145    6.18716406198396   10.01944799280149
C        10.35890123033595    5.13525842018583   10.76873150204960
C         9.91500647387728    4.95994196603852   12.07098668791219
H        10.32196572613794    4.16736012061109   12.67559219148652
C         8.96825807723132    5.80576425931455   12.61896192393535
H         8.64248122019057    5.65886598855686   13.63844169248793
C         8.45680010640274    6.84923703529069   11.87589172800000
H         7.73657906706403    7.51660601036073   12.32397765541355
C         8.86318052235896    7.06398427866591   10.56271596023344
C        11.50199121047284    4.30990193236905   10.21314930299975
H        11.28771033755429    4.07034107342620    9.16334364257533
C        12.79512114005922    5.13325310743251   10.29339923874360
H        12.72341892027247    6.06109582833496    9.73064682564438
H        13.62837590438245    4.55638361690205    9.89839483197611
H        13.01084456021984    5.38235837875455   11.33144058240392
C        11.70959510521444    2.98170605725541   10.93448901039714
H        10.77628694995211    2.42956244075244   10.98327302038137
H        12.09668370082050    3.12966700375315   11.94104681861796
H        12.43193085001649    2.38462201796116   10.38257020304001
C         8.31329074441424    8.24666088862260    9.80071033041977
H         8.66573863467125    8.20502064421776    8.76796611316132
C         8.79202024056223    9.55005718978295   10.44817007670402
H         9.87648071513329    9.56983499343893   10.54273568131155
H         8.36633309387008    9.66493062841657   11.44252411772662
H         8.48430729648647   10.40030333510901    9.84397080617500
C         6.78647929689355    8.20668030588960    9.72871339601451
H         6.48791733619733    7.34479321249396    9.14053794018827
H         6.42311349353250    9.10083138643644    9.22739637769470
H         6.32943459983824    8.15102189123465   10.71337987399673

