38
CSD_code = ATIVOP | q = 0 | S = 0 | Stoichiometry = C13H8ClF12IrOP2 | MND = 6
Ir        4.77730137739375    5.51301013280027   10.84962369796269
H         3.59842673958574    5.88357645727991   11.75972597258290
Cl        6.84970754566559    5.57768273271989    9.54479883223449
C         4.00800331835613    6.85064870031763    9.40532930124347
P         6.15831682018213    7.27929326796831   11.12906363438024
P         3.43359155285313    4.14943387886503    9.61997079385953
C         5.55694164543451    4.32357200506222   12.16511047213061
O         6.07919530857446    3.65494604253724   12.91416708000160
C         2.85522623378378    6.53436238561693    8.66807602278497
C         2.36812290913082    7.36980538966768    7.67491473751032
H         1.48074416591939    7.08810614516703    7.12810589031327
C         3.01567538721574    8.55554763082290    7.38415277396730
H         2.63601499820334    9.21041625565238    6.61612483233459
C         4.16214099941124    8.88445804827052    8.07868953093282
H         4.68927183939970    9.79902255333968    7.85082963632170
C         4.65590886568101    8.04696562669816    9.07125260778437
C         5.94116261609418    8.45582083378842    9.75780021277990
H         6.78718883131569    8.37625409413013    9.06533341550798
H         5.89357424109397    9.48588933413129   10.12890616413829
C         7.95450869703595    7.44977015471251   11.72782191638616
F         8.79963720112103    6.51213195106571   11.32938587799917
F         7.99163668601907    7.46491036050393   13.06267262088106
F         8.42562971335572    8.62572190420008   11.29157529330896
C         5.51412643953503    8.46129226743476   12.51905474893126
F         6.24088397266644    9.57240995657372   12.70101434981906
F         5.40121783705704    7.84631024101504   13.69823724457030
F         4.28317448810659    8.86051401657926   12.16116804860648
C         2.13414660667641    5.23271388602694    8.95048968869917
H         1.64582983184667    4.81370584969568    8.06391664269727
H         1.38237502026057    5.37352213460349    9.73787681676663
C         2.44819162763053    2.63113673571608   10.18345784033727
F         1.36769523016372    2.41715917372490    9.42974251479540
F         3.18141527487127    1.52061390869187   10.18139018573675
F         2.02733147292341    2.84754475006226   11.43247729183957
C         4.11735809373239    3.39850162218864    8.02213345049618
F         4.57680398518086    4.36913194912046    7.23466171185810
F         5.10585229180080    2.54218471120920    8.25656883530792
F         3.16377013471445    2.75171291201902    7.34047931219311

