65
CSD_code = ATIVAC | q = 0 | S = 0 | Stoichiometry = C32H20F6O6Ti | MND = 6
Ti       43.23416517772878    4.10993933268298    7.44105353184648
O        43.61071863079016    4.38888077258706    5.59618990055298
O        41.98895928160006    2.71095192956935    6.87117024776789
O        42.57083994585356    3.90038924996769    9.21478329612922
O        41.61205672041118    5.26927478131947    7.13653123515985
O        44.54394427458261    2.97855441860788    7.59403710204683
O        44.03534675293825    5.58188456416671    7.93521055359972
F        40.20531904175088    0.69878979698537    6.02290133883683
F        39.25389802984499    2.44828654598329    6.84476448511267
F        39.27334369978690    2.12554340830693    4.71587650383471
F        39.65971390691237    7.88392192931410    8.42152645326592
F        39.59969289392519    6.94261983556941    6.48838755889603
F        41.29700754392276    8.14023332253351    7.04879416296169
C        42.88719978089483    4.20628590886326    4.57788141332447
C        41.68791431311694    3.45141111644714    4.63385648893506
H        41.03419126496561    3.39927230257901    3.78086130068287
C        41.34228948396398    2.78518885316536    5.79352672775643
C        41.97355812643450    4.74153493499092    9.94179441542130
C        41.22979338262043    5.82446704274134    9.41256605653263
H        40.77338737546391    6.53986215196117   10.07565850085863
C        41.13615792919391    5.99959226577759    8.04519772063552
C        43.33312556092913    4.81689982037620    3.30706782927880
C        42.81685848908214    4.46310677157759    2.05916431391481
H        42.06520962761832    3.69503501866545    1.97225334371658
C        43.28693379536940    5.07966160201906    0.91461798446123
H        42.88444048745092    4.79920151919548   -0.04717677336307
C        44.27190131190056    6.05194968155444    0.99449822370738
H        44.63011913253531    6.53161805920246    0.09594024309212
C        44.79957746931463    6.40137770071011    2.22789381406906
H        45.57204846790886    7.15249001422703    2.29391798410064
C        44.33845619148514    5.78683916735933    3.37490669160686
H        44.74246627959010    6.04498457505666    4.34434435556037
C        40.01093206809184    2.00945104056456    5.82901409910924
C        42.10430206851439    4.59712628646671   11.40756914743042
C        43.28557540051830    4.03756791923553   11.89886941512214
H        44.05212590451500    3.74274315072715   11.19552767634836
C        43.47088187577126    3.88728696972193   13.25938806720124
H        44.39145847390144    3.46345848886820   13.63084389672875
C        42.47541689640223    4.27728245192022   14.14189161410416
H        42.61706947064160    4.15590295788653   15.20541372554586
C        41.29391608844934    4.81937488805182   13.65972807725736
H        40.51530066206991    5.11224225588408   14.34797986026403
C        41.10593160191471    4.98617444574015   12.30004798846003
H        40.17482230249267    5.38790423027718   11.93145973364969
C        40.40682603258873    7.24623200740175    7.51045827994148
C        45.33089171193157    2.98768115639634    8.66514947602392
C        45.26657961505177    1.92697578177347    9.57671701721707
H        44.54965462964162    1.14023905048908    9.38129518960050
C        46.08477175923775    1.89738256785342   10.69005635313286
H        46.01353436564643    1.07388318798545   11.38536068556511
C        46.99226298065069    2.92174604631098   10.91204612519439
H        47.63408266850848    2.90232129036996   11.77983681545069
C        47.07498795967054    3.97099485536600   10.01388356758558
H        47.77562911438806    4.77495595688336   10.18832205463102
C        46.25845958431799    4.03072130118967    8.88798589045260
C        46.39142608175059    5.15664191326981    7.94121976723612
C        47.64851022706259    5.54187568131913    7.48544451149372
H        48.51015000938862    4.96868609383005    7.79641010561638
C        47.80960713416272    6.62202103923357    6.63605976947988
H        48.79493590575579    6.89369941547087    6.28888131371551
C        46.70322840217039    7.35678720557908    6.24145651250993
H        46.82107421596197    8.20926610605190    5.58840892210907
C        45.44332845675446    7.00294215824778    6.68641410035182
H        44.56438814234819    7.57085130114629    6.40636828487710
C        45.26310381982702    5.89483240443837    7.52099495229268

