54
CSD_code = ATIWUW | q = 1 | S = 0 | Stoichiometry = C29H23MoO(1+) | MND = 12
Mo        0.00939011555056    5.05618355549276    3.84992335206524
C         1.10285465372652    8.30780638477027    3.12450341389860
C        -1.96134870880591    6.38407440144265    4.06229759887449
C         1.56056532477673    9.35996137450541    3.91845129450667
H         1.19560206269293    9.46943573800561    4.92902093538223
C         0.02738294352310    6.98458112040379    5.06698015772070
H         0.71470309971633    7.31134312374155    5.83713650993535
C        -1.22049845234048    6.36792726166145    5.31092331513168
C         0.13133106517364    7.34637577054447    3.67033412506030
C        -1.72429271526817    6.05870295606625    6.65221734520925
C        -3.27310724496075    5.98387147426450    3.73026516531481
H        -3.88703452616528    5.46374580265934    4.45196269654826
C        -1.70958623638078    7.39102444616216    1.82819798904712
H        -1.13082397016043    7.97050238933059    1.12416444151188
C         0.88587528023574    2.95499107640372    3.82567572659995
H         1.87894832857062    2.59522014258049    3.57130983243407
C        -2.99950797172109    7.01905195185242    1.55461498355338
H        -3.44998387007385    7.29240693811637    0.61353258837904
C        -3.04481956430038    6.33809632495660    7.00419185647444
H        -3.70755536089955    6.79702925842324    6.28629152752147
C        -0.99417019573148    3.35629454058756    5.07168515238826
H        -1.66328241292864    3.41424766872047    5.91847107944932
C         1.56294898494601    8.20100849956685    1.81171142378656
H         1.23214190998890    7.37760518398589    1.19422912473643
C        -3.76351080423711    6.29221588636731    2.48792044181161
H        -4.76896495119128    6.00257131993073    2.22431266386449
C        -0.23514021507365    2.94594241666282    2.94859569760901
C        -2.63872657016923    5.53852978665539    9.23196381055691
H        -2.99426052767647    5.33321422603972   10.22926957085933
C        -0.86203839667582    5.53831992550174    7.62028375858230
H         0.16834311433196    5.33010772728673    7.36311826175931
C         2.45641977443425   10.28085138242477    3.40724408375993
H         2.80065604947236   11.09179554168432    4.02998954166689
C         2.90963413781352   10.16511755725820    2.10380422066118
H         3.61113068765444   10.88304331313509    1.70910555096679
C         0.05656807669054    4.67892739797686    1.60085257931647
H        -0.76953054548844    5.19863640321966    1.12189527828177
H         0.98860841318150    4.99436721240410    1.14063371691784
C        -1.31906647053260    5.27664503947901    8.89719873565873
H        -0.64426703306966    4.87010882148950    9.63449429323263
C         2.46010799989764    9.12379126905255    1.30800802161043
H         2.81260769103119    9.02739444975772    0.29281096370797
C        -0.12369372107279    3.16679550125991    1.47928761366100
H        -1.02245521753568    2.87545121416771    0.93657851245269
H         0.74051913960836    2.66129986056924    1.04717987331788
C        -3.49471659456779    6.07695783096206    8.28605477590345
H        -4.51721905533248    6.30165852969327    8.54705421171393
C         0.40517229932205    3.18879329210070    5.14951497217073
H         0.97991363321857    3.06215196153613    6.05500419301613
O         2.96882814988056    5.85396453130822    3.62201317226873
C        -1.15593367447201    7.04257224887725    3.07605832507640
C         1.87562547874378    5.54227774586878    3.68412323959552
C        -1.38463216238576    3.23440874972534    3.71595135983299
H        -2.40071124496087    3.19140147335886    3.34708692464227

