44
CSD_code = ATIXAD | q = 1 | S = 0 | Stoichiometry = C23H19MoO(1+) | MND = 12
Mo        1.89349417217134   16.24062569940119    7.88697579496315
O        -0.09981352380231   17.15102400192843    5.73104344683999
C         2.66497578795461   18.41150932517862    8.74642597385818
C         0.68278921239141   14.32171703727210    7.72204177922867
H        -0.28187811972491   14.11639934800411    7.26614902100837
C         0.61610455757987   16.81732366489480    6.54977987921472
C         4.04057228993254   16.88654431648769    7.66300897759921
H         4.92466439876773   16.29265030673044    7.46797751838696
C         2.93233297509862   14.18312590342366    8.12851573665528
H         3.97107128778885   13.90498989444216    8.02133300876148
C        -0.08692874637214   15.27557729000822    9.97130226144291
H         0.10875254010065   15.14888260579564   11.03561748587612
H        -1.11605284606604   14.98672475837420    9.75505101875133
C         0.27783478684983   16.66158725057197    9.44040266439931
H         0.69502473257525   17.27262435253101   10.23778637436974
H        -0.59515834766194   17.16339505041561    9.03197329490091
C         0.36750718950722   19.94269486749209    7.13175677104992
H        -0.08568514193489   19.42585805860085    7.96715566988086
C         3.67811564941394   17.42059213359141    8.95346755639034
C         1.61786480975340   19.53462097031204    6.66486717378199
C         2.35706872509919   18.45027355868503    7.32877647660029
C         0.89621904604219   14.55978848030839    9.10919523658834
C         2.17646394944205   20.18689266120196    5.56503671456810
H         3.15310237437102   19.89720233874542    5.20681446406680
C         1.95218460635515   14.06561954074312    7.11944852167696
H         2.10750811173556   13.66869985022305    6.12667092389433
C         1.49831099989720   21.22420378471385    4.95182048618448
H         1.94188918611848   21.72369903194301    4.10468685078471
C        -0.30549542437530   20.97851690338597    6.51223705205774
H        -1.27405166050992   21.28174987804258    6.87832194933878
C         3.29765906501814   17.56728049488436    6.67896198007300
H         3.49441002379738   17.54752726085711    5.61468206927284
C         0.25749122089109   21.62147768966943    5.42131139432357
H        -0.27051781739968   22.42837892214835    4.93811655366893
C         2.28703008275502   14.51209440654446    9.34658404045398
H         2.75053237560896   14.54784572811717   10.32332898633340
C         4.22201291598900   17.22455747533049   10.23787548143164
H         5.01027473437367   16.50071570734876   10.39121148707780
C         3.76870992679489   18.00852629124307   11.26747108549903
H         4.17990685568899   17.88330272513289   12.25691029671475
C         2.25579563701921   19.22977513294524    9.81663912523491
H         1.55231676415735   20.03172222058999    9.64938724331423
C         2.80641881448569   19.01422034608736   11.05422723270025
H         2.51967182231888   19.64146273565106   11.88355294078651

