35
CSD_code = ATIZIO | q = 0 | S = 0 | Stoichiometry = C14H12ClN2O5Rh | MND = 6
Rh        1.28944348075768    6.69263598265427   11.46534964014978
C         1.12020307416038    5.80761037708305    8.81351910598660
C        -0.02874781378539    5.11089702052756    9.51383028174355
C        -0.83674382807101    4.20600542542977    8.85173465845415
H        -0.59983321244981    3.95983079831375    7.82894520065087
C        -1.91251317665316    3.66257715269352    9.53652887547064
H        -2.55984494248907    2.93844748458274    9.06604830838284
C        -2.15083029240719    4.08829681215734   10.82892793657118
H        -2.99671572740020    3.71212118793265   11.38290075336519
C        -1.30707910083628    5.01609749061765   11.44399628785036
C        -1.59422151151302    5.50797613389912   12.81508743857000
H        -0.87684385827417    5.09162857346940   13.52272810139504
H        -2.59874107233858    5.23307983244013   13.12335374872100
H        -1.47873464645139    6.59151834487187   12.84911463709622
C         1.92799266923347    6.95495748068270   14.17924379329056
C         2.98592178442862    7.77209199987725   13.46567376496156
C         4.01645656339563    8.38187692004890   14.15583013311432
H         4.08826540368669    8.21876869910989   15.21933528114339
C         4.90402814162425    9.17465487665341   13.44498900849197
H         5.73464444281060    9.65544030172202   13.93864782313117
C         4.68590467048788    9.35462768601763   12.09279760482754
H         5.33624575807097    9.99039760641611   11.51248076409736
C         3.61911140998767    8.72282850026503   11.44957424659252
C         3.35777736937941    8.95801567243098   10.00716483901313
H         3.60876690751016    8.06887944270191    9.42839592155006
H         3.93922273637018    9.79831405669717    9.63932172883020
H         2.29502279835481    9.14552008825744    9.85222838760657
Cl        2.65872801820228    4.87107938204041   11.64943703010899
N         2.81242302369891    7.91284456168863   12.14298793105898
N        -0.24009756001918    5.48073609614196   10.78584937191292
O         0.24526192365286    8.08180879269866   11.32371843568164
O         1.76821360664671    6.63032823577991    9.57125015529693
O         1.35691982739838    5.61918421441230    7.64349906019164
O         1.03066314219265    6.46345667689714   13.38912893427372
O         1.92972999063811    6.82726609278897   15.38098081041747

