71
CSD_code = ATOBIV | q = 0 | S = 0 | Stoichiometry = C30H34Cl2NiP2S2 | MND = 6
Ni        5.47338482747186    4.95633724795529    0.00004432143569
Cl        5.65446946497727    6.89411310025199    0.85334611071864
S         8.33310465029845    4.79656192870447    0.00032839939484
P         5.58087200832205    3.94549751102478    1.91094837755434
C         5.36454197540025    4.94057088312692    3.42638867041190
C         4.26374633836829    5.79589053988410    3.44532766285919
H         3.62701195026343    5.85637184797348    2.57151161233941
C         3.99669390876987    6.57284502363714    4.55589322957891
H         3.14216551794395    7.23322796701007    4.55774344930884
C         4.83116396563078    6.51005237303482    5.65996620272778
H         4.63071340315996    7.12152566740937    6.52754166817237
C         5.92778026359197    5.66595246696120    5.64651500863686
H         6.58289487318112    5.61647836200777    6.50457037945641
C         6.19582938711241    4.88204360592311    4.53713588152382
H         7.05790900908686    4.23182924873112    4.55203417669530
C         4.57534643413166    2.48043159507044    2.31616189929546
C         3.44643965063940    2.61075636290600    3.12020104888172
H         3.18447386181198    3.57560133786648    3.52992766840433
C         2.65493865011626    1.51169574837787    3.40075189788832
H         1.78355392211734    1.62700111897419    4.02923937133064
C         2.97411971854569    0.27094080056364    2.87560822623268
H         2.35374975690923   -0.58605067111810    3.09300485224616
C         4.08901989870244    0.13678496318065    2.06568648766012
H         4.33949913978767   -0.82625427471390    1.64572100802944
C         4.88441819373845    1.23209115121072    1.78336974388405
H         5.73261496644857    1.11458957104546    1.12814188667998
C         7.29990094305919    3.28257567350406    2.04109906749282
H         7.44594097879331    2.82023379405423    3.02145693009463
H         7.42229932294451    2.51046031782352    1.27666550960512
C         8.30415060939833    4.39646645777481    1.78762246407930
H         9.31420813148350    4.09506153202605    2.07346845399056
H         8.02695378643340    5.31095383690973    2.31663573927652
C         8.97516475896687    6.48908386804658    0.08831139358141
H         9.92158717818753    6.48018887964188    0.62135241684401
H         9.12145717765431    6.82533872367488   -0.93316916699374
H         8.24467715970712    7.12353594079211    0.58346540348072
Cl        5.29201801092819    3.01867729187145   -0.85364953170019
S         2.61377579211999    5.11609219777847    0.00007585711295
P         5.36609091899631    5.96731877214779   -1.91083720850276
C         5.58237108363732    4.97211218433663   -3.42622596959231
C         6.68336699151308    4.11702884488697   -3.44513646491009
H         7.32018563305938    4.05685717687479   -2.57136906458415
C         6.95058293482715    3.34001505464432   -4.55562365937687
H         7.80518042532703    2.67971084235769   -4.55734591439432
C         6.11604063190712    3.40244155432473   -5.65966286074286
H         6.31654281968002    2.79080966193514   -6.52711658191995
C         5.01917193842258    4.24621045464637   -5.64623516543258
H         4.36390154170051    4.29521435232396   -6.50419153298971
C         4.75097439175248    5.03022246384077   -4.53694075764624
H         3.88868925844999    5.68018280345014   -4.55190447102537
C         6.37143284148707    7.43252910269799   -2.31634293672493
C         7.50023246932074    7.30241014785125   -3.12060808945766
H         7.76238920792204    6.33760871665857   -3.53031245874898
C         8.29142599481109    8.40162836466051   -3.40144733153259
H         9.16272925853418    8.28647542417695   -4.03008788791854
C         7.97207803437539    9.64238365537055   -2.87639933596706
H         8.59215694476976   10.49952179080850   -3.09409374921377
C         6.85747352502188    9.77629886491397   -2.06604723120756
H         6.60704699696088   10.73926981128089   -1.64592790545768
C         6.06239212744003    8.68082864210242   -1.78342243125847
H         5.21440857515654    8.79818615285901   -1.12789326339051
C         3.64694995842809    6.63000821996686   -2.04100906844063
H         3.50058254819184    7.09217885221770   -3.02142094440740
H         3.52459318548084    7.40219142162745   -1.27664091645054
C         2.64285908443931    5.51601779030350   -1.78727764972808
H         1.63281939016353    5.81729905020898   -2.07335751060388
H         2.92017837761824    4.60140676311220   -2.31600607405076
C         1.97234428685089    3.42327188372155   -0.08817289035013
H         1.02600157840941    3.43169504760363   -0.62136337818142
H         1.82599482435259    3.08680254027026    0.93322430390233
H         2.70322263478965    2.78920960095694   -0.58324737791846

