69
CSD_code = ATOGEW | q = 0 | S = 0 | Stoichiometry = C26H29ClF3NO6PdS2 | MND = 4
Pd        3.52073700076505    3.72777733201972   17.50438656146554
S         2.27017927550601    6.28897805528375   19.19401522325079
S         2.46973069161447    3.03725231760062   19.83532043643599
Cl        1.04530939265647    4.30389653143332   25.77419175910070
O         2.93745444306668    5.79558507785497   20.39537272390699
O         3.03446605280676    3.87843024164371   15.60115418641059
O         2.62896350780459    1.62045193120699   19.65572268533283
O         1.54343112504106    3.70813989851814   18.97536709211180
O         0.84969960977323    6.37377692876328   19.26552529133201
O         2.89485751294067    5.82479218582748   17.96632544535860
N         4.04948771716883    3.64556287227162   19.58187171882719
C         3.88045135069045    1.74181837175502   15.50019171833907
F         2.43624054543976    8.77269111549306   18.13358937429713
F         2.44836912180071    8.73362162886311   20.28938802709739
C         2.56877469005320    2.89034825752516   13.50222454653310
F         4.19178664487990    8.10081733132960   19.19043808528955
C         4.95924670422673    1.04510907356395   17.53772227306590
H         5.23481013412905    1.21715412982129   18.57114511147554
C         3.16432892922025    2.85039163190888   14.89838947085544
C         2.04947468317509    3.37448070936154   21.53333584749262
C         4.25827574686856    0.52644297432387   14.91580302217027
H         3.99216648084704    0.30369085708762   13.89474189771604
C         4.23763424516618    2.00944623983588   16.84982949124274
C         5.33616083815881   -0.15753433293200   16.95097064044005
C         4.97617975521359   -0.41910543548021   15.61990180504654
C         3.04963758972722    2.83789419064535   11.04604710112224
H         3.84377866052844    2.74157044387538   10.29719351413319
C         5.36409718182457   -1.71219888380403   14.96903471626298
H         6.44670492352038   -1.83060105424561   14.96420437268102
H         5.00902862609744   -1.75029997047128   13.94277608546842
H         4.94113221058503   -2.55602210136963   15.51210484818002
C         0.74908716145011    4.59505092352932   23.11672825760008
H        -0.00877145853076    5.32571567848223   23.35014036017188
C         1.54437051970703    1.75698630003134   13.32884425135959
H         2.00766880960627    0.78400746858228   13.48382999090868
H         0.75803085171985    1.87186415322571   14.07728057976657
C         1.84359971985569    4.23003212031670   13.30540569349819
H         2.55067866933993    5.04953739136957   13.44256744978261
H         1.06815204698070    4.33769051164675   14.06567708652343
C         2.71909291548643    2.71398513917085   22.54715696356388
H         3.46381997899580    1.97352470617964   22.30061829708627
C         0.94407873085285    1.82467387428498   11.92410113767383
H         0.23019967691165    1.00224857473492   11.80381204702365
C         0.22450356099599    3.15794457993373   11.73530070793431
H        -0.57849113218273    3.25376333613936   12.46845024986409
H        -0.22244589276097    3.20242100431765   10.73978288790830
C         1.06283841972961    4.30621484725362   21.80017870283424
H         0.57781258432545    4.80903921103062   20.97823650029027
C         6.11483690502816   -1.16579590317103   17.73364518344549
H         5.56324714374510   -2.10258787081687   17.79893384864558
H         6.30872316491242   -0.80824464342306   18.74064363350361
H         7.06656472169634   -1.37711928700319   17.24734780856884
C         3.67599193531572    2.78252134699351   12.43996019027392
H         4.37390758596920    3.61201257355389   12.56853250366881
H         4.23845529245702    1.85720323600960   12.55376988855967
C         2.05524398238040    1.68891685736914   10.88359920478017
H         2.56719256701146    0.73155777472334   11.00622063861616
H         1.62637896519256    1.71100444496171    9.87973409841068
C         2.32860004923154    4.17047026810304   10.85769157796926
H         1.89656917864631    4.22147453059881    9.85599822317085
H         3.03760936539037    4.99433261889831   10.95968036650795
C         2.85206107954873    8.08030571467340   19.19517161792193
C         2.40724377455774    2.99621242040801   23.86549268768763
H         2.91641360694587    2.49614928456202   24.67413215588607
C         1.22796701662008    4.29612437636335   11.90942995047673
H         0.71597214539928    5.25635153646899   11.78915614782202
C         1.42661010780782    3.94183621071676   24.13900813395933
H         4.74562370599975    3.07122252281697   20.04775715785539
H         4.04126715239575    4.62329361742969   19.92359874607249

