79
CSD_code = ATOKUP | q = 0 | S = 0 | Stoichiometry = C26H38N8NiO6 | MND = 6
Ni        5.70511107714721    2.72488135300119   -0.00628217543178
O         6.97827619166421    1.39477658244803   -0.00126914633371
O         7.80127490685422    1.55650170672829    2.06575450342689
N         4.08144630820613    1.10839963126990   -0.00298521645877
N         2.70561569555418   -0.36669696077715   -1.35642878374497
N         3.53352222474480   -1.12927502973833    0.77500931810430
N         1.81694427912718    0.55476449519125    0.68538675455554
C         3.72458009041156    0.66969710167013   -1.36666444680136
H         4.61891179258658    0.26385607328244   -1.85044972628819
H         3.34679826571627    1.52709104109935   -1.93147925329230
C         1.52061312160196    0.15216363347078   -0.68304099365551
H         0.75056044400736   -0.62420837870078   -0.66994456621727
H         1.14825762501058    1.01852021749838   -1.23668656254884
C         2.84181492013001    1.58165760146360    0.65071536219627
H         2.44521557066828    2.43655061664848    0.09926636832356
H         3.08564156387005    1.88965677484086    1.66965728418905
C         3.20519747290630   -1.50440864395504   -0.59344248150903
H         4.10325221958606   -1.89481903735419   -1.08098649301189
H         2.43965825177417   -2.28521098945313   -0.57701354075085
C         4.54064345311782   -0.08434149702353    0.74220930204926
H         4.77968736077912    0.21456757459698    1.76498328984061
H         5.43830092463029   -0.48103857593224    0.26123925425643
C         2.33320867109403   -0.59945611332379    1.40848928845778
H         2.57410867864230   -0.29965677951269    2.43163233735421
H         1.56691027715989   -1.37943466876861    1.43226870316262
C         7.78855107397814    1.07873203580884    0.91982946838563
C         8.80671382644500    0.03915372621080    0.54926697813283
C         9.00848729057313   -0.31267065504696   -0.78060340719527
H         8.42540742571583    0.17738921794124   -1.54575772800425
C         9.95246201259939   -1.26904873562913   -1.10471885746713
H        10.11276659343231   -1.54079154985836   -2.13794794231725
C        10.69506053546225   -1.87805260933957   -0.10543173529708
H        11.43122298983456   -2.62616823369005   -0.36128769585620
C        10.49715838932417   -1.52730228672795    1.22034787720062
H        11.07774308440435   -2.00208229229148    1.99761496173071
C         9.55662019465109   -0.56891289135106    1.54907071778864
H         9.38661970839497   -0.27769905092541    2.57462232784089
O         6.00211504504599    2.85205793670016   -2.30345285449685
H         5.95874824306559    1.96907924428420   -2.67663686863142
H         5.09257970102953    3.24832808094083   -2.40193537844561
O         4.42883577129264    4.05085020938616   -0.01025265848021
C         3.61725250917824    4.36634145635184   -0.93058699515204
O         3.61564404123780    3.90396290225849   -2.08265888029767
C         2.58495470969221    5.38844484132356   -0.55067077274027
C         2.36039279445823    5.70451567561437    0.78456610738552
H         2.93898437035415    5.20261939877327    1.54548466153520
C         1.39934507711525    6.64014010521411    1.11878771769297
H         1.22131237472931    6.88399620220052    2.15603352199286
C         0.66300771786646    7.26445814259662    0.12431821597958
H        -0.08595235174685    7.99694686416750    0.38807034240124
C         0.88428080768467    6.94986076210281   -1.20684081960461
H         0.30831981207136    7.43632558148544   -1.98030025692295
C         1.84160877337398    6.01185143174427   -1.54587747436752
H         2.02849718396726    5.74732002487028   -2.57569522278408
N         7.32049558735577    4.34681859234891   -0.00470792047917
C         7.64790707278720    4.80581518508735    1.35966957783838
N         8.66038379971036    5.84841964423879    1.35533703422674
C         9.86145848693932    5.32730569297620    0.71305860918048
N         9.59494359579035    4.90402998331673   -0.65531853107592
C         8.57548633900066    3.87169914146944   -0.62683761953884
C         6.86980640682654    5.52680910438272   -0.77538690609541
N         7.87155726500571    6.57675276059441   -0.80254765682160
C         8.16980256614140    6.97253989600179    0.56692777935455
H         7.25969546349236    7.36387252740197    1.03060154882371
H         8.93076770674720    7.75782606753850    0.55530919768213
C         9.08725675732192    6.04535003675486   -1.40435964467787
H         8.86882845952656    5.73040794489051   -2.42793206879393
H         9.84969730871738    6.82920679607587   -1.42334100127281
H         6.65271213381302    5.21243619472519   -1.79831889488436
H         5.96085223136031    5.92505432602259   -0.31770339912740
H         8.96564162557967    3.02710578514548   -0.05537191708196
H         8.35394903032903    3.54769827817905   -1.64592056395378
H        10.62721313674459    6.10789015788838    0.70432541800521
H        10.22745176148787    4.47102161100748    1.28608042227408
H         6.74146774364195    5.21160728454198    1.82036982513210
H         8.02097529764677    3.95800831034137    1.94186407704900
O         5.41033623072236    2.59424448437603    2.29267243995381
H         5.44805941999161    3.47762703419214    2.66547945671637
H         6.32296348113875    2.20476989675755    2.38875500769969

