52
CSD_code = ATOLAY | q = 0 | S = 0 | Stoichiometry = C23H23Cl2N3Pd | MND = 4
Pd       13.91955504047917    5.79057490953271    3.34057036858310
Cl       14.90094846703998    5.05368400161782    1.48101952493207
Cl       11.95237944212604    5.18699943401884    2.45009765409446
N        15.64763323829426    6.50504727733399    4.09119433055018
N        13.30361780491554    6.13452105753409    5.26940380701403
N        12.23196382739035    5.51150852251753    5.75308385428672
C        16.77501601465219    6.78565505082646    3.44645452534425
H        16.76373563178772    6.62666475437463    2.37462453126887
C        17.90884596195423    7.23612419168222    4.09741129750949
H        18.80101024058700    7.45590991478406    3.53451220244019
C        17.87668954031857    7.39101481452778    5.48118814715816
H        18.75090037821205    7.73163163990439    6.01501240338129
C        16.71281356197857    7.09925290480919    6.15635604598692
H        16.64184583398034    7.20045452275620    7.22782283375461
C        15.59357663456962    6.66311634389923    5.43307677372327
C        14.35283640204358    6.31397058527675    6.03673732655150
H        14.31259660684081    6.15574970120536    7.10777975833123
C        12.40608761082618    4.38544717197879    6.66978850119028
H        12.51213580202644    4.73574981920391    7.70915808427034
C        11.21150336592909    3.42522288924665    6.61115695650764
H        11.28460954795178    2.81489767930820    5.71015747882822
H        11.27278416551254    2.75991946340686    7.47423712719593
C         9.88670025762858    4.17261324333494    6.58305484262133
H         9.06279201344754    3.45824506643614    6.58024453832251
H         9.78306867826238    4.80817062419870    7.46578153127379
C         9.85276172668246    5.02047534463648    5.32085339914677
H         8.89129300149088    5.52170993794367    5.21415606618668
H        10.01282057460911    4.39326085305063    4.44270410645947
C        10.95766612239593    6.07868558487732    5.36527841217427
H        11.10266222088982    6.46119160625860    4.34280141226850
C        13.67121816579877    3.66137086204096    6.24081402719926
C        14.71667416425871    3.43426097608964    7.12271937977361
H        14.60644680900432    3.69542891340452    8.16680746889202
C        15.90803803605260    2.88653232389886    6.67455340246239
H        16.71405520807537    2.71739248235244    7.37311111644518
C        16.07180789908113    2.57961697254847    5.33542811754907
H        17.01125119978962    2.18160641040759    4.98320258289850
C        15.02157491085747    2.76948289566556    4.44870467645990
H        15.12823389693506    2.49803624421655    3.40733130405468
C        13.81837912675233    3.29328706305363    4.89937376557521
H        12.97687746339015    3.37374051639577    4.21219206460656
C        10.55705695488983    7.24782057707138    6.24337589256592
C        11.07499532695841    7.46513713779265    7.51163070023669
H        11.81910404915921    6.79992844088872    7.92202057770077
C        10.65161663661812    8.54240791792775    8.27296410201557
H        11.06627286755566    8.69546737912465    9.25888038092746
C         9.70298535178804    9.41684964978576    7.77681042998194
H         9.37267532198121   10.25495897388956    8.37194664764814
C         9.18432422349288    9.21303797449515    6.50836291695422
H         8.44862808011081    9.89510380358081    6.10891115720475
C         9.61113376944841    8.14078432939818    5.74894119259269
H         9.21330082317440    7.99047924549053    4.75600025490169

