23
CSD_code = ATOPII | q = 1 | S = 0 | Stoichiometry = C7H8AuClN5S(1+) | MND = 4
Au       25.88111566848016   -1.88578586824436    5.68373242008890
Cl       23.92779114953017   -2.76940757956902    6.30756828824364
N        26.91572792766679   -3.69179975601635    5.40739772966697
C        26.43838655155771   -4.91167081064082    5.58618009721383
H        25.40586344059607   -4.97109841435500    5.90355206200118
C        27.22081359125652   -6.03810416724634    5.37767139707049
H        26.80402232195539   -7.01989114866262    5.53164269015566
C        28.53512514400213   -5.86381819992433    4.97190282333442
H        29.17443042702588   -6.71636976913959    4.80092330179073
C        29.02694711962795   -4.57891055548200    4.78610328226061
H        30.04776066619380   -4.43452593355878    4.47093610956116
C        28.19001792036052   -3.49036414865596    5.01188154661495
C        28.59411376908632   -2.09096422711053    4.85081840370063
N        29.81843610896845   -1.72331555021913    4.46346213312726
H        30.00048672086326   -0.73445524994538    4.38006956110018
H        30.54509448316878   -2.38160094790695    4.24872555832765
N        27.66869021766242   -1.19779525046875    5.11518913839190
N        27.91228898352853    0.11660252811602    5.00797862700918
C        26.93051115652491    0.91008869335654    5.29334923314293
S        25.32445045737536    0.33152759342890    5.80429844972905
N        27.05458177354418    2.22919770842130    5.22391540876885
H        27.92586659032422    2.64922716264225    4.94503384606272
H        26.26967781070048    2.81653389118176    5.45346789263709

