61
CSD_code = ATOQOQ | q = 0 | S = 0 | Stoichiometry = C21H23F12IrN2P2 | MND = 4
Ir        8.56034694219615    3.74268566295346   16.10040401361208
P         9.12618031680684    5.82772292521446   15.65873045600116
P         8.23534230535474    1.87692010709695   17.22786969787928
C         9.61218696591756    4.20472769292096   17.82241826855226
N         7.44111565083400    3.31843708921525   14.33929855560037
C         9.53235853642975    3.40836282001463   18.98039989360732
C        10.25787981316807    3.70393960791603   20.12357959345815
H        10.17514238171933    3.06443076075511   20.99089952098493
C        11.07879611128150    4.81590754146380   20.16383505897424
H        11.64156101214293    5.04615095897763   21.05521962050046
C        11.16343423290374    5.63506008873122   19.05324667987150
H        11.79247477305675    6.51357934513418   19.07827823413031
C        10.44729652761190    5.33529078682350   17.90531202996862
C        10.56925583774163    6.24872364539958   16.70346904218094
H        11.47696005751961    6.00745644119907   16.13691182119569
H        10.60946670422492    7.30676932309118   16.98176839076578
C         9.64309777398390    6.64919378071457   14.01214065743865
F        10.29785854621148    7.80952259227723   14.11765390549773
F         8.59879242498185    6.84489954926102   13.19596852169001
F        10.47051081675742    5.79768936074581   13.37527602696437
C         7.94492914623359    7.22910827061124   16.14838095530351
F         7.57777507303392    7.06702005261617   17.42362629412936
F         8.46492958854509    8.45995987101222   16.04499579392761
F         6.82794863510318    7.20952911255357   15.40824970002199
C         8.59986518513424    2.21592391209158   18.99141817994060
H         7.65618986022750    2.49700943511955   19.47530106095908
H         9.01924311619589    1.35878756380320   19.52651046779789
C         9.33673035659715    0.34842311428912   16.92350626711678
F        10.55418393835666    0.75949270822281   16.54321256766958
F         8.85818547376553   -0.41492217156124   15.92931694211414
F         9.50814112999645   -0.45114050293229   17.98160948095530
C         6.64490216363685    0.83985590373202   17.40862325450131
F         5.67718783707902    1.63403363260601   17.89460110866284
F         6.21071592749982    0.38938237205330   16.22248401198967
F         6.73325679362708   -0.21312398634650   18.22881224703789
C         6.02373719446192    3.61931397953499   14.38511827847893
H         5.86788984949681    4.66987718446785   14.11046733384652
H         5.67947095034471    3.49009064483511   15.41476522302563
C         5.25727042811754    2.70130552887617   13.44114624850972
H         4.19554776190221    2.94218400938098   13.43871074884640
H         5.38238706343512    1.66830391463897   13.77290311227678
C         5.84051657518933    2.86948581100829   12.04618713033723
H         5.43732219851622    2.10551010233012   11.37438579958965
H         5.57565107136113    3.85569652648122   11.64171450687476
N         7.28489691730450    2.73267720549461   12.08516948291687
C         7.93908677874536    2.35935328279658   10.84981191237578
H         8.79584893497316    3.01558568948733   10.66944454862322
H         7.22174051494513    2.53033340558424   10.04414898496384
C         8.39657103966296    0.89755460024789   10.83312422954494
H         8.49558829257880    0.57384749825798    9.79539970545543
H         7.62951836641711    0.27957553398355   11.30459464185221
C         9.73169680834445    0.69446468750215   11.54340658153929
H        10.50009387585240    1.28379533313306   11.03665098946589
H        10.01723354532316   -0.35618331767464   11.46315286853535
C         9.69304176181315    1.08174470517362   13.01898012768629
H         8.92970654494536    0.49471980814936   13.53290625214700
H        10.65590346781988    0.83043469242741   13.46634693083434
C         9.42899271693753    2.57313094937115   13.25333110505512
H         9.80409215744463    2.84952419416880   14.24899972228331
H         9.97079592933594    3.17233178562708   12.51974792226022
C         7.96405729885204    2.90493287693343   13.23415729167127

