53
CSD_code = ATORAD | q = 0 | S = 0 | Stoichiometry = C17H10F22IrP3 | MND = 4
Ir        4.75796166736780    6.27934626203309    3.16897488622950
C         6.11228607494531    4.82426817840847    3.82941370972146
P         6.54402633966060    7.55999069819764    3.73523457941230
P         3.63541257489686    4.40092793243414    2.76675571307432
P         3.25757431714074    7.82254394655751    2.44761416135065
C         7.20377899994657    5.15595608098279    4.64766722330004
C         8.09328520721638    4.19627545370894    5.10761235787596
H         8.92251140641453    4.49428011509272    5.73196410964270
C         7.92165639119055    2.86683009144875    4.77306593732876
H         8.61085317647214    2.12019864109468    5.13471350888463
C         6.86034033643709    2.50458380325868    3.96524020051993
H         6.71865615839441    1.46982723224119    3.69056002548384
C         5.97614391619341    3.46457768691585    3.49768292020730
C         4.84120986382480    3.04430203134845    2.59164376231765
H         4.43166984483335    2.06016896659051    2.84233374567632
H         5.17996615509040    3.02641289245632    1.54884927392816
C         2.52473616100666    3.67152353795730    4.12108738893349
F         1.48048521510666    4.46399856946787    4.37836546908471
F         3.23010974474598    3.54879430533111    5.24729060578679
F         2.04661492978874    2.45968389907101    3.81547732204087
C         2.43037146129672    4.01281255859832    1.34376333377861
F         2.38364630342074    2.72183834415086    1.01737801957019
F         2.83902555480277    4.68566278201022    0.25564689696625
F         1.18070923573985    4.41750579795357    1.59874942319351
C         7.41784002021909    6.60009141409947    5.02415862343275
H         8.47861598347552    6.85940079954980    5.10644929361348
H         6.92992743699245    6.82111640102646    5.98143896461373
C         7.90314440426606    7.60747207016428    2.41965776762807
F         9.06583122921931    8.08413595497971    2.87498473293224
F         8.13073846815416    6.35980478154012    1.99301825443770
F         7.55778129904202    8.33263715570041    1.35552987563254
C         6.87855103096418    9.29826296119649    4.45430715089694
F         5.97706181708429    9.52768747600149    5.41843162475859
F         8.08168897762176    9.35159986240422    5.04440596579199
F         6.82303997880336   10.29640828118639    3.58406090412539
C         3.99382217579215    9.04883555686710    1.18544602383242
F         5.13771627856562    9.54632919164829    1.71061409435782
F         3.18672034231756   10.09124076726066    0.90840830955625
C         4.35788854775520    8.29858271980484   -0.10956200967842
F         4.94655144150711    7.13648518755844    0.21953045828286
F         3.25953978307612    7.99416189521892   -0.80258759517964
F         5.17528462190338    8.96371473207925   -0.90501146678384
C         2.80867035247436    9.17922812339835    3.72597463962699
F         3.81857042376221   10.05574476116050    3.88825060026394
C         2.56018474114930    8.43566906211739    5.05042667026820
F         1.71195522901370    9.89549085949662    3.40007939035929
F         1.69866946849449    7.43483652236844    4.81591317520145
F         2.07860070362703    9.17798749275929    6.02882172848938
F         3.69629693043465    7.86533497566391    5.47142818681081
C         1.60382653044763    7.61871858887603    1.70063033579365
H         1.16346956386265    8.57885048399784    1.42263199217647
H         0.95737415150267    7.10670737193386    2.41537928853913
H         1.69290703223207    6.99135474269058    0.81369844562980

