86
CSD_code = ATOSAD | q = 0 | S = 0 | Stoichiometry = C30H49N3OSi2Zn | MND = 3
Zn        6.61265613926601    3.58725316532227   11.59584493537598
C         5.62066454247220    4.32616094142665   14.18899794158538
N         5.37747984391764    3.58479765320144   13.12938991773447
C         6.56525241862782    5.35548583881427   14.23512401616379
H         6.61038046276322    5.88769684518000   15.17460635503257
C         7.38128241871086    5.86082026994326   13.22691279181468
N         7.48167176393030    5.27223021632784   12.05017888495308
C         4.82925283215184    4.11913518975992   15.45917954215085
H         4.57995414904866    5.07254752662187   15.91936207572666
H         5.44018305735081    3.55823070527754   16.16598587100251
H         3.91660135927375    3.55888198067391   15.27354226796597
C         8.08908278350635    7.15915723287405   13.52678415582498
H         9.06208373119773    6.96371805560325   13.97604130450518
H         7.50738863786041    7.74575970498669   14.23345864630883
H         8.23709494001550    7.74045308945197   12.61967285351727
C         4.28584373306790    2.68497459363429   13.10638266875737
C         4.40372747272929    1.39601485295168   13.64007097987898
C         3.32064540392631    0.53367446027732   13.54346385881884
H         3.39817856947036   -0.46597093546615   13.94325417523746
C         2.13966598955508    0.93521163428933   12.95122373902833
H         1.30174452256984    0.25566935587012   12.89639062920808
C         2.03266700934001    2.20842839676506   12.42406117770015
H         1.10560005705973    2.51097807213517   11.96323592377846
C         3.09845186548733    3.09393486197232   12.47955307371276
C         5.68503515907097    0.92700065695363   14.28787011081075
H         6.37334725991869    1.77427855455668   14.35626158604526
C         6.34778550009636   -0.13740101896693   13.41170474600052
H         7.26109432476291   -0.49495325563234   13.88285568069016
H         6.60036469615870    0.29089126961103   12.44490172023119
H         5.68199908899932   -0.98496851561505   13.26294290215783
C         5.43818729297044    0.38924743015259   15.70021416435529
H         6.38759309372635    0.18880464600839   16.19253057366667
H         4.87173170380233   -0.53822543467316   15.67165058495130
H         4.88305544157512    1.10793038247010   16.29936166257436
C         2.98522495886762    4.48640725522352   11.89813302472793
H         3.99643476371809    4.82148723004089   11.63097698894362
C         2.43077629943824    5.45468290269748   12.94756434830387
H         3.10651969353436    5.53037878288120   13.79430790841035
H         1.46221564992877    5.10977499009772   13.30498176397749
H         2.30845976463675    6.44628298848361   12.51643230887979
C         2.11869808044930    4.53522946258333   10.63825436369670
H         2.38903270930344    3.73652766202370    9.95126546069773
H         2.25392320910808    5.49123200188010   10.13522824112693
H         1.06363584522189    4.43799129704999   10.88334506777104
C         8.21407891520833    5.74321929652632   10.97094438534246
C         7.58469793932914    5.61188140552696    9.71472557897548
C         8.23412583996168    6.01147436186224    8.56244363955254
H         7.76148723735714    5.91867723473226    7.59754322781337
C         9.52122752366168    6.52899749605121    8.63720491419566
H        10.02057225815399    6.83855770246219    7.73210978206758
C        10.16175931588788    6.62601812841816    9.85626970406872
H        11.17187595984220    7.00277036070771    9.90994157663898
C         9.51671311858035    6.22993583017679   11.01669814518847
H        10.04132618856191    6.26177891688141   11.95773512724801
O         6.31736450131744    5.07710664540200    9.76317900273792
C         5.55768236259807    5.09194377288347    8.57307791279959
H         4.55952759538605    4.75704985386005    8.84600908493585
H         5.97006009119805    4.41107999061412    7.82507208035753
H         5.50090959045229    6.10658984231616    8.16573439296965
N         7.42643857702992    2.07335797016248   10.78844676061665
Si        6.63013512589212    1.33159247326962    9.45423487537278
C         7.35907369477267    1.91577645050325    7.77615357778904
H         8.16024091640479    1.25156480959528    7.46843730450846
H         7.78402195973223    2.91186596605980    7.85196131743835
H         6.61898693935101    1.91888773259707    6.98106067044483
C         4.78433034500181    1.81172802099277    9.59503387489124
H         4.67506747446510    2.75641049239782   10.12226318809838
H         4.23465580139803    1.06686358770794   10.16100298108594
H         4.30647536067421    1.90514269066557    8.62489028372791
C         6.66490194782644   -0.57600474510173    9.41462994533291
H         7.65610183699860   -0.95099593447930    9.19149618122587
H         5.99381756847203   -0.94529049381755    8.64497689915107
H         6.35218092475780   -1.00872655958879   10.35815471920523
Si        9.08774497781816    1.80772175829930   11.18190253719033
C         9.36861687062890    2.39805186980368   12.97870339789390
H         8.87957834541786    3.34940563212665   13.16731892547433
H        10.42614867830055    2.52317451421974   13.18815429262206
H         8.97657215944371    1.68109764752635   13.69193699433817
C        10.28744836922615    2.74347307877224   10.01861950542586
H        10.08970723479977    3.80995845208877   10.00217285106559
H        10.19513869986970    2.37764760996239    9.00135079057772
H        11.31987590777089    2.60321259427531   10.32388250000168
C         9.61386061216184   -0.02468160478666   11.11152230304178
H         9.75667620519306   -0.34579124454292   10.08613468705025
H         8.88262219710206   -0.68156229775845   11.56660872206880
H        10.55650459342180   -0.16630430510435   11.63046036566609

