67
CSD_code = ATOTIO | q = 0 | S = 0 | Stoichiometry = C24H30N8NiO4 | MND = 6
Ni        0.92380573950690    4.13787232555155   10.19793788918172
O         0.18450172257140    5.38349037145126    9.06412356626898
O         0.28606067098418    6.64593251122820    7.24272798203130
N         1.75094880499852    3.08195285922167    8.39211584361653
N         2.18885230496547    3.93956746679372    7.46000550346540
N         2.64661713390457    5.17061601307445   10.13495179991482
N         3.04388622079843    5.58642594141442    8.92231209169593
C         2.23207120050001    5.34408481128743    7.76295342480492
H         2.62718281884803    5.89548758208755    6.90848905644019
C         0.73568017954247    5.85552683191193    8.04844310580472
C         1.39518600423996    0.66374139387941    8.61254761280586
H         1.40348862068881    0.89468877365900    9.67441154969389
H         2.08290278936652   -0.15496661145463    8.41290162529762
H         0.39187283486083    0.34494923886508    8.32927181854470
C         1.79587331886621    1.87471428833379    7.85089189035643
C         2.25801068794007    1.96658858029605    6.52741568285514
H         2.39626808834527    1.16359641477641    5.83249622446949
C         2.49937325439309    3.30589372011470    6.30494345690322
C         2.98219732913175    4.01202013202332    5.09113486504393
H         2.26507862506927    4.76939299750696    4.77537808261124
H         3.10988373783158    3.29591133200729    4.28429882774587
H         3.94072854760678    4.49901692161293    5.27362194275912
C         3.52747424822130    5.20830523123912   12.44834499592342
H         2.62633520462371    5.62882001920926   12.88901689059485
H         4.39937601538063    5.61237460571924   12.95554957434788
H         3.49484699865999    4.12996020355736   12.59176611491614
C         3.59051887203860    5.51959489086377   10.99831836340307
C         4.61351718838729    6.19221838782201   10.31545995137381
H         5.50684691721459    6.60407059448968   10.73845158454333
C         4.23648593107061    6.21856242407171    8.98968958429441
C         4.92524425206216    6.79471562995400    7.80719437455038
H         5.17451335403962    6.01768946244071    7.08435695814729
H         5.84570398967129    7.27532731120648    8.12615471091338
H         4.29820008283504    7.53765597033299    7.31467140069133
O         1.66368787342995    2.89239724002379   11.33162864206646
O         1.56243555012978    1.62851096610202   13.15206769187324
N         0.09555465011619    5.19200203370314   12.00424189999676
N        -0.34241865710408    4.33355374638811   12.93556859733195
N        -0.79896710584215    3.10456167111174   10.26006802503681
N        -1.19572020356431    2.68676426113052   11.47218675440523
C        -0.38444404467641    2.92915273716522   12.63190600891143
H        -0.77939817332404    2.37702809723445   13.48597080476115
C         1.11224445105767    2.41866078173019   12.34637813504956
C         0.44972672976134    7.61054518220674   11.78533857638344
H         0.44541656160126    7.37914658849435   10.72355015518018
H        -0.24060663362468    8.42769198636799   11.98239257934652
H         1.45130522816764    7.93187098962515   12.07184549066403
C         0.04934395115752    6.39890999583024   12.54608711743234
C        -0.41372432822168    6.30599733703060   13.86916387918567
H        -0.55300484587953    7.10850866125696   14.56443470982953
C        -0.65427627590489    4.96639928566835   14.09072877312075
C        -1.13753640607755    4.25926706425222   15.30378333169035
H        -0.42013963443265    3.50222000740501   15.61969731414301
H        -1.26634871968447    4.97484087373517   16.11091236912438
H        -2.09558546769069    3.77170855414353   15.12028174197614
C        -1.67992846621398    3.06830846097515    7.94657002535719
H        -0.77961462495947    2.64729904330138    7.50462302465345
H        -2.55264467558626    2.66581994867599    7.43947966106846
H        -1.64620951882297    4.14679343677466    7.80449539068160
C        -1.74232615890416    2.75518982555833    9.39624530227005
C        -2.76434062314904    2.08022489792911   10.07826316069566
H        -3.65706688917250    1.66758892831458    9.65475902007242
C        -2.38734400307358    2.05289587358319   11.40402274370718
C        -3.07524822443195    1.47423165421141   12.58578444518436
H        -3.32593083425836    2.24998223853121   13.30949636533090
H        -3.99485242024239    0.99241897073833   12.26617242075313
H        -2.44697174974361    0.73181003425265   13.07750749670597

