104
CSD_code = ATOTAF | q = 1 | S = 0 | Stoichiometry = C42H57N3PRu(1+) | MND = 8
Ru        0.45988301699424    5.38428782907883   13.10377560250014
P        -1.42346718234691    4.12879059759021   13.41989246690970
N         1.30642480490219    3.66164310263823   13.99726390926409
N        -0.84141528148062    2.95695165604419   14.51530248294666
H        -1.43588019616604    2.21052402180019   14.85711502180749
N         0.16227230706374    7.46588701873926   15.13962087096368
H        -0.03242417823069    8.03891487120547   14.32642217743546
C         1.41645528751004    7.26539036085275   12.20172878917651
C         0.08393023662501    7.09115478614494   11.70335529661470
C         0.08447861649681    5.89695869120643   10.88633514518549
C         1.35809697664058    5.29174517435605   10.98044449723261
C         2.18410197683488    6.12843756372083   11.81608908806216
C         2.00263576648228    8.53000380227621   12.75727586000235
H         2.78384848962652    8.87599162054210   12.07844982670144
H         2.45628898415928    8.39180948399227   13.73766017831650
H         1.25502696021910    9.31697551262474   12.82496282672097
C        -0.95331882973177    8.17399937069382   11.59238177024765
H        -0.97264396592476    8.82263141123618   12.46746526493065
H        -1.94865950861389    7.75542997443276   11.46165850891465
H        -0.73590993610874    8.79623366945152   10.72151771444035
C        -0.97523725362224    5.58577984770587    9.87629539752608
H        -0.82129794469503    6.23026482803701    9.00791824137338
H        -1.97299676859722    5.78759234817197   10.26175377611131
H        -0.92508711382475    4.55395318484379    9.53821210110509
C         1.90245057573992    4.19608202239913   10.11172277147133
H         1.10939830995849    3.66858930328477    9.58810035045335
H         2.48054941504742    3.47035197719834   10.68460315501406
H         2.56564217066200    4.63210106258521    9.36199181338215
C         3.68309754999741    6.07319259180677   11.83839832538795
H         4.06566594128511    6.70379585709074   11.03173317561432
H         4.05346730715777    5.06449834030275   11.66629903535894
H         4.09592473822117    6.44921755621670   12.77226047132176
C         0.38703683754755    6.18204796542022   14.94997965638004
C         0.62883832830139    5.34183519485192   16.11661278229741
H        -0.12576705687254    4.57560920588416   16.24997130679998
C         1.68683509475737    5.29645615759628   16.95017395729573
C         1.75994663497422    4.22607782265056   17.95903410432200
C         0.63250128355040    3.80837372243145   18.66239468578637
H        -0.30904574553605    4.31870773980819   18.51534637889255
C         0.71619311673503    2.77075330085334   19.57186056068945
H        -0.16273900257187    2.46539883866445   20.11993659539391
C         1.92424094132987    2.12797288157317   19.78654922699583
H         1.98771936158680    1.31749782730344   20.49625917738898
C         3.05170170682607    2.53627738541939   19.09324805112504
H         3.99706451374382    2.04215168211183   19.25976837206529
C         2.97284246926720    3.57969220056477   18.19060867723681
H         3.85294023772257    3.89320825183664   17.64792010762629
C         2.82678043633518    6.21842900737500   16.88088098440402
C         3.40334056295863    6.69838239882759   18.05664621861141
H         3.00201275752645    6.38688818197519   19.00990231093810
C         4.46991296697124    7.57561823098327   18.00621388507290
H         4.90136444665298    7.94865855653553   18.92238470687442
C         4.99093685432373    7.97071595193696   16.78475857638700
H         5.83086477308243    8.64687550198811   16.74598386903766
C         4.43155974903330    7.49155286751032   15.61131819676647
H         4.84524936084577    7.79661553568019   14.66039221857319
C         3.35099960424772    6.62931721105107   15.65918564326102
H         2.90195445987666    6.24492976482830   14.75253828615971
C         0.08905066655093    8.20773328796552   16.39173455792126
H         0.27890632345051    7.50611088329755   17.20825161693863
C        -1.30484444344368    8.82031507544597   16.55589198907948
H        -1.50180885419180    9.50235129992929   15.72483765333649
H        -2.06377306328110    8.03599233144016   16.53730163839723
C        -1.38789563218072    9.58798700097263   17.87307932003590
H        -1.24086631144764    8.89481944665715   18.70380114579026
H        -2.38066058645757   10.02781471711507   17.97592890555651
C        -0.32485643534166   10.68015361114936   17.92861473426842
H        -0.51575367900400   11.41470622779695   17.14331072417019
H        -0.37665005984243   11.19704414685500   18.88707304028410
C         1.06443160150413   10.08066289931446   17.73664667110934
H         1.28804637413820    9.39760428616214   18.55861391723296
H         1.81710564416493   10.86973989028781   17.74470865662462
C         1.14023917583626    9.31912393225879   16.41654253315415
H         0.95560305544873   10.00969758344183   15.58989451747317
H         2.13570374934103    8.89265829453105   16.29157931967658
C         0.51361448397463    2.74834021029000   14.59419410537327
C         1.03364237333709    1.66417090241667   15.30189874304090
H         0.35979725708614    0.96838267906103   15.77681847518861
C         2.40050155840709    1.50519170295469   15.39321487917856
H         2.82050832221577    0.68026680116842   15.94500660294623
C         3.21585493975392    2.43122570555013   14.75512768808549
H         4.28892357067338    2.34490589420016   14.78579775019892
C         2.62836398971303    3.47997171281047   14.08057873648923
H         3.24670338584431    4.21529828208752   13.58780982727898
C        -3.02289337493673    4.60914306966740   14.23934188643021
H        -3.66325522231157    3.72335780850801   14.29115027812291
C        -3.67176009464067    5.67221929054079   13.35859885993085
H        -4.62218866973122    5.99391483037151   13.77904972775148
H        -3.85501503270427    5.29247779347143   12.35494298605591
H        -3.01342811791590    6.53779237660760   13.28960706387437
C        -2.80509046142515    5.13491280908463   15.65078450834352
H        -2.10164442180770    5.96410664581597   15.63676690928949
H        -2.42131979310188    4.35599620978424   16.30612980167536
H        -3.74931397775304    5.48706788241359   16.06232408498000
C        -2.01786355948639    3.02106617751777   12.02081777854242
H        -2.29959253189878    3.68563157628336   11.20120603802180
C        -3.20629071868574    2.11951496613786   12.34322878389379
H        -3.33607810226463    1.40797052495889   11.52937361783064
H        -4.13200116925062    2.68113945471419   12.43612897888709
H        -3.04382363323288    1.54790259980961   13.25575290920468
C        -0.81472308801125    2.18315267142530   11.58835916726635
H        -0.65368485717798    1.35585972682061   12.27820902015111
H         0.09089811559046    2.79183280258520   11.57235718759347
H        -0.97140466102261    1.76534915440850   10.59613821444276

