65
CSD_code = ATOZOZ | q = 0 | S = 0 | Stoichiometry = C26H28BrN2O7Rh | MND = 6
Rh        0.78109334543433    0.26386159507871   24.99500318283361
Br        3.51049167455403    5.47028233620301   22.14598856749266
O         0.56908933116300    3.83422736068091   26.92798531254611
O         2.84832440040870   -0.29158341678429   21.51647957636510
O         2.57320299878074   -0.04883782490536   25.91940152039334
O         2.41827786381036   -2.24537921677193   25.63286454664176
O        -0.99954359946700    0.74243002230327   24.08101225897897
O        -1.97947425311024   -1.25804660311883   24.19252825385045
O        -0.16146905961278   -1.54778660013137   26.06095252705262
N         0.38254695407686    1.67875510997436   26.37893414493749
N         1.52150581570225   -0.60550112795741   23.28464872177235
C         1.56871458581369    1.78982632824882   24.14668788523950
C         1.48467700802487    3.02357208614610   24.78626421350097
C         2.06324041840559    4.13779935673556   24.18618437253901
C         2.71466346748715    3.95387932250520   22.97172759071741
C         2.82888156923899    2.72548637807083   22.33161010332230
C         2.23768015073053    1.62129602016820   22.93893006880669
C         0.79818630130101    2.86271267721258   26.05207352286351
C        -0.04098154173289    3.24176971452892   28.08343382357566
C         0.88440696533955    3.34863687571635   29.30824200151757
C         1.35415082159324    1.94462829257565   29.55632889454644
C         2.26368531122440    1.50727330329025   30.50026934124395
C         2.55352056168154    0.15256536896161   30.57090605933177
C         1.93349391002636   -0.75030922112727   29.72185244666332
C         1.01379304227832   -0.31685474096361   28.77865570661900
C         0.74076229102482    1.03422793391396   28.70452056757536
C        -0.16274394591342    1.73339624689056   27.72166170735198
C         2.20056660817764    0.22345408270126   22.55518106990436
C         2.65742274237731   -1.70950090154791   21.57075335539386
C         1.61447292882298   -1.93120646389584   22.68955795989364
C         0.23720709593114   -2.42005747329155   22.19835134843772
C        -0.35081913535246   -1.51139807666143   21.12087866600356
C         0.33162054996566   -3.86569264775279   21.72026574844566
C         2.99500976603083   -1.24258984579887   26.05413230399620
C         4.32201381495141   -1.35791561336354   26.79054053019668
C        -1.95571617517043   -0.06761890896293   23.87144714976072
C        -3.14842965215630    0.54091696059749   23.14425516761746
H         2.01638965598069    5.11352681378696   24.64550433084441
H         3.36070726325624    2.63586709529369   21.39655462141346
H        -0.99919677552325    3.74378342522462   28.23845199244291
H         1.71419842525888    4.02260156663640   29.08905602361069
H         0.34842402473583    3.74261065331619   30.17331066951782
H         2.74378298388547    2.20834265555997   31.16676814229849
H         3.26995594111150   -0.20046349619525   31.29809364161957
H         2.16975305991787   -1.80134108028824   29.79218117796269
H         0.52425133495664   -1.00942488564328   28.11307180576049
H        -1.18110349495368    1.33340180253198   27.72844617009650
H         2.32235544768234   -2.04666090105716   20.58949932543853
H         3.62114855610847   -2.17291692121093   21.80135496157415
H         1.98069787388981   -2.62729109236475   23.45152002858686
H        -0.43587573828268   -2.38324236947400   23.06012373573915
H        -1.36471369315033   -1.83143441495122   20.89432045476580
H         0.22604990946534   -1.54332097705763   20.19851850025823
H        -0.39178366611890   -0.48236292928565   21.47361655572818
H         0.72552975119715   -4.50359143692397   22.50755308458809
H        -0.65569381398636   -4.22853397023702   21.44722755229361
H         0.97965786908265   -3.95353133723134   20.85036806619410
H         5.11230555144431   -0.94663792753016   26.16708751158383
H         4.27181476531752   -0.78013327928492   27.70930434617204
H         4.53214484753682   -2.40057428889334   27.00788832115754
H        -3.00209188915774    1.60795109343055   23.00964802129215
H        -3.25451012980548    0.05628812974182   22.17680485882049
H        -4.05006252404122    0.35124080624208   23.72066644937087
H        -0.90294175532228   -1.69441665295684   25.41934520580260
H         0.54618128767398   -2.19205477064980   25.86880422713716

