23
CSD_code = ATPONI | q = 0 | S = 0 | Stoichiometry = C4H10NiO7S | MND = 6
Ni       -0.10169165826150    2.27545091147047   -0.71401791099612
S        -1.18800015944061    3.37239730080181   -2.96495282784184
O         0.66559344079729    1.18525831107365   -2.00728032929886
O         1.22744700492956    0.39904799215356   -3.97229145361354
O         1.13411344834201    3.65228441458357   -0.98106853359114
O         2.01304877783774    5.41662153173127   -1.94700706289014
O        -0.83049884631572    3.29791122465578    0.89024981377546
O        -1.44943228821929    0.75500152183573   -0.38102039034641
O         1.55770794649698    1.44614454895039    0.82551311012547
C        -0.04438645300324    2.39986233016515   -3.99873535062057
C         0.68358605417642    1.23939597582001   -3.28767011496655
C        -0.17635690680927    4.84547488391288   -2.65018866183040
C         1.10665662086193    4.62190778137807   -1.81760607447822
H        -0.26852580862201    4.07598028562860    1.00011202965569
H        -0.63548317006327    2.70583731444282    1.62897133641414
H        -1.06835414029355   -0.02034062768393   -0.81388938205878
H        -2.27085783402618    0.96782591777324   -0.84011770846135
H         1.81285171527747    0.66117475090538    0.32713595915525
H         2.20793765367345    2.12148657858886    0.59090562347375
H         0.70287572563654    3.08256633880456   -4.40229731987610
H        -0.62024575629277    1.98304032092491   -4.82514101437534
H         0.08717013459713    5.30670079044194   -3.60212866497401
H        -0.82125550127885    5.53016960164153   -2.09557507238037

