71
CSD_code = ATUCEY | q = 0 | S = 0 | Stoichiometry = C24H43O2PPd | MND = 4
Pd        3.92191518108851    4.55587569298180    8.53331109721557
P         2.99008294012675    6.39328104182969    7.61112528659470
O         2.98947051904973    2.65962120786183    7.65806285836874
O         4.52262713010911    2.68344682978197    9.22425616212071
C         5.15306026237468    5.38286790226186    9.85383672778256
C         6.52198510089911    5.41573565884531    9.58476055227694
C         7.40151422219459    5.79126981294448   10.59339178714829
H         8.46198716508961    5.82718176064865   10.38312047468185
C         6.93880080243089    6.09982769816760   11.86014417210904
H         7.63550796712401    6.38707920942364   12.63422194833255
C         5.58660875166175    6.01320505854203   12.13912022254473
H         5.22219199681676    6.22064569240196   13.13540587333708
C         4.69800923710784    5.64859443955175   11.13828722421437
H         3.64032969729668    5.55703378403354   11.37773679086726
C         7.05255340068030    5.04825112703299    8.22097664322951
H         7.90044425511778    4.37221981673629    8.31831023392819
H         7.39109552544549    5.93704360046193    7.68493452427861
H         6.26825219355597    4.54421479243415    7.62861187646859
C         3.40531571487710    8.18560452761182    8.17304997632730
C         4.93046363495524    8.34053546238941    8.24358928694801
H         5.17688413549492    9.17778012736327    8.89489487667952
H         5.37702848742533    8.54424616792512    7.27803639821607
H         5.38130930330937    7.44657257393693    8.66776999664268
C         2.90538110586898    8.36056417498629    9.61011077659422
H         3.28565701350702    9.29964720914661   10.01139286455435
H         3.28487239379732    7.55496122989380   10.23408768481389
H         1.82298291500302    8.40213050972132    9.67072264814804
C         2.83062873423668    9.30519740207908    7.30565405161943
H         3.05425213420011   10.26080990819835    7.78010057983151
H         1.75407990069578    9.23213113981200    7.19762773030315
H         3.28093224425782    9.32190655257553    6.31784411914692
C         1.13007987353994    6.05756293227363    7.97834538008564
C         1.06379786633860    5.62040065382338    9.45276531042579
H         0.05725159409951    5.26855637730502    9.67974075390488
H         1.29664731656118    6.42431589643291   10.14317903686529
H         1.76400901096746    4.78250747509259    9.62959525256062
C         0.15177002973338    7.20301763981671    7.71797090043180
H        -0.86323162780389    6.84408889178611    7.89073321944324
H         0.20949066013286    7.54696580211860    6.68884277825398
H         0.31314114267088    8.04682692204349    8.38171613684211
C         0.66139059271287    4.83815743743178    7.17654089542622
H        -0.32041104354447    4.53255486442405    7.54008208384504
H         1.33964972760396    3.99780663927081    7.31841758415924
H         0.55751526256870    5.05059226986929    6.11678925760087
C         3.30390586941562    6.28254966681651    5.72155753837658
C         2.25913942552363    6.93470109805946    4.81677651201801
H         2.59818939068510    6.86921997185425    3.78264289014744
H         2.11586578493794    7.98405888780070    5.05435416773567
H         1.29863892024568    6.43262823164141    4.87705809768779
C         3.43603573207120    4.79288443029188    5.37578885808598
H         3.77318620956146    4.68662887407850    4.34425561352890
H         2.50318379706188    4.24930550762447    5.47577229789206
H         4.18498050166242    4.31610621773199    6.02599528556908
C         4.67779622224955    6.89153962681675    5.42213182283536
H         5.00229303636236    6.57930638483410    4.42954363673871
H         5.41059428019192    6.53605096662021    6.14568229323844
H         4.65533710509821    7.97652111909149    5.42615350670340
C         3.78201156420086    2.06277717025280    8.42191891103338
C         3.89677031083853    0.53849898722765    8.33696692397406
C         2.52385999667463   -0.06331051136416    8.04115336728191
H         1.85043931771148    0.09208893113105    8.88213401910133
H         2.61169577188970   -1.13268431920929    7.85866001870557
H         2.09049532535147    0.41118232145549    7.16353213606898
C         4.85340910439446    0.26018700613023    7.16981532539504
H         5.82909211223437    0.70143601326270    7.36724857635059
H         4.45766308369455    0.68593711983473    6.24914952284744
H         4.97864726179242   -0.81269237892978    7.03248476675499
C         4.47216551003825   -0.02250276389281    9.63466172339738
H         5.41479262691681    0.46616467139952    9.87009005550247
H         4.64124091292574   -1.09364309344083    9.53993750643369
H         3.78684635499185    0.15132394950903   10.46202059155518

