57
CSD_code = ATULUY | q = 0 | S = 0 | Stoichiometry = C18H22N4O12Zn | MND = 6
Zn       -0.44363067732091    4.05980244609693    5.75795543413122
O        -1.79589777698551    5.90267833492105    4.76157140530113
H        -2.67203557630855    5.61715437942015    5.03425980334801
O         3.36327119364901    5.05522036314788   -0.01918818041704
O         1.45559387409172    5.96489071710351   -0.76695145213049
O         1.26719540207247    3.23312603339893    6.53883215681066
O         0.49915068677223    2.23002717854727    4.83382908590045
O         2.12662704117883    1.38493490396295    5.92343650165942
N         0.53820162328391    4.85950191156088    4.03558327263692
N         1.30035383033885    2.23733168485246    5.76648648584380
C        -1.65938474790925    5.62532928794638    3.38658444131677
H        -2.00783431699099    6.48198242750954    2.79292216748355
H        -2.23894002209722    4.73645109488226    3.10964736612316
C        -0.22503233185133    5.33731942958895    3.06175341839134
C         0.26791687055263    5.55555451441780    1.77942893363847
H        -0.36690603842182    5.93237469472383    0.99233409459349
C         1.59703557390220    5.26944280333227    1.50730927309993
C         2.40164147079333    4.80814966961117    2.54622974123918
H         3.44411875927419    4.59164542479365    2.38273606268002
C         1.82255282897266    4.62455371470215    3.78591555512808
H         2.42153035662592    4.26667645634092    4.61055077039317
C         2.11124285595963    5.47610755682040    0.11823975683129
C         3.94157894345557    5.18392176981011   -1.32207630509375
H         3.27433173365964    4.71010107744060   -2.05022267992032
H         4.01296745637608    6.24895272092169   -1.56952385541594
C         5.30663754925059    4.52400652345033   -1.30537805586257
H         5.94900519581593    5.00667863178000   -0.57385182927427
H         5.76247494104623    4.60726973054928   -2.28734610954963
H         5.21169544727539    3.47311933590826   -1.04607811966222
O         0.90787017021817    5.90322825777158    6.75420427575863
H         1.78498941019690    5.62076550177169    6.48147647944326
O        -4.25059728626906    5.05474874616742   11.53487175625316
O        -2.34308201365617    5.96456153003401   12.28288493957098
O        -2.15473788097133    3.23316856975478    4.97699840021617
O        -1.38664814184479    2.22997783778938    6.68188875309063
O        -3.01454654801126    1.38523989978366    5.59262056149331
N        -1.42548031931378    4.85930746088641    7.48026306916737
N        -2.18782400232786    2.23726830047122    5.74920816023235
C         0.77206623883809    5.62509287157971    8.12909867053411
H         1.12091336792948    6.48125985653790    8.72322977276095
H         1.35156406742252    4.73587660290395    8.40514281056970
C        -0.66224371753053    5.33714058812613    8.45409931530019
C        -1.15517381943233    5.55535310320778    9.73643134018771
H        -0.52033607163094    5.93210493680003   10.52354758719153
C        -2.48428944653292    5.26921575502528   10.00855926174878
C        -3.28889375819149    4.80793493664964    8.96964218158494
H        -4.33138936274074    4.59149437813694    9.13310413442739
C        -2.70981274987450    4.62433101181438    7.72995932322167
H        -3.30888525768219    4.26657392252833    6.90534389749605
C        -2.99857078849477    5.47569634947436   11.39762804183313
C        -4.82911772054784    5.18334112574084   12.83767470334660
H        -4.16248835705011    4.70853099617464   13.56574136971691
H        -4.89959966876761    6.24830643904915   13.08565731823344
C        -6.19476093599859    4.52465337584810   12.82027854100331
H        -6.83640185340605    5.00809604629303   12.08862191375766
H        -6.65091070430155    4.60808025292622   13.80208777114816
H        -6.10067499648805    3.47374652920880   12.56074651148854

