42
CSD_code = ATUMIN | q = 0 | S = 0 | Stoichiometry = C19H12CrN2O8 | MND = 6
Cr        0.99492851968600    2.69481964917598    2.27981390745326
O        -1.26137016566438    0.75930310224218    7.47216532186576
O        -0.29873344273182    1.75126674337019    9.24310728129720
O         1.63036854135139    1.31869198071026    7.08897260486218
O        -0.07583246901356    4.16920717697061    4.67621616303410
O         3.81544926948811    3.22547936464741    3.18871932499144
O         1.20143071911557    5.43816172371684    1.08864057480401
O         2.07072758647697    1.85862661257418   -0.40208535267390
O        -1.77004493520687    2.78704596601272    1.09648338309201
N         0.93072315188923   -0.77571488702821    6.49010609099505
H         0.56818576697941   -1.63479469021375    6.88247627884575
N         0.79835470347436    0.72717390732226    3.14277141152788
C         0.31145706330116    0.59005201902797    9.67374178509556
C         0.17999551396200    0.24498027633849   11.01162098160054
H        -0.40144926901833    0.88255864315699   11.65860105154358
C         0.79540213475277   -0.89590920343463   11.49259959695605
H         0.69811567075926   -1.15576376233475   12.53535539610621
C         1.52890150107417   -1.70520483092217   10.63997379208519
H         2.00646237318690   -2.59680820703917   11.01594078029752
C         1.65436457325307   -1.36711295488571    9.30501808989809
H         2.24718232184698   -1.98250317184714    8.64361678736902
C         1.05497722159263   -0.21525266218247    8.80827115246748
C         1.23622727235995    0.21457450724132    7.38840774302060
C         0.75210581370572   -0.63710655762809    5.12146027354381
C         0.27578531070747   -1.72184546199347    4.38219247979973
H         0.05270131827918   -2.66187300560797    4.86469237747492
C         0.09285306175587   -1.55493347264116    3.02224929581562
H        -0.26523846881240   -2.36981001195523    2.41316473329312
C         0.35732752181200   -0.32414576143593    2.44581792081872
H         0.20334629081684   -0.17244951271098    1.38557742190522
C         1.01068504790323    0.55631644574902    4.44731273581083
H         1.38985929774219    1.40421172601755    4.99878713001299
C        -1.00352396555864    1.75851957631108    8.09388996495246
C        -1.40928794270198    3.14833702639411    7.72510308991787
H        -0.64477368889683    3.54973646188251    7.05908017574782
H        -1.46760072404492    3.77785013016155    8.60755740308784
H        -2.35407495157266    3.13074862411013    7.18944510678148
C         0.32717498182324    3.51775005134233    3.81891362207589
C         2.74837913989516    2.91744491140463    2.90044376847175
C         1.12721345175553    4.38371838433146    1.54993504823150
C         1.66438976794477    2.05878622878828    0.65444620510272
C        -0.73844488550937    2.64856691491594    1.58429710054485

