57
CSD_code = ATUMAF | q = 0 | S = 0 | Stoichiometry = C18H22N4O12Zn | MND = 6
Zn        5.85822957418566   -0.40656537614359    4.81412164824189
O         7.57295293089718    1.60842963630321    4.54286862817438
H         8.12982680810888    0.81952779421233    4.47444595871403
O         2.28128391104715   -0.88380230982131    0.79961406707363
O         3.10856388483296    0.10904403047647   -1.03231862108464
O         7.75314344948561   -1.10176815247755    4.44426797619737
O         8.15812707325470   -2.79392764627749    3.21259688149996
O         6.15558771067616   -2.11315605955150    3.48724151770339
N         5.56115846803775    0.52578768062985    2.97755588153943
N         7.36633069740632   -2.04526907100982    3.70358597307545
C         7.37220096406787    2.15496670472961    3.27473517621520
H         8.30499905157896    2.17646918063377    2.69398458236813
H         7.05687866832355    3.19396144606303    3.43734868090897
C         6.29620241146217    1.49479605675497    2.44491634836037
C         6.07899495027579    1.95527077445162    1.14656265060212
H         6.71056660391129    2.73288386148449    0.74517674964962
C         5.05969209390993    1.41033370624190    0.39540582596747
H         4.86631256504891    1.73829914928647   -0.61394992550976
C         4.26701890882554    0.42232784461756    0.97767946850266
C         4.56237883371867    0.01012964404482    2.26984083151087
H         3.97805403070747   -0.76864006100401    2.73845828059304
C         3.11233444286319   -0.19734432741951    0.26588426726073
C         2.04078129558325   -0.44586614977249   -1.80725343011245
H         1.08837941111417   -0.09901007115492   -1.39123716084605
H         2.07260631406235   -1.53698340820155   -1.71731802688675
C         2.21437698361575   -0.00123716209871   -3.24658619022592
H         2.18067372822744    1.08308701344317   -3.31281458759746
H         1.41666020448069   -0.41807211353507   -3.85402144900492
H         3.17043711597896   -0.34482953904212   -3.63224330499929
O         4.14325889065515    1.60609830065623    5.08954010321075
H         3.58589619145105    0.81756434680799    5.15841713070774
O         9.43300163030818   -0.89453669716975    8.83203055071274
O         8.60633522646926    0.09956690009595   10.66352609875664
O         3.96469334093538   -1.10490334724113    5.18144567472241
O         3.56090055740687   -2.80417926956747    6.40364535565903
O         5.56265804668196   -2.11841981282699    6.13551652635201
N         6.15557973179527    0.52117234733689    6.65306114524611
N         4.35214518775256   -2.05171110331813    5.91769281240397
C         4.34615514530590    2.15247598830980    6.35738652006990
H         3.41369406391891    2.17662135524039    6.93868852678963
H         4.66414467491156    3.19062846022359    6.19414355073861
C         5.42096043605335    1.48993680131865    7.18680136635020
C         5.63800032051140    1.94848736587577    8.48586174298741
H         5.00700028732011    2.72616579233552    8.88801253128704
C         6.65672868515716    1.40188933197670    9.23658169815931
H         6.84999010147757    1.72838540661517   10.24644357671583
C         7.44884484273265    0.41399951842245    8.65331789224654
C         7.15390150508054    0.00400643107980    7.36033879305315
H         7.73692290577119   -0.77553875619850    6.89139385831241
C         8.60150834007799   -0.20876780692368    9.36581707712710
C         9.67451512709119   -0.45399947736673   11.43882030229686
H        10.62732912318979   -0.12587329450733   11.00884077596965
H         9.62898814456554   -1.54604926090890   11.36831631033575
C         9.51779277251876    0.01683394885859   12.87175873407237
H         9.56661214776065    1.10152277414200   12.91971127838047
H        10.31422462307294   -0.40072197198808   13.48035907078498
H         8.56006486433724   -0.30729734714872   13.26988229865631

