52
CSD_code = ATUPUB | q = 0 | S = 0 | Stoichiometry = C18H31MoNO | MND = 10
C         1.60689926617210    4.28436055739762    8.40173677969299
H         1.87424072877104    4.27906090312336    7.34062935095247
H         0.51515952647477    4.29353072716693    8.41973706005684
C         2.00009253834188    5.66189628936536    8.95230084974115
C         1.19750685382428    5.97691417969317   10.21773585098286
H         1.37944325940157    5.23675402393441   10.98963232151623
H         0.13134627254098    5.99082254449817    9.99958887459036
H         1.47640483968192    6.95227949662407   10.61128021866309
C         1.64118048114856    6.71889872734533    7.89224360712399
H         1.82934898259434    7.72119000580115    8.27222452856221
H         0.58943096741111    6.65014146422688    7.62118953879177
H         2.23593946587629    6.57914315259572    6.99155168883671
C         3.49349122241507    5.79357741046279    9.25731921996273
H         3.71870222987029    6.81285626899125    9.56654632546157
H         4.09168329511416    5.56979807374477    8.37682266662815
H         3.78477238664712    5.12661812597548   10.06430987629471
C         3.85536778938185    2.67888178781848    7.72764314572861
H         3.62314593352953    1.86159910376003    7.04801140919565
H         4.12383918822830    3.60032056596452    7.22946470454862
C         4.44229294609990    2.37200045223065    8.94451743149939
H         5.05121854150496    3.10209455460652    9.47478586452341
C         4.08738526295257    1.13727399655902    9.53432770563218
H         4.53796533526448    0.90718150401647   10.49545935205504
H         4.07730534526181    0.27942828437209    8.86531886168246
C         0.26813744675383    1.60461146819766    8.11037609137519
C         1.17167598125947    0.51842293782055    8.10656472660596
C         1.33167112983349    0.06485450428039    9.44905142631208
C         0.57136973822205    0.90964315642700   10.29186481150945
C        -0.08550359597308    1.88382725534275    9.47496423832701
C        -0.39418213045688    2.16243460367296    6.88529952492752
H         0.32687714786409    2.36985315492704    6.09524349797145
H        -0.93008920654610    3.08294559136878    7.10279979794145
H        -1.11494114220002    1.43568708596420    6.50242273132044
C         1.62229626317905   -0.22284864671098    6.88011409241716
H         0.91540627979784   -1.02484028215725    6.65257388752388
H         2.60388489334169   -0.67736383427617    7.01573097637123
H         1.66601111713169    0.43652046978723    6.01418842022280
C         1.95530114618390   -1.22702705778303    9.88090988699469
H         2.52166899250429   -1.11074586191841   10.80317810226266
H         2.61577741759176   -1.63281950119954    9.11804082638353
H         1.16602455469751   -1.96007973854432   10.06344482986813
C         0.31442137618794    0.69335114708874   11.75258021778001
H         0.16176554662917    1.64242886399263   12.26409049763231
H         1.15120968000599    0.18284072555435   12.22490531832184
H        -0.58107450054289    0.08250580327141   11.88935884999409
C        -1.23709197776561    2.72631206349799    9.95032282594156
H        -2.11678779489276    2.09685833509205   10.10610486365911
H        -1.49785649102521    3.49542599617930    9.22622281268539
H        -0.99548389774607    3.21681045756705   10.89278937090993
N         2.57979990751079    3.12478362335668   10.81726188112477
O         2.81424017039798    3.55163697253147   11.89844748882069
Mo        2.15580928955004    2.31274850639471    9.34707077207198

