40
CSD_code = ATUQOV | q = 0 | S = 0 | Stoichiometry = C15H21BrFeO2 | MND = 8
Br        0.77050133547310   13.28535901858037    1.46908194338117
Fe        6.36224062769972   12.11536003919327    3.23100541935069
O         5.83046166837737   10.48007406524722    0.91385262064958
C         8.23285449605210   13.15640301333793    2.64229706650686
O         4.62487150370464   10.34110594878589    4.69993375677888
C         7.35763813545406   15.41072493968333    3.59627741549657
H         7.18663683158711   15.72691974314332    2.57043845317914
H         8.20589655347607   15.97492373706313    3.98801390155326
H         6.48168078279870   15.66860798302643    4.18709974979641
C         8.37002935509200   10.78005368505660    5.55070950945430
H         7.61035460708902   10.76826300017667    6.32787415184288
H         9.33811528116628   10.95584210568173    6.02322207602833
H         8.39347061831250    9.80018220075312    5.08085088699032
C         7.51216102654997   13.13315499028674    4.82994463074360
C         9.36140323081242   10.80930191036389    2.52875414500119
H         9.18914486056418   10.79548987218576    1.45561464964691
H         9.12764143713357    9.82448630552893    2.92480314862438
H        10.42147948506648   11.00449105171395    2.70087634668597
C         8.53674725713274   11.86610662735093    3.19466220215712
C         8.09551224800281   11.85362880594682    4.54469949650032
C         7.09946166886823   13.61522599603269    6.18618258739700
H         6.67767805584048   12.80560291663522    6.77628727666951
H         6.35629254775459   14.40519524584990    6.11023596073702
H         7.96370956241736   14.01302594232545    6.72130039107437
C         5.29512207619674   11.07846939494779    4.13100221051109
C         7.65347743803425   13.94796427770921    3.67147321738905
C         8.70177319253756   13.65711024953335    1.31119206221008
H         8.73429307610928   12.85122631083182    0.58255137421759
H         9.70548196646986   14.07661197115037    1.40110411007336
H         8.04311381969629   14.43353159865731    0.92957376883889
C         6.03108200335462   11.16465525105852    1.81255649350237
C         4.81935015229827   13.33961085507225    2.79725178312455
H         4.64360780004342   13.92613016949387    3.70628516311675
H         5.19478856474793   14.02107782950406    2.02555534064464
C         3.48296857007351   12.78488428621319    2.32752034946368
H         3.60972034843706   12.21955133288451    1.40236886538782
H         3.06407424666457   12.11211078106239    3.07821949405764
C         2.51226377004676   13.93034024395472    2.08495562693947
H         2.87296136537874   14.60501924496714    1.30907299269799
H         2.31723843348579   14.49177705901056    2.99819936157933

