63
CSD_code = ATUQAI | q = 0 | S = 0 | Stoichiometry = C23H36MoN2O | MND = 9
C        -2.88042916282617   -1.07241834781310   12.78884432674603
C        -3.11118624110905   -2.48026219651700   13.01038675103289
C        -2.46057924695443   -3.19502296077723   11.97571980286415
C        -1.74981322969945   -2.25830490609988   11.17016748596083
C        -2.08208956855547   -0.94265840677535   11.64240558490509
C        -3.60523117716058    0.03079377298301   13.50716791241541
H        -3.13729307681143    0.99830557789602   13.32778454691840
H        -3.62790673811988   -0.13645002367074   14.58420774338492
H        -4.63915705551749    0.08939453197844   13.15706133735812
C        -4.16774267235351   -3.04777712338233   13.91528639791110
H        -4.41369487897590   -2.35966645767765   14.72136408045012
H        -3.84866416852056   -3.99140917850308   14.35603467108167
H        -5.08014767782314   -3.23129885080188   13.34200167010203
C        -2.57569938497215   -4.66338563742405   11.69909878410671
H        -3.28024928447718   -4.83502428834504   10.88191461573270
H        -2.93136920554334   -5.19718532731524   12.57769012969205
H        -1.61272966770553   -5.08411831319654   11.41272339049188
C        -1.11329098156231   -2.56166991651033    9.84411711085601
H        -1.86357612563036   -2.54338849786402    9.04902503748829
H        -0.65472045209496   -3.54907626112436    9.85477005752666
H        -0.34321730191638   -1.83020848910878    9.59902384873262
C        -1.78643134453768    0.31217492327532   10.87339957075029
H        -2.43790500298014    0.35369683006088    9.99688939891796
H        -0.75490039578128    0.33953334329794   10.51951630472445
H        -1.97039859178433    1.20704869407510   11.46557411142529
C        -1.26489922000563   -2.32110123048164   15.43441146259599
H        -2.22867844410455   -1.91480832113490   15.72751634634333
H        -1.05978302356459   -3.28975481605822   15.87933793039894
C        -0.18660193670060   -1.42127206134326   15.29194502323603
H        -0.41106933905312   -0.36322204735355   15.46642246224992
C         1.18238468579081   -1.80232991111654   15.80871494038785
H         1.95790252140128   -1.25343275069990   15.26503276392262
H         1.33477381132318   -2.87087939623332   15.64413489057339
C         1.29373179927424   -1.48201392371285   17.30436176230861
H         0.47563311473997   -1.98694946444014   17.82366275247680
H         1.15146157403280   -0.40568116772038   17.43855821355195
C         2.61953238213287   -1.88441060841200   17.97461907921887
C         2.56633674329361   -1.42344174632841   19.43586231850088
H         2.45203475285402   -0.34296409103129   19.49432641977143
H         3.48058237088371   -1.69832957532647   19.95735881480534
H         1.72718382541370   -1.88438412856572   19.95218940162954
C         2.80556149034285   -3.40251612476984   17.94326050538419
H         1.95351082790970   -3.90095255428906   18.39976318918891
H         3.70124714382000   -3.68240564011460   18.49392775044968
H         2.90924127125803   -3.76367836339798   16.92392752959687
C         3.80819679796281   -1.20923036864435   17.28664008949261
H         3.94674121188795   -1.59577286132009   16.28043295893833
H         4.72128186031238   -1.39563624424716   17.84814346037626
H         3.65716848781748   -0.13317043097427   17.22764104261752
C         0.63461149694921    0.39589213945312   12.90824029104869
H        -0.32240065724159    0.74519211014121   13.27817821133942
C         1.60761735240599    1.30148077307680   12.54516410689488
H         1.40340205342837    2.35944301702815   12.60460738402096
C         2.84512143655091    0.83504191932645   12.12000493570272
H         3.63281637354898    1.51502438137384   11.83790510368693
C         3.02832923513575   -0.54016627123050   12.08493798007811
H         3.96874385417325   -0.96593970235815   11.77237184301756
C         1.99468446576863   -1.37592244562133   12.45755311629403
H         2.12563101485416   -2.44882310241136   12.43711326101031
N         0.20503241883171   -3.55384684528349   13.35820107687990
N         0.79486187747964   -0.93511252694867   12.86446512915021
O         0.81828429357151   -4.57190606387364   13.31460267191388
Mo       -0.82658729107803   -2.16864204564233   13.26228910936856

