64
CSD_code = ATUTUF | q = 0 | S = 0 | Stoichiometry = C20H34BN7PRh | MND = 6
Rh        8.18675603645240    9.94281259744527    8.08163803688957
P         7.96875585681624    7.89832583006789    9.07700199645641
N        10.39537469274495   10.18203632808664    8.59997482457752
N        11.17601496442170   10.26067166164783    7.50501343737738
N         8.52337208145378   11.75150316821685    7.20310933522640
N         9.60374708205976   11.83634600568741    6.39889835426858
N         8.65722679313985    9.07672779193345    6.11730022509114
N         9.78920866147642    9.51230417482885    5.54305335553408
B        10.58332104434114   10.66833058870611    6.14886784153970
H        11.44116605595145   11.00503134327098    5.41478927017963
C        11.19078022316030   10.19370311162385    9.66622983327199
C        12.52436012307813   10.22705886582507    9.24127925818573
H        13.39749884520506   10.23100538174433    9.86217274766843
C        12.47504124777866   10.27544603875593    7.86387613882389
C         7.93690135617236   12.94717429190766    7.23593903327631
C         8.65790537166994   13.82256538769157    6.42049778408263
H         8.44132997784623   14.85543006854318    6.23713053005799
C         9.70648212364992   13.08574893424770    5.90915176220488
C         8.11504853602719    8.17598984762174    5.29940529258850
C         8.93545145617007    8.01941694664450    4.17926895397956
H         8.77287768273663    7.36360955979301    3.34775508148445
C         9.99058677814064    8.88925468028812    4.36812048980386
C        10.73873417157627   10.29069752291299   11.07999476120356
H         9.65902489323802   10.37612015217751   11.13486977691061
H        11.17796731374470   11.18408878627910   11.52368140908372
H        11.07676218316491    9.43584552649417   11.66501909058688
C        13.60638628848097   10.32570737112162    6.90087491182705
H        13.50919499869883    9.54343541014818    6.15022616065740
H        14.54244168344798   10.18845654429469    7.43618748973883
H        13.63628625420510   11.28521694704126    6.38653777400219
C         6.72098486974285   13.30181012116303    8.01480580469311
H         6.70907779070366   12.78333825960683    8.96930006784822
H         5.82083189292797   13.03467932120993    7.46282476192208
H         6.70907628984617   14.37524323262518    8.18934891740713
C        10.77707129848690   13.54790333291022    4.98658825835100
H        11.75634820166604   13.45789514879036    5.45361917617768
H        10.60442541979068   14.59085120752713    4.73391590412619
H        10.78182782041081   12.96024359996835    4.07026420610064
C         6.81972273861218    7.47800884765493    5.51640761568729
H         6.61530407366422    7.36478357788308    6.57557635961179
H         6.84267323564074    6.49872159654272    5.04122923761897
H         6.00767537453385    8.05313520329563    5.07122212733380
C        11.15784519721559    9.12879353435945    3.47983235017175
H        11.15910806405775   10.15280398804634    3.10974183352908
H        11.11079098101534    8.45053548771320    2.63165409165760
H        12.09171771838908    8.96268821987353    4.01370671442070
C         6.17635015109487   10.06091913973400    7.53614286307646
H         6.11816313553184   10.49262046506082    6.53302827691113
H         5.60483536506813   10.69895352650359    8.21096648737659
H         5.66655781603346    9.10003944398409    7.51431362300152
C         7.66390224985395   10.70811271302589    9.77103228081850
N         7.31346637946804   11.09708468074751   10.79644244401241
C         8.87832331772435    6.49557374417515    8.30344912359090
H         8.75239072135115    5.59159663700016    8.89808237490955
H         9.93491386200722    6.75944020483067    8.26891502783357
H         8.53847780264679    6.31270564823647    7.28877293067989
C         6.31268685317576    7.16253505529836    9.40240368767348
H         6.42485086092593    6.23355356137799    9.95989357683333
H         5.76203498912156    6.96139448661222    8.48770404573207
H         5.74774294151986    7.87858680268221    9.99724056127281
C         8.63668156098983    7.72328348753151   10.77616453673447
H         8.42436284980389    6.72571268846609   11.16007086030680
H         8.17880329649585    8.46822315727683   11.42256548689526
H         9.71117010342603    7.87926901319335   10.75540942917677

