61
CSD_code = ATUWUI | q = 0 | S = 0 | Stoichiometry = C21H31F3O4STi | MND = 12
C        -1.15145009254227    1.38881517954428    3.77519483502863
C        -0.62517239198085    2.28214494600297    4.79275454120469
C         0.69196692813316    1.78858266162826    5.11874922186369
C         0.98321600695949    0.70198488003781    4.28917899188309
C        -0.13337090298538    0.47713906595833    3.44210811498916
C        -2.60676484232006    1.08583107976921    3.53090061002239
H        -2.86323488952359    1.05125730232898    2.47483329499408
H        -3.25288696150946    1.79854219873370    4.03163423309169
H        -2.82140895739024    0.09951674667082    3.94945732918438
C        -1.43427064350348    3.09215643165784    5.77843907401233
H        -1.59720492350204    2.50772661040310    6.68802815120913
H        -2.40839585907286    3.35938719820895    5.37565908394810
H        -0.90920442031883    4.00892935376770    6.05332377709252
C         1.53483467280547    2.24793539351018    6.27190736831152
H         1.36777532780458    1.59261411124104    7.13084139567784
H         1.28110156755653    3.26518567304664    6.56941237726629
H         2.59293682694253    2.19996639588778    6.01568739730227
C         2.18745469356833   -0.17997183537447    4.38544007361461
H         3.09139114373111    0.41055688998015    4.51339242263793
H         2.29506072765491   -0.79092468941278    3.49361274206687
H         2.08845493162315   -0.84307246426396    5.24812628248109
C        -0.23158704684645   -0.63545962748271    2.44281546831073
H         0.59078827491134   -0.58034025163072    1.72761001306660
H        -1.17288646033698   -0.59147281389508    1.89955717782150
H        -0.17212857311218   -1.60227648914809    2.94572069317137
C         0.22651519044958    5.18504938706009    1.86538512554682
C        -0.87796647681063    5.09998049456545    2.75694230302851
C        -1.73902770639583    4.04745120126859    2.30670427679776
C        -1.10744067409079    3.43971955603060    1.18332776921625
C         0.09379154614502    4.14489633712465    0.91060049518813
C         1.24353229127166    6.28308436057623    1.85155623341864
H         2.22838480876514    5.89287823661329    1.60719632291920
H         1.29506253956216    6.76708350026458    2.82412014666537
H         0.96677323383372    7.02980885338203    1.10377017302262
C        -1.20382357070454    6.12225536724030    3.81006363649806
H        -2.06347574602049    5.81705783376442    4.40214807325504
H        -1.43521939842996    7.08093722359476    3.34073138639175
H        -0.35099119448476    6.26721650576795    4.47516407774832
C        -3.21836666851350    4.04929969183778    2.58953502391772
H        -3.44839144656735    4.07147400609539    3.65221781258073
H        -3.72110483241349    3.19910900519517    2.14037985529306
H        -3.64292162133775    4.95524795170650    2.14843492105208
C        -1.66116532166839    2.38258497549131    0.26905520466013
H        -1.65432345580994    2.74754835836827   -0.75945535758627
H        -2.68777580418480    2.12980853990100    0.52505293368336
H        -1.05495549119533    1.47429346622572    0.30438156480251
C         0.94296198618943    3.94769680594756   -0.30808226181362
H         0.49803248030223    4.47770781049448   -1.15495984794221
H         1.02044910527904    2.89250519017795   -0.56766727897697
H         1.94504324885601    4.33606702059071   -0.14592647911373
C         3.90116571448307    1.50209882506897    1.18707963874054
O         1.62337273290829    2.21519231614959    2.02670528445229
O         3.47051961018129    2.45262648036198    3.62264998356299
O         3.28181468407854    3.99339834627233    1.73815168909561
O         1.42313605025552    4.17471778066637    3.97148257560844
F         3.57500347917182    0.24276288870650    1.49544453187515
F         5.22891675174910    1.60317004150890    1.24237144249058
F         3.52651356505481    1.70669967480766   -0.08053388967458
S         2.98737168091481    2.71719490327806    2.30151434407712
Ti        0.35136005123867    3.16710815121274    3.06632333278523
H         2.18491452120426    3.89861496551541    4.48725028647971

