69
CSD_code = ATUZEV | q = 0 | S = 0 | Stoichiometry = C26H32N6OS3Zn | MND = 5
Zn        6.11773377374064    5.82808511587317    6.51177992302463
S         5.05363385642874    7.59711644871027    7.80766071622605
S         6.38348657972007    6.25967693241879    4.08850248353289
S         3.08798446982005    4.69519837451425    5.67438611502345
N         7.36182480439718    4.25575449433029    6.04857734941210
N         7.72422064367040    4.55533389641744    2.62333863698421
C         8.76125956659991    2.48521125975880    6.98441844075951
N         6.74842933063590    5.21608708663457    8.37130308496840
N         6.24821754753148    5.77773065265473    9.46097295608445
N         5.16294461184445    7.49777099513740   10.41907104569448
O         4.38401116777370    4.67864153281402    6.39873300719191
N         7.76312514611048    4.01124833559599    4.80701291704569
C         8.66692798929836    1.53790420608588    5.96697320899017
C         7.79519612609201    3.58896015249298    7.07559311752814
C         7.30587768887252    4.04134564253252    8.36740560050569
C         9.81130544006955    2.39273627680381    7.89784137540312
C        10.73293753632741    1.36846540621738    7.80176465555008
C         7.42344186560037    3.17984494391257    9.55151350751306
C         5.54956865933921    6.88342867798928    9.29556866363822
C         7.34813393404772    4.84330538882318    3.87615589404998
C         8.61493696356789    3.45698516046509    2.30863597604467
C        10.62300013961848    0.42227903344871    6.79566101276404
C         7.47375580036519    5.40580502120873    1.48075830100230
C         9.58933925022317    0.51240346831697    5.87859298516635
C         7.76778060012634    3.71092790425257   10.79257721303397
C         4.29649841465956    8.65164048337301   10.47564933690940
C         7.15732242545732    1.81440591783411    9.45146561620509
C         5.52959836797794    7.01316521543533   11.73427121417801
C         7.24851985797957    1.00150766276736   10.56439650070917
C         7.86269752307160    2.89194814828648   11.90178980399422
C         7.60623107254216    1.53555741175275   11.79177941340145
C         9.24056549307230    3.87371699654120    0.98129327988781
H        10.09229065954152    4.53048666323579    1.16057140408909
H         9.57271559937323    3.02125656934209    0.39272232738151
C         3.84667543827427    8.69552475569389   11.93344973492111
H         3.59579240635587    9.70295633786687   12.25777574276784
H         2.97627244248475    8.05392527864469   12.07502396908248
C         8.10895979310774    4.65370418450991    0.31341379522716
H         7.38786444969782    3.96198936576466   -0.12383390269105
H         8.46095327922487    5.32757010648308   -0.46434276690395
C         5.04959126136650    8.11508455076639   12.67514696297162
H         4.79467902285187    7.73344398930215   13.66151967045419
H         5.82213393864055    8.87721362136999   12.78365591976127
C         2.77355548962482    6.44496525479107    5.24931818352105
H         2.67206950558380    6.99849022607659    6.17814155085053
H         1.85606787612969    6.50124665270139    4.67460604226531
H         3.61515694765237    6.83707463767568    4.68581920909486
C         3.48962825188249    4.15950248050106    3.96658945687168
H         3.80703249193296    3.12240856281512    4.00880931993370
H         4.29783714911294    4.78024332043132    3.58872484497617
H         2.60228209398495    4.25405301517463    3.35190186727672
H         7.86027280410200    1.60793638256582    5.25416227850903
H         7.97148687748954    4.76672842060064   10.87513475480099
H         4.85577330439424    9.55366558444469   10.19883038482950
H         9.91007534737416    3.13543127388928    8.67558196213767
H         9.50157957302290   -0.22136047861125    5.09002133206642
H         3.47174032525089    8.54143685222435    9.76781993411824
H        11.54253939973443    1.30820756227082    8.51461665321156
H        11.34337814086704   -0.37962683783631    6.72479558514274
H         7.03904683687434   -0.05472859756140   10.47497402916640
H         8.03663167341920    2.53120832786699    2.20028334011595
H         9.33393951951566    3.31646895605009    3.11740644702274
H         7.93954914055225    6.38614732320734    1.63625038989765
H         6.86465141685397    1.39614266364908    8.49971009530509
H         6.60650347129257    6.84230553173640   11.78570184065876
H         5.02931529527959    6.05772845355646   11.93019959977511
H         8.13954025039014    3.31361587003093   12.85754220293552
H         7.68105330667327    0.89666703809675   12.65975045733770
H         6.40025857498316    5.56839785974160    1.35206202904872

