55
CSD_code = AUDETC | q = 0 | S = 0 | Stoichiometry = C15H30AuN3S6 | MND = 4
Au       -0.36796863193673    1.22806549412997    4.50265723320140
C        -2.40472395343193    3.19295487594434    4.19957931995651
C        -4.67546410568199    3.73843030636862    3.60670700937461
C        -4.76622164735901    3.79585905640825    2.08532613577420
C        -3.09581049763617    5.49326125564573    4.38597876410627
C        -3.36621065516000    5.78256817047482    5.85886278579428
C         0.49639605502339   -0.55100067645157    2.19730262461581
C         0.81136497194530   -2.89879426566005    1.67191672165856
C        -0.55039529835301   -3.49998972863255    1.33660203164206
C         1.33826151953339   -1.13465178479887    0.01355529054183
C         2.84240340468065   -0.88185808997643    0.00865704243283
C         1.02936846055560    0.82667797991346    7.17121736021740
C         3.26600188274283    0.70528025464484    8.10457198941388
C         3.78419991982717    2.12705847177394    8.30008799453729
C         1.26582786955975    0.38327668596065    9.53058317844079
C         1.04491415947844   -1.10940704703898    9.75291148113226
H        -5.38956858951658    4.42781776133983    4.06163242991802
H        -4.89429165485443    2.72398643717186    3.94968807590505
H        -4.06150453372656    3.09528044066034    1.64565848534248
H        -5.76897866273253    3.52645512045926    1.76695272067003
H        -4.53906856490108    4.79501615013039    1.72076762461917
H        -3.73751858514385    6.10507423808106    3.74880692218695
H        -2.05098306948849    5.71477949443757    4.15385181062912
H        -3.17678898090548    6.83130287502509    6.06796745612012
H        -2.71043266439923    5.17963060826339    6.48109851521678
H        -4.39813023788791    5.55446359852562    6.11561460571373
H         1.60187335406285   -3.40765167939502    1.11544374676883
H         1.00694461984276   -3.01074087901193    2.74173049145125
H        -1.32582784155824   -3.00177627556633    1.91233420591340
H        -0.77276111552047   -3.38545556277046    0.27797323438470
H        -0.55811454896205   -4.55752033218612    1.58450039141095
H         1.08191182319419   -1.95079954822167   -0.66523938225518
H         0.81578806438945   -0.22896480086237   -0.30371379977891
H         3.38438671438986   -1.76062949299028    0.35141868447235
H         3.07560785310918   -0.04864715499333    0.66605622748597
H         3.17190709784021   -0.63538709200400   -0.99660349725539
H         3.55247247010616    0.34507844266798    7.11290027182486
H         3.69043441165801    0.03651162397386    8.85700732964155
H         3.49783951004771    2.51151819066359    9.27653131513484
H         3.37294496412035    2.77863816870253    7.53374800565257
H         4.86757041333254    2.13883926521624    8.22222240123430
H         1.95538545509187    0.78648007917417   10.27527462968256
H         0.31058013803172    0.90813498707534    9.60743525281992
H         0.64326459504031   -1.27871260062988   10.74783626920979
H         1.97832836055855   -1.65893247289290    9.65177618365787
H         0.33552767781835   -1.48731908957353    9.02162939299754
N        -3.35023766950586    4.10180007160864    4.06851791581862
N         0.86758318361065   -1.49125956661796    1.33768935436682
N         1.82400503596576    0.64449792720863    8.21828473107905
S        -0.83058465530729    3.57174950566526    4.73245054437490
S         0.54267502191410    1.08139302592391    1.83456058310178
S        -2.65667524518997    1.54394647019279    3.84957733826590
S         1.73725018581286    1.14634588788802    5.62251882089056
S        -0.06663609961387   -1.02002743499635    3.76730546831756
S        -0.63912168460405    0.76605265349756    7.27597828008337

