71
CSD_code = AVABAC | q = 0 | S = 0 | Stoichiometry = C10H38B19ClNiP2 | MND = 7
C         6.54712584159697    3.36763273858090    2.26601028740059
Cl        6.76409642600667    6.92418202773823    4.29844307392983
P         7.73358952889692    4.56914992242198    6.13758382738824
C         6.38759598523767    2.59542349450446    3.56713086812929
H         7.28553756772381    2.17092976865448    4.00697616130231
P         3.35288264394959    5.83286135527906    4.46627138462787
Ni        6.45271818560062    4.72914363237500    4.27088709052854
B         5.42696137842178    4.62621300835886    2.41315946136229
H         5.63702483765370    5.65128137363051    1.86680534712961
B         5.17750294426184    3.20326272195647    1.28974601303530
H         5.30335063907427    3.36493296581938    0.13379126765327
B         5.83595462103118    1.81091060273589    2.11174608070478
H         6.47785920019173    0.95011808940962    1.64533117218218
B         5.12493739705553    3.15919683396932    4.59300821104599
H         5.21100661240700    2.95159048066231    5.76153223373107
B         4.33476044704601    4.38476619278271    3.75930339280476
B         3.79009060049430    3.81048401268601    2.21213945690439
H         2.90318436583725    4.34793008867247    1.64104682500809
B         4.10116191673844    2.05365429938936    2.11471199969019
H         3.40323686414211    1.30433256383150    1.53418661123958
B         4.98152449481574    1.66628145282032    3.64875185191669
H         5.03307165674782    0.64276558424576    4.23084248100776
B         3.60843861329089    2.77635346925581    3.63488854607854
H         2.58815639192946    2.53059715550940    4.17770120201340
C         8.37194968440433    2.95388390608835    6.77181114842366
H         7.54422695474478    2.26227233654104    6.90680387930754
H         8.87988579740296    3.08870871549211    7.72414345117051
H         9.07279677923871    2.52309590900367    6.06079994612742
C         9.27403997271127    5.57247008106832    6.24619508964878
H        10.00789404702105    5.21826858125565    5.52729749988993
H         9.69597605999693    5.52211306235262    7.24793286681911
H         9.02978026174864    6.60357569084015    6.00437026304773
C         6.91958567314084    5.17174801495994    7.67989137253949
H         6.67223201342097    6.22288690261809    7.55997779512235
H         7.58351103195513    5.05751464390320    8.53441110311354
H         6.00592716727566    4.61164976197425    7.85942914374866
C         3.81641461166631    6.41551707180352    6.13804780788439
H         3.76217439525200    5.59051258223880    6.84325985605496
H         3.16200491466268    7.21767512867553    6.47024182925305
H         4.83994846183287    6.78127352327666    6.09368590876717
C         3.41306054796454    7.34746354507950    3.45005786296705
H         4.44040609765205    7.70569839903763    3.42977563572723
H         2.76934528888579    8.12005592692101    3.86341485088216
H         3.09920558058377    7.11729490559169    2.43572511463477
C         1.55484182904264    5.50301630879419    4.63346993625241
H         1.15499185627684    5.20202051337545    3.66971933245886
H         1.02477979376451    6.38535259932902    4.98326551221398
H         1.39688578764406    4.69021000031229    5.33630262314934
C         7.91208707437876    3.57875922135238    1.67225360602609
C         8.61345031725771    5.02021381356314    1.82884663994121
H         8.05379312510367    5.76424598218638    2.38427599948493
B         9.26931933805045    3.74476132267769    2.73556942460081
H         9.04241247836613    3.74348302221552    3.89009289907915
B         9.12487660890406    2.36062953068597    1.68191062864081
H         8.86678637287095    1.30817299054821    2.14122453894070
B         8.37797737243946    2.88296794525932    0.17274086644896
H         7.61369204663129    2.17642135986040   -0.37172243011066
B         8.03565322650950    4.60044320919314    0.28748220497773
H         7.05994886646291    5.12198531479107   -0.09644151704943
B        10.30986552429304    4.94295736352780    1.98930637314138
H        10.83306915743367    5.73395342350826    2.68444339921523
B        10.68580507573747    3.20732295727060    1.86402266633665
H        11.59371371448392    2.71447822141894    2.43001874100031
B        10.13781167389204    2.66562348295965    0.25586840686455
H        10.67057482844874    1.78295124651278   -0.31298732550099
B         9.45115701912493    4.06739753107197   -0.60944582057064
H         9.50421008858387    4.17728285335921   -1.77986763804336
B         9.55648756380208    5.46499522158662    0.48552449965718
H         9.59340085836009    6.60085337447831    0.18658045778654
B        10.87698810118979    4.27825231251031    0.44720394911342
H        11.93808579922446    4.54267635363986    0.01207475400900

