36
CSD_code = AVACIJ | q = 0 | S = 0 | Stoichiometry = C16H15AuClN2P | MND = 2
Au       -3.43652208283199   -1.05898558892925   -3.56256921018433
Cl       -1.40351811129596   -0.44618499393688   -4.34602600971234
P        -5.50031042907427   -1.60839456124774   -2.87119696934502
N        -7.15704384869487    0.00058152232681   -1.36577764635650
N        -6.79909583055253    0.79908102433668   -3.40072630580738
C        -6.55990264581269   -0.21069127920556   -2.51906741052356
C        -7.81297962901289    1.17181711466085   -1.50141316565396
H        -8.39059206187565    1.57556893283684   -0.69458350025664
C        -7.60607557653189    1.68219746326188   -2.75568969642044
H        -7.95882543490139    2.57856471829011   -3.22313833111684
C        -6.31992528698883    0.87912194169396   -4.74980309995156
H        -5.25320263088384    0.63235280954747   -4.78099278444502
H        -6.46340266802909    1.89005439698572   -5.12757293373719
H        -6.85777060042410    0.17680524592659   -5.39328430325836
C        -5.58193394267742   -2.53479314802513   -1.32449456058599
C        -5.12353766028447   -1.89339556473748   -0.17609628872786
H        -4.80111616574764   -0.86328108468744   -0.23538108786130
C        -5.10057783412352   -2.57400992247270    1.02508760691063
H        -4.75759482719262   -2.07609283827501    1.91976376395998
C        -5.51166074069176   -3.89718131390503    1.08057766124071
H        -5.49062854869052   -4.42861754661786    2.02039718853637
C        -5.94109540552931   -4.54220304297453   -0.06700095002930
H        -6.24980827157486   -5.57658223337323   -0.02365432900674
C        -5.97309369617167   -3.86754116336009   -1.27507486146290
H        -6.30271883429763   -4.37271267812541   -2.17295649364630
C        -6.49689739953232   -2.55426638187025   -4.05521441358796
C        -5.89101705980338   -3.10831437640153   -5.17657157935874
H        -4.82832813635507   -2.96891550386074   -5.32973417186073
C        -6.65065905471196   -3.82938934997062   -6.08169481487903
H        -6.18200760989760   -4.26325775285432   -6.95216893238751
C        -8.01006222242335   -3.99112680376158   -5.87003348027878
H        -8.60153035095599   -4.55250774085646   -6.57773285857499
C        -8.61629229200123   -3.43442516286598   -4.75302714478236
H        -9.67635516507107   -3.56382743488955   -4.59254423057944
C        -7.86502304668741   -2.71547367011535   -3.84315570008138
H        -8.32149489844493   -2.28017403208183   -2.96394895632562

