47
CSD_code = AVAMAL | q = 0 | S = 0 | Stoichiometry = C17H24F4IrP | MND = 8
Ir        2.78576104179762    0.07267845834364    2.52531573307834
P         3.44476597362306    0.05656146983463    0.31419082313200
F         5.00590276515014    3.76984841395445    3.46327552942186
F         6.03297194749613    1.85507134747558    3.60633314400235
F         1.95878559038881    4.40703195366143    2.60067786469344
F         0.36712947189421    3.04488445148843    2.01034232470524
C         5.09622510298259   -0.67732300804412   -0.00406796709139
H         5.34745428939934   -0.62590003705514   -1.06219959725148
H         5.10336752522786   -1.71442219525338    0.32094790591699
H         5.83374631891362   -0.12691202935482    0.57570457939425
C         2.41129902796860   -0.84873019648060   -0.90357840745118
H         2.82911778932800   -0.75425512032272   -1.90464966133713
H         1.40598298230271   -0.43457240042421   -0.88764224326279
H         2.36022391752156   -1.90062824555047   -0.63509737358553
C         3.62196751777948    1.66977229541879   -0.53826816805223
H         3.98930844510550    1.52584503725838   -1.55330168959915
H         4.31639877968314    2.29416938790790    0.01917869177200
H         2.65558686003087    2.16792682362665   -0.56457929718003
C         4.86429024816569    2.44381707270602    3.29049443436620
C         3.80008607389839    1.81483191217948    2.85223529394233
C         2.47063054446304    2.09001123733781    2.48074444739155
C         1.65691501228427    3.11435582528155    2.38530470443244
C         3.30695128092628   -1.43330187585503    4.13892607457029
C         2.78089081832237   -2.10775077539120    3.01206567664798
C         1.39547945234651   -1.69730010350062    2.84075972834134
C         1.09872673129831   -0.75265062082601    3.84038072532110
C         2.30478784072024   -0.51174768331166    4.59044886221567
C         4.61759685792677   -1.68803363496305    4.81275535920087
H         4.47103348682555   -2.34341789423924    5.67372182629314
H         5.06494163718893   -0.76150261299407    5.16577580071541
H         5.32186114485202   -2.16657318112836    4.13659898766622
C         3.39887537399577   -3.29453433432031    2.33564890762793
H         3.07285798484198   -4.21082420000215    2.83210598079804
H         4.48500519162251   -3.25347096833123    2.38462580816578
H         3.10373761702080   -3.35921548619849    1.28942557096400
C         0.39188219419905   -2.37575116249365    1.95985234844407
H        -0.13563922885533   -3.14562910680689    2.52696249485283
H         0.86805543082771   -2.85507606565999    1.10792595336604
H        -0.34671776307722   -1.66798702166623    1.58830224131994
C        -0.24559556489489   -0.17793979475094    4.14842316468287
H        -0.75746101074626   -0.80671149764104    4.87991965511105
H        -0.86307818772948   -0.12307932274863    3.25499783333454
H        -0.15907968678469    0.82277804595965    4.56481412520337
C         2.38317438333784    0.29163338123378    5.85055933592198
H         2.04083687570826   -0.30814800223182    6.69625591056480
H         1.75769240199388    1.17984317352602    5.78954309068041
H         3.40516751273176    0.60662829036577    6.04904346655581

