66
CSD_code = AVAMEQ | q = 0 | S = 0 | Stoichiometry = C31H29ClN4Pd | MND = 4
Pd       10.27078990819662    4.01287552375835    5.02906026032597
Cl       12.53950529572575    4.42993409303898    4.85801687424157
N        10.21877126325650    4.42936674315763    7.00778231568492
H        10.95118247430628    4.86054759302429    7.56892522969714
N         8.04005446367523    3.85626798124896    6.78091049504871
N         7.61912416329202    2.70941387719861    4.84782070447595
N        10.51023795272570    3.70153392748255    2.01671400074008
C         9.04121415442336    4.36508606919922    7.54457837401207
C         8.76824117329483    4.84631160210299    8.91284570412639
C         9.66233231387194    4.54450129604588    9.93758099424694
H        10.51993807727299    3.91853885761758    9.73375233563736
C         9.43993391455320    5.01939452714404   11.21674082076673
H        10.13221631065045    4.77285719641388   12.00759738662793
C         8.33462790131763    5.81103203520031   11.48058431440570
H         8.16376124822299    6.18395674811690   12.47910803579062
C         7.45129396157645    6.12788828050070   10.46128849507410
H         6.59441052611897    6.75287944510949   10.66241514304702
C         7.66137318595625    5.64769061615655    9.18261089647440
H         6.97752976268707    5.90665662299879    8.38833269534979
C         6.77743957396673    3.48531013673404    7.30658618955135
C         6.69093431307455    2.71689374468323    8.46096373087982
H         7.59144368705846    2.39510447650791    8.96355930441557
C         5.45021587089934    2.36303379954324    8.95865864945286
H         5.38615733134866    1.76976752108389    9.85855795366017
C         4.29694808249275    2.75711461543670    8.30169707919939
H         3.33046235570144    2.47513936107810    8.69130324891972
C         4.38594028820607    3.50710374731941    7.14064814455560
H         3.48815309304840    3.81144557797415    6.62358653697886
C         5.62160780962624    3.87481075596547    6.64176386627778
H         5.70175970082534    4.46398137919221    5.74172240680901
C         8.40751941699614    3.48336587599023    5.46793670866032
C         7.93689471496300    2.16098188402601    3.61793379764490
C         7.17405947219720    2.51832266886128    2.49770331019544
C         6.09646442386565    3.54856731368192    2.65099977562301
H         5.42097950023545    3.25972675668626    3.45486896094412
H         5.53032515503690    3.66214140552617    1.72977262881065
H         6.53681254986378    4.51115812354183    2.91500094345664
C         7.45876571212822    1.93905120145667    1.27338849216420
H         6.87455556396273    2.21438261140078    0.40628752481468
C         8.47648951390195    1.00838713736986    1.14965948919658
H         8.69443043199237    0.56836879132012    0.18806190805095
C         9.20874337110517    0.63899437489478    2.26275486660564
H         9.99021013084744   -0.10135749025556    2.16408273967282
C         8.96477358027188    1.20792612443820    3.50438604361990
C         9.76338828387766    0.78107152882755    4.70873194665576
H        10.29667156841817   -0.14321247158982    4.49756289987697
H         9.10174387891313    0.62010334616794    5.56061272121674
H        10.51392031475607    1.55021395813654    4.99126316909771
C        10.24265115556345    3.78463887651907    3.15141509369307
C        10.99068070716478    3.37826303403767    0.79120046281070
C        10.35593828149816    3.87307434866887   -0.35188397200927
C         9.16927635020627    4.77228660778152   -0.20852242992976
H         8.74432125966538    5.00947755468847   -1.18012281787596
H         9.45838945251111    5.70115577198747    0.28366660835703
H         8.40941875077074    4.29447296193609    0.40907842802679
C        10.86698795520927    3.50832211046938   -1.58668639712180
H        10.39374237434838    3.87536916703275   -2.48549175962221
C        11.97523312717399    2.68256890700289   -1.67618133916876
H        12.36128678369303    2.40717486801708   -2.64637922237984
C        12.59458283015844    2.21075364052273   -0.53110113525908
H        13.46200376179909    1.57249352156323   -0.61249627730443
C        12.11971080764272    2.54862199167494    0.72634553936154
C        12.75774242474730    2.06092050637799    1.98433824133881
H        13.03640137609974    2.89868828092400    2.62604138378246
H        13.64398226584162    1.47137773371778    1.76701914272110
H        12.05340259520179    1.45110882556571    2.55174033781520

