84
CSD_code = AVANAN | q = 1 | S = 0 | Stoichiometry = C35H44AuN4(1+) | MND = 2
Au        1.96195440019443    0.61722255461414    2.73438074430645
N         3.13237379594992   -2.09640774698214    3.05784701727962
N         4.70326761350438   -0.73566749587418    2.55057237663027
C         3.38444192296696   -0.80631383013248    2.77875088787445
C         4.28226732756109   -2.83296773523151    3.00620995084169
H         4.29837258312718   -3.88574373510159    3.19779625933718
C         5.27754661037417   -1.97076303106550    2.68549312769047
H         6.32570430412909   -2.13091810214034    2.54023849982633
C         1.83372816450676   -2.59617107021775    3.35033273203004
C         1.04108842683367   -3.07484937778242    2.30772927027868
C        -0.22915547755616   -3.54022649464723    2.60987509240634
H        -0.85338527995506   -3.91714131620783    1.81343715858801
C        -0.71196163586537   -3.53817238832924    3.91195146614261
C         0.10151039703282   -3.05159057278953    4.92691160772143
H        -0.26423893996579   -3.04819300324952    5.94289824544059
C         1.37751864309712   -2.57670606475821    4.66772441591483
C         1.55791366886078   -3.07593580462766    0.90165403983983
H         1.85804406701236   -2.07175288705022    0.60101903996691
H         0.79588593541064   -3.43137021718189    0.21462923228312
H         2.42906015995887   -3.72438067314127    0.81288983347605
C        -2.07400525595293   -4.07496001010220    4.21942406522680
H        -2.49930799593549   -3.58739876460254    5.09315385934003
H        -2.00727652677993   -5.14186025039574    4.43251592648377
H        -2.74598263574163   -3.94731177883144    3.37418816044410
C         2.25273722650527   -2.05068318505058    5.76367852617419
H         3.16632881516309   -2.63926634918498    5.84251103903346
H         1.73617328570135   -2.09025942009256    6.71800727807184
H         2.53795752823249   -1.01747173830551    5.56275424390490
C         5.42527909500558    0.44015785089520    2.20461064388664
C         5.48828179354370    0.82994783563875    0.86845797988675
C         6.25698873361978    1.93692290119497    0.54412022105761
H         6.32011817336939    2.24605638296037   -0.48877335594240
C         6.96162459916766    2.63928902589865    1.51153533635204
C         6.86004753964477    2.23675206056454    2.83698695065084
H         7.40121735366241    2.77786066696276    3.59834338754561
C         6.09002139350928    1.14656514665096    3.20585139551701
C         4.74622281581727    0.06259620695212   -0.18298982273679
H         5.05127520419432   -0.98360940373210   -0.18774581891446
H         4.93673694888134    0.48044783197206   -1.16691202336285
H         3.67316787696242    0.09872589341146    0.00805326728919
C         7.83311609617782    3.79609703022176    1.13711614284318
H         7.77219812491912    4.58716943562106    1.88077274494719
H         7.55758516030969    4.19808548053458    0.16568821012608
H         8.87227806612354    3.47142904056489    1.08413729679894
C         5.96040699424063    0.73230023052069    4.63935219069183
H         6.52323273626970    1.40270935882050    5.28158227342512
H         6.33067163703907   -0.28132225103559    4.79052994417779
H         4.91372178978827    0.75801862748038    4.94356465115601
C         0.44990289645582    2.00580495466021    2.71750284246679
N        -0.82478003849745    1.71132832371709    2.51987116568976
C        -1.27723162405451    0.33790086341360    2.42692586415625
H        -0.41416663793715   -0.31894956989150    2.30182150790148
H        -1.92606527773779    0.24055124643106    1.55067485952752
C        -2.05216381047078   -0.03891617341796    3.68963082187845
H        -1.38001068292146    0.02653860805503    4.54821792678554
H        -2.39332443706416   -1.07001943053382    3.60778530262302
C        -3.23626474088843    0.90606280807837    3.87878183282418
H        -3.95375280874446    0.75556209411230    3.06949789608299
H        -3.74331456859244    0.68995141178207    4.81922592058991
C        -2.75475585248932    2.35481439469854    3.86487012046032
H        -3.60294372769566    3.03772328582779    3.91474594039029
H        -2.11695711666667    2.53950934210907    4.73254673165489
C        -1.95778025022153    2.62161876546196    2.58680564218714
H        -2.59101342822891    2.43522893389523    1.71331365336156
H        -1.63814675763998    3.66317063106510    2.54239794415109
N         0.80271057212744    3.26438953423106    2.93543627045132
H         0.12936665991307    4.02275267884421    2.98008465348854
C         2.15736000903987    3.65375183596706    3.15741137825038
C         2.95762706406542    4.00746672761326    2.07115708333563
C         4.24923444495721    4.44681301789728    2.32090271726362
H         4.87621549932137    4.73912243927963    1.49338137924632
C         4.73035919719439    4.52357582233229    3.61456891235539
H         5.72999509094432    4.88536543982775    3.79594023471940
C         3.93219431285515    4.14951216553707    4.67941829429288
H         4.31284080177928    4.20905756092485    5.68777772841992
C         2.63204053969404    3.71416574093427    4.46790425593570
C         2.42167552204461    3.92806965692579    0.67517528672517
H         1.62060613742068    4.65284929335073    0.52984165348075
H         2.01654152545282    2.93676862978648    0.47476415673952
H         3.20688159798826    4.13664484415002   -0.04513265120679
C         1.74376953785558    3.33019318275554    5.61210848795003
H         0.91726980585940    4.03479912625148    5.70675731997027
H         2.29978587922540    3.33219562699297    6.54505987495774
H         1.32184140504818    2.33718732329313    5.45667127894474

