68
CSD_code = AVAPOE | q = 1 | S = 0 | Stoichiometry = C25H33MnN3O6(1+) | MND = 6
Mn        3.51405662011461    3.89637900408373   12.82976778468594
O         3.75205102538539    3.59629712174517   11.09111924657944
O         3.10723646487437    5.62864778172644   12.87807010860243
O         3.04297633068694    4.17377591660489    8.61327679280324
O         3.09883045704113    8.09622027317663   11.95291268443833
O         5.70754275985564    4.39797560132269   12.80945563477456
H         6.03357773823286    4.26726042144340   11.90826536953814
H         5.82663534431107    5.33564428386701   13.00895737775175
O         1.50651416038625    3.46951793589308   12.58662891060891
N         3.76406958735102    1.96967975556963   13.12265505301906
N         3.58576558073673    3.89562999261579   14.78346797770956
N        -0.15930581793057    3.47225659008767   11.06380011828966
C         4.20014924520808    1.61624799480697   14.46365782333984
H         5.26800545167933    1.87553974100233   14.52563885715765
C         3.43527802709365    2.58416568947149   15.39620835703140
H         2.36655261742797    2.33015417479869   15.32928441039778
C         3.90130997926279    2.41567324179600   16.84226365172744
H         4.95593794566060    2.68738841760900   16.92242517678040
H         3.31854434662876    3.05913308237568   17.50309673297138
C         3.71331837051611    0.96354940440380   17.27789331407115
H         2.65124364433288    0.71249130806411   17.25701568014960
H         4.06319092988990    0.84710985184495   18.30383994503592
C         4.47910204807625    0.01801351471613   16.36121744175722
H         5.54722897173798    0.23397369950019   16.42296844283379
H         4.32826144129578   -1.01228169661388   16.68405762018281
C         4.01211191883721    0.16818972484563   14.91455269294797
H         2.95754892676797   -0.10551353877688   14.84102720951026
H         4.59681817589404   -0.50212183055557   14.28250797058391
C         3.42565463374365    1.06810088981341   12.26340028827621
H         3.45193688365810    0.01445645167198   12.53070811171926
C         3.03914100910897    1.34622426393375   10.91406956070825
C         2.54060415424947    0.32299902855650   10.08917870181680
H         2.42460073809382   -0.66871047981326   10.49863413930209
C         2.19181492647999    0.58302896126329    8.78977288418161
H         1.79801004304562   -0.20129476081703    8.16316379513779
C         2.34669349196105    1.86472191238185    8.25421588642794
H         2.06393169689808    2.03738421126485    7.22825701598250
C         2.86454549444871    2.88763483816624    9.01957116862495
C         3.21986045926585    2.64986602185318   10.38154289336562
C         2.76343107584420    4.49764183810495    7.27086544556534
H         3.37206986183842    3.90640836921988    6.58082022844373
H         3.01787336585149    5.55042190937543    7.16353324846504
H         1.70390429357675    4.35541209810431    7.03492733085914
C         3.87501442994337    4.93643271342487   15.49631902743513
H         4.03731450402804    4.83722167483192   16.56638672936026
C         3.94426784428805    6.27240357934028   14.99871549521451
C         4.31674268587985    7.32919723523912   15.85174684952269
H         4.61205123125623    7.10153788302571   16.86427289866639
C         4.31190851712569    8.62230351392493   15.40376467949493
H         4.61023587744190    9.42689143511435   16.05632375446615
C         3.90920394344442    8.92406948388959   14.09804715827597
H         3.90782669658111    9.95414852863767   13.78088729558609
C         3.50759042955683    7.92617770982484   13.23866475713915
C         3.53170649520799    6.56054060639609   13.66701683111363
C         3.04832612203594    9.40617551225647   11.43606173451865
H         2.35173171057130   10.03238180592440   12.00123631698424
H         2.69377631663476    9.30503281975193   10.41194936484993
H         4.03758591856169    9.87376380756271   11.43151633465856
C         0.89003870604034    4.01478787267581   11.65964971110013
H         1.18337128884002    5.00029517347579   11.27532349310377
C        -0.63895511260745    2.16318745147012   11.44493389990126
H        -0.02338256000808    1.79316985776581   12.26151588451569
H        -0.56734462781902    1.47895412612848   10.59792223101834
H        -1.67890994070729    2.22297616359003   11.76806763284298
C        -0.86204294967036    4.12194529240196    9.98737586540885
H        -0.39165085022469    5.07344986091167    9.75138035835154
H        -1.90251213855929    4.29914189456221   10.26717962429194
H        -0.84731895725834    3.48562098736019    9.10014898804862

