87
CSD_code = AVAQUK | q = 0 | S = 0 | Stoichiometry = C43H38IrNO4 | MND = 8
Ir        3.23987168926333    2.75251938508401    3.46622415066996
N         2.49255391608738    4.63947753505515    2.55693314359785
H         1.49901381914183    4.50762543413890    2.35429196974981
O         6.70452006159953    2.04915875758862    3.98102974499388
O         6.74713541659255    4.23061884360173    3.41799361041148
O         6.62094146965640    3.09719766332122   -0.71839731250496
O         7.50487682758617    2.56377633942170    1.27025567589708
C         3.00018948294291    3.82487245130973    0.31410588612261
C         4.00979103783145    2.86053355395625    0.24847541548420
C         3.94004802663774    1.84718584817993   -0.69823856578116
H         4.74422807266257    1.12963114350568   -0.76398443913332
C         2.76793394118196    0.68470040652477   -2.52612195065871
H         3.59583848387325   -0.00613799312288   -2.59745138901401
C         1.68780300595892    0.55798820360455   -3.32946383326472
H         1.63062383339946   -0.23661181532520   -4.05983930219752
C        -0.53766380202548    1.34841575912343   -4.04865346041226
H        -0.58260773895782    0.54936309426344   -4.77479628084034
C        -1.58899211219384    2.24000406770987   -3.93377389867564
H        -2.45417251032129    2.13347531395854   -4.57203372971914
C        -1.54098691578467    3.26592377953716   -3.00880597101470
H        -2.36528850366810    3.95953888181842   -2.92226278861172
C        -0.33691800018839    4.46813418128727   -1.21864470665689
H        -1.16686854177869    5.15611584965293   -1.13357299660719
C         0.75365168428290    4.60993249748122   -0.42963349085513
H         0.77469787142628    5.42304525686331    0.28104848429518
C         2.85362200410170    1.73032406746945   -1.55943694452947
C         0.59064510890351    1.46439716108525   -3.23624114094733
C        -0.42958874179337    3.42186364362046   -2.17933529894742
C         1.86491578583271    3.71387078260072   -0.50802851956585
C         0.65298847511473    2.51574961982978   -2.28741352584740
C         1.78754905777681    2.65735994074486   -1.45238503141308
C         3.14718237397977    4.97325171994621    1.27061514779872
H         2.72457137234218    5.89097086191714    0.84663189692885
H         4.20432801389332    5.15027033669453    1.48171321687919
C         2.63634729299412    5.71645667778870    3.51593393779625
C         3.42754682379985    5.42414286001454    4.64555854091201
C         3.93852476298838    4.10599536098669    4.80687835959802
C         4.71657603031905    3.86493437334507    5.91429481258074
H         5.15198053599539    2.88874204733880    6.06927257051425
C         4.98670083714432    4.87261197359466    6.85543004105541
H         5.60760431583684    4.63629972388444    7.70901512890277
C         4.47353667230088    6.13310610359842    6.71508728028900
H         4.67424292246069    6.89939785327329    7.44994570346446
C         3.66982745165321    6.44334184545214    5.60098092810705
C         3.08422475912670    7.70994974073539    5.39405630257381
H         3.26499159551458    8.48989018708118    6.11968783636503
C         2.29316915880516    7.95136299524363    4.30534319656220
H         1.83841612671167    8.92090850066793    4.16565233619719
C         2.06411716709503    6.94924916479883    3.34948436459249
H         1.43772104524382    7.16623588801640    2.49520332073696
C         5.17307143257743    2.89260499742145    1.16152071956875
C         5.04112743535729    2.94202238759420    2.50438579458675
C         6.47728056942508    2.86772426946891    0.46148029385139
C         8.79368846062059    2.57757410093436    0.68102105043740
H         8.79262829788543    2.00258437504244   -0.24815990475250
H         9.46523844732331    2.13074143327831    1.41034180992583
H         9.09773888300661    3.60347061007006    0.45848337072929
C         6.25211061763845    2.98036753651904    3.35772466935073
C         7.84373252544251    4.44564249464165    4.29240718745162
H         8.37513965814126    3.50648929043046    4.45870191932366
H         7.47327862131242    4.83060087336268    5.24513088126666
H         8.49581269312911    5.17843386093604    3.82040002896012
C         2.98189952458827    0.49645909070934    3.02410477834801
C         3.29358840713485    0.79936709153408    4.41216328046263
C         2.14203364247907    1.46008027175859    4.97690049057322
C         1.25354119930270    1.72820994830835    3.91772022641734
C         1.75562117406583    1.08769826810401    2.71701284234403
C         3.81901030756537   -0.39138511451537    2.16296429118750
H         3.63221632186692   -1.43656751568165    2.41855533664519
H         4.87557567300933   -0.18693560097238    2.32266083727656
H         3.58936358038604   -0.24983967053477    1.10968896944501
C         4.38552244910941    0.12571673323345    5.18484724175730
H         4.31221731691713   -0.95620295320772    5.06853084776249
H         4.31352723024958    0.36602571951224    6.24222076332960
H         5.36332115158699    0.44148346124652    4.82276398879535
C         1.91184496301483    1.72467161219492    6.43155543782707
H         1.11815808754074    2.45393864649131    6.57535569657853
H         2.81238807335135    2.10478356362504    6.90951314712237
H         1.62097347606365    0.79962151196915    6.93281296991564
C        -0.11356845311484    2.32786081956609    4.04085341489672
H        -0.83358194690139    1.56199520515564    4.33621895327312
H        -0.44801905659579    2.74472919125720    3.09142330605773
H        -0.13471190775901    3.11655653490547    4.79210063889931
C         0.96918751635688    0.93538803087710    1.45474963146962
H         0.18515030667475    0.18738097944500    1.59211759777622
H         1.60455767127190    0.61379069584872    0.63365703456077
H         0.48747418663656    1.86754938120498    1.16014203070328

