85
CSD_code = AVEGAJ | q = 1 | S = 0 | Stoichiometry = C26H48F3O4P2RuS(1+) | MND = 5
Ru        7.75362818807211   14.85927407939465    5.47839962932279
P         9.95042565924624   15.07454964558115    6.38909409561031
P         7.56461835466085   17.23052589806608    5.64070546974743
O         8.13789574911806   12.55221691444928    5.29249310439528
H         7.69219683486117   12.28279193599870    4.46068819941858
H         7.78715065121818   11.98208585985446    5.98825118774092
C         6.84329138947114   14.52844212276320    7.14405077591576
H         6.99860384081342   15.07393422367008    8.07544653134259
C         5.91241679781134   13.46940284861837    7.35561690907589
C         5.29465625764018   12.73880852880761    6.31842055720802
H         5.46520247726967   13.01355951383124    5.28878157295874
C         4.41129142140423   11.71757797189866    6.60067773596391
H         3.94316328371573   11.18120727391803    5.78974246522875
C         4.11807643684524   11.38183321808076    7.91534028144746
H         3.42870688307459   10.57995956328148    8.12877696692333
C         4.70219033466040   12.09381699895707    8.95580645105247
H         4.46589383632187   11.84450562656779    9.97878071715228
C         5.57280801406829   13.12502493346438    8.68537609056451
H         6.02050461443814   13.67541099186247    9.50050188112674
C         9.07699496296230   17.78495224126040    6.57359508110485
H         9.31613931853134   18.81284166655168    6.29321541176040
H         8.81309041081179   17.78790232977085    7.62829099406832
C        10.30199345668195   16.89798508461557    6.35670140694042
H        11.05857489520882   17.12709713564896    7.11162765096963
H        10.73578610513991   17.10239323142738    5.37785761497388
C        11.36923888808745   14.37743371458437    5.32269667409185
C        12.75250423185664   14.94442703455877    5.65749225755958
H        13.42023805956822   14.70524600430244    4.83125052654838
H        13.18185282603869   14.50665071245030    6.54959067409673
H        12.74411811748525   16.02535047347612    5.76388381459213
C        11.06737120766108   14.73977498037195    3.86751790825869
H        11.17830797409520   15.80502244669989    3.68232441529930
H        10.06994064572638   14.42546042729882    3.57627818120605
H        11.77124039577333   14.22410523898751    3.21658802371945
C        11.37828710299480   12.85348644858909    5.43872344039332
H        10.38930720297912   12.45233008183894    5.22936074480043
H        11.69918953082517   12.51948297768888    6.42115538197691
H        12.07306915030481   12.43953289721712    4.71019309693347
C        10.23379473076747   14.56423997484291    8.20686815528484
C         9.58521726230806   15.62086368393723    9.10442907930795
H         8.61420293452785   15.91218307941614    8.72291001496692
H        10.21325306483104   16.50389377607596    9.18595538847753
H         9.45715717334322   15.21729193156250   10.10672231420510
C         9.53883619929432   13.21717007651531    8.40701270715073
H         9.55720826654241   12.93843581464342    9.45866162861160
H        10.03153410310213   12.43209690526284    7.84154185652784
H         8.50155027628164   13.27922322888790    8.07895034405630
C        11.69466289966386   14.45343948283844    8.63737266805198
H        11.72114401059117   14.30944410695218    9.71660645950059
H        12.24948392028547   15.36032668109102    8.41425956919053
H        12.19429047182237   13.60192447319163    8.18897166859055
C         6.08425290492444   17.91228496337739    6.64246554774243
C         6.35881302649290   17.88125568524923    8.14858931437928
H         7.03226924832528   18.68184137702729    8.44445727806495
H         6.76231608299832   16.93241822439704    8.47915176865060
H         5.41863804920596   18.03693055581191    8.67416977909433
C         5.69631455260604   19.35457586415472    6.31737451153956
H         5.31303476411856   19.46358421600748    5.30947175655216
H         6.52984527323439   20.03368521581956    6.47380070455312
H         4.89799450130419   19.65288392379058    6.99558722610897
C         4.91624594819529   16.98104219640257    6.31488675430991
H         4.02648363342889   17.28079634945195    6.86490070133245
H         5.16329181826184   15.95242733032674    6.58460302419970
H         4.68398972997647   16.99391545381667    5.25327047387095
C         7.68249908307946   18.16063074593164    3.97997476317464
C         6.40445277936534   17.88638238693256    3.18519383284845
H         5.57248908218297   18.49376224597479    3.53116138324103
H         6.11806399067942   16.83980751018500    3.26367842900808
H         6.56478668325623   18.11676210360716    2.13376839614432
C         8.87888392734425   17.55349161080078    3.24133585918023
H         8.85862538491377   17.86319770595088    2.19774461618901
H         8.85028382717532   16.46780540317068    3.25607712390116
H         9.81558032338670   17.90518842075569    3.66780407619169
C         7.93051358011952   19.67027016827798    4.05564515951679
H         8.75260183861125   19.92772989504814    4.71843152164992
H         7.05470911274173   20.23322279012398    4.35073739603943
H         8.20604811239481   20.00677595255303    3.05715877808008
C         6.01375424486023   14.56964156980231    1.45863730368627
F         4.71279369910694   14.82700174806592    1.56804161723321
F         6.18938356316037   13.59278118747943    0.58053582877379
F         6.61832327400309   15.66468990138900    0.99555063435363
S         6.72188568873152   14.07708302200893    3.12330772371657
O         5.94477994600091   14.81660972939693    4.11406097304903
O         6.56262796593015   12.64925192801907    3.19148972760656
O         8.09802353906193   14.53703612722270    3.11678024050544

