79
CSD_code = AVEPAS | q = 0 | S = 0 | Stoichiometry = C41H30O5P2W | MND = 7
W         1.44268781705132    3.56340783710065    8.36555886244992
P         2.12271554793918    5.59903961485252    7.15167804217805
P         1.68169673378260    2.12800610735161    6.36429442247141
O         1.69113923089245    5.07444599655815   11.08140042835766
O        -1.52193625015499    4.53329435586973    8.47747235195692
O         0.43789846494572    1.09238267438521    9.98302850455182
O         3.51207087144975    3.10969964169930    7.88760171868623
O         5.68823784492793    4.35507776093812    9.11941073617622
C         1.61676930565945    4.53681837254347   10.06926400723189
C        -0.42419714730893    4.18033441696087    8.41563297346645
C         0.78068906766193    1.99993215287064    9.36628831331843
C         3.25836515673792    2.25402489063413    8.79098166559247
H         3.68791567560190    2.41156220138376    9.79566818319149
C         3.05594326148323    0.85619876314990    8.36796729560100
C         3.50467626511863   -0.22673064201998    9.11297015357174
H         3.98091606588815   -0.05539784862089   10.06755604282957
C         3.34516607846239   -1.51182015075543    8.62393081448781
H         3.69321438018595   -2.35313370728037    9.20426033938548
C         2.74025988400790   -1.72154384215494    7.39525234955209
H         2.61767439953989   -2.72596831285288    7.01806132321143
C         2.27045271620933   -0.64857906906490    6.65372605575664
H         1.76976018181822   -0.82140555895021    5.71156692080910
C         2.42290476194097    0.64304563751915    7.13251639223215
C         0.25534863984990    1.38655186426563    5.50186928155246
C         0.33370228066615    0.75954743920293    4.26168456954694
H         1.27681281110272    0.71975702639374    3.73309747459811
C        -0.79651809094772    0.19331012871551    3.70051447352073
H        -0.73032459937073   -0.29302417146427    2.73783743061977
C        -2.00951752956458    0.24611167705482    4.36850123878778
H        -2.88863157309995   -0.19709260582091    3.92453103147927
C        -2.09346663712555    0.86833488584725    5.60321881164047
H        -3.03728482366401    0.91259899821792    6.12590947000781
C        -0.96570601420992    1.43705017070022    6.16660736321807
H        -1.02053395973132    1.92937788458691    7.13176675390214
C         2.81951752686504    2.47904492623647    4.98704707679168
C         2.34721802222489    3.17264486733626    3.87531124295269
H         1.30906510848258    3.47495761532135    3.83165767010555
C         3.19720542520102    3.46096940295617    2.82479020142839
H         2.82120238929587    3.98772287906492    1.95938031458235
C         4.52719223611985    3.07675328688257    2.88205475426567
H         5.18977448605890    3.29731717256554    2.05803060520847
C         5.00700311432988    2.41118934610079    3.99737993011293
H         6.04576381743004    2.11928726188507    4.04806491107075
C         4.15914632492668    2.11110840988140    5.04762437878246
H         4.53624298129403    1.59014642854281    5.91675065684188
C         4.80504518973330    4.87230377394113    8.47938989594100
H         3.89757961052650    5.28012772247787    8.98288332129994
C         4.88490023520258    5.20654430267706    7.04140152171524
C         6.11584253722351    5.11679383851498    6.40097217346550
H         6.96768302738248    4.79311155571076    6.98132040694406
C         6.23878328996699    5.44399041152643    5.06422257707616
H         7.20037707251104    5.38622134216748    4.57629181964862
C         5.11861494872003    5.83981472552784    4.35259027326768
H         5.20312777713968    6.09594311000468    3.30667294339735
C         3.88120348026977    5.90221887985814    4.97090151783681
H         3.01401249052815    6.18615581900940    4.39237057509335
C         3.74755476733218    5.60732930478821    6.32266150515577
C         0.97922455674588    6.16069314380680    5.84394898202874
C         0.01000524144473    5.28326928772696    5.37358860850755
H        -0.04270529260398    4.27904538698981    5.78034567300798
C        -0.88912796282205    5.68785964012452    4.40233373106552
H        -1.63910176118836    4.99770568076513    4.04393454538458
C        -0.82981147008222    6.97649697955018    3.89960336950517
H        -1.53287663179398    7.29595807554639    3.14470444097017
C         0.12750033037014    7.86128019145408    4.37244486630645
H         0.16890474904790    8.86924731911811    3.98611781235868
C         1.02727963514863    7.45965057600581    5.34157042805040
H         1.76889968358263    8.15239531805073    5.71623306078555
C         2.16791619537867    7.13043389874927    8.14439799710258
C         1.01514967151659    7.42394364707236    8.86822818981152
H         0.17077099955017    6.74698797215942    8.81414774303668
C         0.95613075061404    8.56053995008117    9.65081193725988
H         0.06119281527260    8.78113606470854   10.21307809015702
C         2.04918062657142    9.41065838629842    9.71987002828783
H         2.00750313219822   10.29527111054818   10.33770809286219
C         3.19604356201034    9.12377246654745    8.99975943120836
H         4.04876297981004    9.78493013886396    9.05288169364222
C         3.25916337749811    7.98818069425945    8.21006467607697
H         4.15933813519423    7.76903309878097    7.65153053365302

