118
CSD_code = AVEREZ | q = 0 | S = 0 | Stoichiometry = C48H60N2O5P2Pt | MND = 4
Pt        3.94918806830159   15.70083476458595    2.97217813215537
C         4.02157650484776   17.00628607259489    4.47771821974414
P         2.65922474833547   17.09356908495573    1.68106332224575
P         5.22922267337347   14.16494323574652    4.12082901187795
O         3.76243984863962   14.39222889471294    1.16010069679058
N         4.89481488468275   14.38873141015694    0.60785033085384
O         5.81076700233143   14.99133070764275    1.16577296049990
O         5.04205702938475   13.79784004199139   -0.43440921552067
C         5.03654246011474   17.93610893099999    4.54795027543447
H         5.84076557325023   17.91585092175121    3.82246601449773
C         5.05432638598696   18.90796861670181    5.54295182277944
H         5.87418110237011   19.60828011394999    5.54355765642466
C         4.06139412351806   18.99088001514208    6.51133344272170
C         3.01637533916750   18.02964762847799    6.48869894855700
C         3.00366973913916   17.04329089424623    5.46427431473505
C         1.97006814997006   16.08752077327536    5.43600862199702
H         1.98907622316438   15.34321411394580    4.64451115507754
C         0.97864100235562   16.10169215684899    6.37871899280282
H         0.18480823827274   15.36964867440418    6.35390219225952
C         0.98775438720414   17.06578522498452    7.38419175115077
H         0.18862348938210   17.04304829390731    8.10678400901741
C         1.98302328071804   18.02829634385864    7.46498135401628
C         1.99939994946343   19.03675949892822    8.51339111333149
C         3.02894777666566   20.01611753594516    8.51501154218577
C         4.05866325801589   20.01984977066147    7.53397921810357
C         5.02648874072948   21.01881198325804    7.58664995191477
H         5.81486407647983   21.05195676498894    6.85284237459705
C         5.01364617651689   21.99813669218203    8.56456260316088
H         5.77086152099765   22.76741044110880    8.58817769742955
C         4.02855410706519   22.01092753805667    9.53433321318401
C         3.02873941862527   21.01855941503522    9.52104603885211
C         2.02419829428217   21.02997134886447   10.50873303162661
C         1.04342636887229   20.05676501912651   10.49624935825795
H         0.28506575844541   20.07720696174362   11.26453368980408
C         1.03436588947157   19.08020382533153    9.51459433163540
H         0.24760011388431   18.34475375411225    9.54742914641287
C         4.03674378139878   23.05977161583538   10.55937417116643
O         4.86570919599862   23.94835424884515   10.59781709606923
C         2.00553078013982   22.06143664771183   11.55308069553973
O         1.14918370932409   22.11814463117690   12.41511373940102
N         3.03516724354396   22.98437569222851   11.51370239403408
C         2.99089640949265   24.04140743871269   12.48882064087438
C         3.45566117960224   23.91305080302388   13.79408313845714
C         3.25725549178927   25.03263938742271   14.60418107460722
H         3.55396029948823   24.99572081789768   15.63973253205842
C         2.68932649490262   26.20155621161118   14.14705043018087
H         2.57891334626312   27.02269362301938   14.83946262216624
C         2.26442168476962   26.33277016084258   12.82918961075567
C         2.41993103125949   25.22024030998876   12.02305841553272
H         2.09696433516127   25.23078559964823   10.99412716203500
C         4.08258009457523   22.67114798706487   14.41966360643961
C         4.65682424927218   21.67090563087718   13.40830344852193
H         3.87464572490899   21.13024596669162   12.88295309824273
H         5.25661558695589   20.93152770197947   13.93726574054252
H         5.30044001939303   22.17014609727978   12.68761827777215
C         2.98615501012498   21.97337357905347   15.23786972005505
H         2.62755677534785   22.62273425308502   16.03303491829786
H         3.37134957415616   21.05761879910888   15.68204444318427
H         2.14283933771146   21.72721726873881   14.59626684163348
C         5.24518580232650   23.07578157629267   15.34176864792953
H         5.95198876514674   23.70256959331437   14.80249765726657
H         5.76739803447554   22.18569975488013   15.68663497758464
H         4.90589802423519   23.61199729737751   16.22269142126791
C         1.66079539459535   27.63877625530238   12.34308115172542
C         1.24811042658283   27.58129331053397   10.87021005328102
H         0.48561045097749   26.82270224630237   10.70828362998336
H         2.10436861122885   27.36940085738426   10.23417705364028
H         0.83528028933086   28.54272633594160   10.57037805730762
C         0.41513696836290   27.95836140827548   13.18106742097454
H        -0.30981359390838   27.15140219061021   13.09821131685344
H        -0.04783602020705   28.87797721345806   12.82876802200200
H         0.66591535410209   28.08407517607930   14.23064176845987
C         2.70225008551753   28.75430155204451   12.50808703593422
H         2.30009286824177   29.69977581616204   12.14960070024487
H         3.59648148455141   28.51810535702239   11.93546075820831
H         2.98726994127523   28.87745332339106   13.54925441298322
C         1.23665566077485   16.27443787275050    0.85380261570014
H         0.70635275889982   17.00136971420848    0.23328634835873
H         1.65489640162039   15.50469473506812    0.20110821320891
C         0.31086478366482   15.62474855105985    1.87437182295487
H         0.86591099081822   14.88017445106935    2.44335469710855
H        -0.51854952097132   15.12631981162869    1.37685695067117
H        -0.09261765448639   16.36037942608553    2.56788479883689
C         3.61737557962582   17.76012743688612    0.25976491680846
H         3.74777865327515   16.94532778734010   -0.45755880666034
H         3.05154850916657   18.55344774138793   -0.23582866564279
C         4.97967357547188   18.25923688722495    0.72934620042647
H         4.87131858758033   19.07686580666037    1.43984577251108
H         5.57142997859598   18.60986787034901   -0.11368330952304
H         5.52281647392168   17.44570964774004    1.21301381152614
C         1.94552288532320   18.58774531142747    2.50260560866207
H         1.45734547919915   18.24401218442659    3.41824847378834
H         2.79743252219198   19.19842171898366    2.81400561360178
C         0.97482058827614   19.41856935384829    1.67459024821933
H         1.42065836444054   19.73669542752022    0.73509997155456
H         0.69491218699363   20.31151008092261    2.23014727801570
H         0.06623144982624   18.86293698644591    1.45704204251397
C         4.93454906781897   13.91604656523011    5.93366991656764
H         3.85198431456515   13.92018382583493    6.08304920137723
H         5.30685395926697   12.92610996917206    6.21129442914959
C         5.56388846508512   14.98088603653666    6.82228318414199
H         6.64902751725022   14.92480366006417    6.79773635623962
H         5.24178933257624   14.84130305333311    7.85259615297471
H         5.26340477415358   15.97548237153313    6.50472191683343
C         7.04567781429113   14.42375460893276    3.98260892601516
H         7.25292119042917   14.57449712949443    2.92099658001589
H         7.26025049207671   15.36743472194862    4.49172017850899
C         7.91602304948776   13.30241068898569    4.53736094501421
H         7.68549302300715   13.09110958730808    5.57923995309728
H         8.96328818251657   13.59199113701708    4.47625907391755
H         7.79010269586872   12.38902196231300    3.96172868047943
C         4.95204203474742   12.45553513086028    3.49103669675177
H         5.38008938215841   12.39005425438221    2.48764728626045
H         5.47790817014564   11.74136887884118    4.13059134325035
C         3.46067975831490   12.13831999351784    3.44326511911110
H         3.02615368947139   12.15853290140164    4.44112073191544
H         3.29332871288283   11.15242513276316    3.01422083156173
H         2.94630017320809   12.87113838723683    2.82045267028466

