46
CSD_code = AVESUP | q = 1 | S = 0 | Stoichiometry = C18H21BrHgN5(1+) | MND = 6
Hg        1.19724976691865    3.53648291565510    1.49262611287332
Br       -0.82361559326106    4.76575183034226    1.20364560015159
C         3.46010110240976    1.12257237249713   -1.65819736735140
N         2.66288593870482    2.92385036345228   -0.27129406056824
C         4.06088620784741    3.40261692505814   -2.12953090118613
H         4.57186735679240    4.14613065706689   -2.72077039576353
N         0.50186083593885    2.30654160638620    3.66745991188006
H        -0.24354002270353    2.84802223155876    4.10239315400823
C         1.44243397572206   -1.55639363909544    0.91903566313289
H         1.46539143504072   -2.62156186157669    0.74379066653656
C         2.11465600549767   -0.69423814330366    0.03154655365545
C         0.77359175552725   -1.03555680880093    1.99796297827186
H         0.25857026215971   -1.67745745200991    2.69523698209798
C         3.97529349708082    5.42234989469150    1.65693551308201
H         4.55053206511276    6.35438173976341    1.58212577198357
H         4.62525683525357    4.59319620996584    1.36098248178580
N         1.36517791212906    1.17257635653821    1.35701972544505
N         2.91601918406388    3.89624383945206    3.24925718874286
H         3.64104366689135    3.19897938409978    3.07641650950023
C         0.75383079215254    0.35599946996265    2.18939583414098
C         2.84553816953389   -1.15058386822358   -1.10158178164427
H         2.87348114913034   -2.21166074378952   -1.29701096833201
C         3.53047907120582    5.21679133393869    3.10485009134049
H         4.39430809330397    5.33489123193072    3.77202593901139
H         2.78508329295421    5.97160391192868    3.37039658977673
C         2.04631572609958    0.68785566330844    0.30544033927394
C         2.35833010635094    3.63316502134332    4.57667046818869
H         3.13794113631795    3.63642157122668    5.34962667254738
H         1.64043439754542    4.42471209854055    4.80891866233265
C        -0.00583422120703    0.97675811271408    3.33684086309225
H        -1.05008952839442    1.07284542673798    3.01886196177102
H         0.01905030980323    0.29937454904224    4.20180572723148
C         2.73115558830233    1.61236304494589   -0.55429520048041
N         2.81493229171849    5.42842486278086    0.76466968759100
H         2.32401389928235    6.31376626629529    0.87937664645963
C         3.30591045126295    3.80062971034385   -1.01368894047287
C         3.49202125371349   -0.27747614527979   -1.91367747182332
H         4.04676038379933   -0.62700695467091   -2.77096861729999
C         1.64775952076616    2.27977971654382    4.57784657350059
H         2.34190487176441    1.51069759167015    4.22540838930989
H         1.34665437517740    2.02808666691819    5.60310867255733
C         3.16652959097457    5.25752497264879   -0.64336760487504
H         4.09034763737549    5.79200601902271   -0.90516147445911
H         2.35750931888771    5.67087258896378   -1.25609918841466
C         4.12904788896236    2.07143210064825   -2.45508120021814
H         4.69482224609037    1.73983735876765   -3.31285275838469

