97
CSD_code = AVETUR | q = 1 | S = 0 | Stoichiometry = C33H54CuN8Se(1+) | MND = 4
Cu       19.73305440152677    3.53518073259443   19.11265255815843
Se       21.04225604225405    1.51006385363049   19.03509218730233
N        23.86687456569203    1.40457887687037   18.94410785346810
N        23.17250614625505    2.89939925558879   20.36714723634799
N        20.28269978021232    5.20571918745503   17.95161425005652
N        18.63155669141382    4.81042638475085   20.34008103313500
N        18.00893741775676    3.37003201908917   17.94817238572987
N        17.58635498926496    4.56578244867393   17.50021236648430
N        17.76634017373921    5.56141044817837   19.63157362938259
N        19.31177665655506    6.13292638785422   17.92078260593508
C        22.76278140034661    1.97286855923571   19.47341913117199
C        23.85564935385019    0.35272285611056   17.96784456949075
H        23.11343077981924    0.57823681933822   17.20046481925072
H        23.58212855764937   -0.59587290814810   18.43410685532306
H        24.84071418778725    0.26540243592269   17.51627240538997
C        24.97169242207039    1.97731348625731   19.50945470452724
H        25.96563104823549    1.68071120325804   19.24611634573465
C        24.54123187979088    2.90898467916393   20.39251828183177
H        25.09349286443574    3.56760807640004   21.02990579481343
C        22.30558454231957    3.70117865076264   21.17821538686264
H        21.43519326355058    4.01618804221326   20.58056636495538
H        22.84626862811016    4.57395061143828   21.53779939626835
H        21.94445760996624    3.12098953734037   22.03014701272917
C        22.68376671420446    5.04575569855427   17.47366369673644
H        22.49971633656852    4.04702006178694   17.88504459501230
C        21.40189683808830    5.80128546486285   17.58699608604410
C        21.14763500099076    7.15710568853675   17.31643631245631
H        21.85650846415086    7.89062444947061   16.99646288915970
C        19.80267596319520    7.34574906991774   17.53894993078611
C        18.97483080109325    8.58791323658963   17.47793174229783
H        17.99346254238562    8.34837469704040   17.04869700339639
C        17.83938153230784    1.00469684332420   17.30900255266396
H        18.39025292378489    0.90188326986115   18.25447430710352
C        17.55019455673273    2.45505362634895   17.11744833608038
C        16.80507699627033    3.07962084892538   16.09933540536523
H        16.30486599102275    2.59806458775851   15.28625350635450
C        16.84590293342765    4.42887642223016   16.36278893656600
C        16.29204460408279    5.58417925736963   15.59423401705693
H        15.97038976961317    6.36540795483320   16.29523069613709
C        18.82824608215040    3.90488131671153   22.62018980601876
H        19.88578577967018    4.18974786641049   22.61073107033548
C        18.13787825181432    4.70423842251345   21.56306375488548
C        16.92575925467364    5.40912286445178   21.64507283747233
H        16.30143701623580    5.51462961333584   22.50572321637850
C        16.70410319467756    5.94111707123392   20.39603143738379
C        15.54496038172527    6.73094821202398   19.88153685091434
H        15.89697844399375    7.44519719887558   19.12628898395215
C        17.95237678015860    5.75999876256212   18.21785051332274
H        17.29589258278936    6.57560628738523   17.89363302462003
C        18.71746633254765    2.41699368538694   22.27065473600993
H        19.10761431087025    2.23329135069960   21.26946754527772
H        17.67714664922397    2.10182702785971   22.29577578549187
H        19.27539936886305    1.81758773302060   22.98511312181004
C        18.25628986907526    4.17963078243675   24.00811491516642
H        18.30569659327417    5.23943604871382   24.24629072080764
H        18.82594944581421    3.63353962847540   24.75547646588560
H        17.22136978407531    3.85314662888844   24.06853060835920
C        14.88543455290070    7.52860586821703   21.00584701356465
H        15.61336078684997    8.16122465119804   21.50777279381449
H        14.43838102501615    6.86225171014946   21.73753292386067
H        14.10091168228426    8.16047007925070   20.59824538478220
C        14.53040572086149    5.78155138581262   19.23091988940884
H        14.98712412627670    5.19046689245829   18.43949869561910
H        13.70517605272380    6.34931651016516   18.80922581855213
H        14.13218176662798    5.09866263072820   19.97699561170149
C        19.63055687630994    9.64075249785947   16.58635002452732
H        19.82018097768452    9.24081106827853   15.59338792017352
H        20.57099898803575    9.97425585536519   17.01554292132908
H        18.97594734335305   10.50289469647588   16.49170372902980
C        18.77318848621119    9.13601551685378   18.89688153846617
H        18.32033098972026    8.39391320918757   19.55186323091386
H        18.13222333625610   10.01322942760809   18.86964691414641
H        19.73131188165418    9.42446736994867   19.32198615848048
C        17.38339040838778    6.15936981412209   14.68210036988122
H        18.26547213506197    6.44963496039824   15.25011367832280
H        17.00721642985382    7.03151572887075   14.15372821921202
H        17.68207429837708    5.41512230061195   13.94818391421977
C        15.07537025881059    5.16147021383252   14.77257617011263
H        14.32139426353883    4.70393616884733   15.40833842924521
H        15.36159450162179    4.45027143348907   14.00329507330136
H        14.63774583156222    6.02960750504174   14.28696340190340
C        18.72982973426313    0.50088303963642   16.17221316673934
H        19.66350119897068    1.05962077229813   16.15407673279104
H        18.23186957773065    0.61503080914989   15.21230752691240
H        18.96124499710440   -0.54965454214313   16.32366626378719
C        16.54253181205008    0.20085496877050   17.39195887339577
H        15.91097577599027    0.57180100045846   18.19590145115875
H        16.76780921122585   -0.84428779427936   17.58498248313623
H        15.99032133093137    0.26695462206199   16.45760256147624
C        23.07487746934087    4.90037714078700   16.00130285299816
H        22.29581933993706    4.37845905999618   15.45088859806495
H        23.99913835817858    4.33460234002920   15.91463333748698
H        23.22510627688648    5.87719565641436   15.54818439890234
C        23.79432062918732    5.73523201447856   18.26572356122164
H        23.49054833046095    5.89630939436045   19.29744489253836
H        24.02981997461327    6.69998027420948   17.82406714432119
H        24.69594777121500    5.12737042660597   18.25668374873009

