67
CSD_code = AVEVAY | q = 0 | S = 0 | Stoichiometry = C32H31FeNP2 | MND = 8
Fe        1.64624819774747   11.79974011690183    1.75109076852041
P         0.81991742234847    9.81687957276256    1.83934298651279
P         3.05568650961254   11.46424645531967    0.18172863872379
C        -0.51353911526950    9.76133492551108    3.08394408368401
C         2.84318971375711   10.00820878632355   -0.88946406010385
C         0.39314991197540   12.06718894101687    0.42055556490143
C        -0.07981688749529    9.00045317135834    0.45518890563906
C         2.95840855517171   12.46834735619659    3.31781518308122
C        -1.65638467127965   10.50155762657857    2.79047087195225
C         1.97865501528710   10.10588934583665   -1.97760186142109
C         1.91287945523483    8.46140985900168    2.40312703157936
C        -2.60681641379766    9.87516605999423    4.89987673964642
C         3.24612749050936   12.76104820374197   -1.09373970328143
C         2.62054569720795   13.55369559278601    2.45942913461715
C        -0.41758837089912    9.09456780863966    4.29756165343228
N        -0.44283260986494   12.33256373204174   -0.32510531777649
C        -2.70090010022156   10.55222241112517    3.69280328326325
C         4.00727585611560    7.86170299367499    3.43557589148450
C         1.22467628648146   13.75002798893865    2.53075786440406
C         2.51914325933507   13.93817103806664   -0.98431317675300
C         2.66538551215365   14.93937797383179   -1.92849786932932
C         3.11696369371769    8.82329830071851    2.99498556434369
C         3.53884680980712   14.76879396545935   -2.98871850963417
C         4.11377943622741   12.58902547797948   -2.16911932919270
C         2.33092195278592    7.78605993397120   -2.47716009731173
C         1.77004239577255   11.98956436374907    3.88845364248282
C        -1.46580959276741    9.15177652331753    5.20105351784774
C         3.43043693406138    8.78272772548639   -0.59076023837825
C         3.17466401619888    7.67786218852428   -1.38372278147508
C         4.25900824414929   13.59040751177767   -3.10999761493508
C         1.73177043758475    9.00142373540176   -2.77129168388778
C         2.49998126628667    6.14972314122099    2.69735891465403
C         0.68920752750762   12.76881200215053    3.38893008143368
C         1.60747311882737    7.11224293242332    2.26040141933976
C         3.70011029573734    6.51983068619039    3.28248356524592
C         4.82118766003791   11.29773721185346    0.69136507377966
H        -0.82088482558660    8.30279546585835    0.84577533739436
H         0.62176721328017    8.47907941764954   -0.19298155010983
H        -0.58272753452866    9.77669113473164   -0.11890030495790
H         3.95925537128752   12.16499560288050    3.57672069603984
H        -1.69901361181513   11.04585567076885    1.85649558998467
H         1.49794768008288   11.05169014981950   -2.18481624837764
H        -3.42139151797003    9.91752635556180    5.60818240427859
H         3.32612755546977   14.20277589746547    1.96284398214486
H         0.47375254235376    8.52970918486978    4.53579106770992
H        -3.58750093087474   11.12471704144878    3.46170256596794
H         4.94108085438503    8.15430564549745    3.89524879709932
H         0.66806578563268   14.54006335526572    2.05560555838758
H         1.82104823313340   14.04508909078502   -0.16751430366044
H         2.09276310605108   15.85097950696445   -1.84039688676371
H         3.33951810357927    9.87576555460850    3.09899627862391
H         3.65374529374583   15.54863763540748   -3.72740843656160
H         4.66164564402268   11.66223831503337   -2.27679785110909
H         2.13630992392151    6.92268203074077   -3.09657374766833
H         1.68689378701306   11.22160216734993    4.64135650467099
H        -1.38930425410934    8.63075728094626    6.14489175530322
H         4.08618518754974    8.68754999385204    0.26247226408851
H         3.63438379077887    6.72912816843188   -1.14593500604312
H         4.93205585133767   13.45203027683042   -3.94414680076574
H         1.06648110519514    9.08469611331445   -3.61799444450199
H         2.25837783336526    5.10277039646570    2.58207040701896
H        -0.33292635345387   12.70871619845575    3.72315201553950
H         0.67217766701780    6.81035698936338    1.81397928825729
H         4.39375905952265    5.76331915032872    3.61927990988293
H         4.90929875234419   10.53689621031465    1.46386434312132
H         5.14068302942319   12.25454103340691    1.10341577476568
H         5.45563074782161   11.03675330570713   -0.15418709686019

