129
CSD_code = AVEXIK | q = 0 | S = 0 | Stoichiometry = C40H64B20MoN2O2 | MND = 4
Mo        9.43126564345155    3.72039450250982   11.76757940281946
O         7.71619915747658    4.02357513196445   11.22836468949203
C         6.75692722497150    4.76758671311266   11.80107090630966
C         5.22472245734314    4.52869529885594   11.31529525142962
C         4.99223513572063    3.56037778389739   10.20555738611213
C         4.41891009026829    3.99448651063934    9.00890374849377
H         4.15989361262210    5.03357428841680    8.88354422987927
C         4.17351135638695    3.11466411313559    7.97152084644685
H         3.72311781228354    3.47976295581816    7.06042533430820
C         4.50617219423526    1.77615212531546    8.09388559116908
H         4.31151859404311    1.08914596523180    7.28404785401376
C         5.09325799713211    1.33289723467004    9.26488709121306
H         5.36848841903574    0.29482408221626    9.37779367921362
C         5.33089575536156    2.21278665767562   10.30633180830917
H         5.77829710754977    1.82170460067100   11.20508606663600
B         5.99456323052520    6.01006707339581   10.88160441745385
H         6.35125431693534    6.09581288350081    9.76634056063276
B         7.01981739910953    6.40722879397122   12.24910970343052
H         8.08949932952459    6.84989992782520   12.04353073329835
B         6.83683172652192    5.14007131645160   13.46306764206084
H         7.82152399219232    4.75059964850369   14.00400430635336
B         5.68672113207836    3.95360562208192   12.88593318580066
H         5.85524212324271    2.80104990434515   13.02976378330931
B         4.32487194792503    5.99511117152278   11.43565683702533
H         3.45106944647422    6.18001230515931   10.67497500848584
B         5.45879225046717    7.21707927275049   12.04894040239563
H         5.37631877351728    8.34910001897366   11.74940242944362
B         5.99243116383805    6.67800818771856   13.67071672713473
H         6.29437617532532    7.44260105124098   14.50969052674890
B         5.15998690400752    5.14225679838391   14.05345964847165
H         4.87424827044722    4.81980911439862   15.14662453705409
B         4.13973167183588    4.71881123934808   12.63924034585003
H         3.17078260053968    4.05554537681082   12.63615330716367
B         4.30150820002409    6.41865842246671   13.15640266878299
H         3.39709366975386    7.00112903820256   13.62655463605182
O         9.88345286196398    2.83573790130729   13.29597641570571
C         9.68271174305963    1.55362546127339   13.63910778327706
C         9.83497861801286    1.15944952139457   15.20791378825754
C        10.27037217853115    2.22755031179243   16.15288732587102
C         9.52356897711118    3.38341225354330   16.37005985720026
H         8.59140560705963    3.54355684042996   15.85411962170562
C         9.94563267773012    4.35410358119669   17.26162449480151
H         9.34166721986590    5.23775678777568   17.40464741241811
C        11.12536180524039    4.19336509881346   17.96502974126764
H        11.45133078105238    4.94531003310721   18.66789063296043
C        11.88591219771462    3.05563773276074   17.75425614598880
H        12.81442543617558    2.91823631973994   18.28832307649158
C        11.46811768424653    2.09074138233439   16.85706469049646
H        12.08431080370977    1.21925398607684   16.70421249319734
B        11.03144531018576    0.58696386322305   14.10431965209160
H        12.06246667197784    1.14805034467265   14.12804318663729
B        10.15760902861044    0.25151439161261   12.62022128869160
H        10.65733309332894    0.53395882510282   11.59411513216756
B         8.45711310057734    0.64326677864192   12.87999356418021
H         7.88705884652991    1.22085424568271   12.01091095192475
B         8.24064943977211    1.20274814471034   14.52398346481804
H         7.54640440026987    2.11212503700372   14.78554338838651
B        10.39559637803494   -0.46376158832475   15.36376899272248
H        11.05990994569639   -0.73954064394650   16.29064561330146
B        10.59708472392899   -1.07430601641867   13.70769322138829
H        11.42189299366161   -1.86223704180116   13.43044336310786
B         8.98399887609005   -1.04272690464700   12.93135281397069
H         8.68290347909373   -1.81204531579623   12.09640763865160
B         7.79800956336064   -0.44014199692129   14.12623731979054
H         6.67198061688066   -0.77545422803969   14.14114421225501
B         8.69836233242754   -0.06314687768254   15.63191717139241
H         8.27419129127145   -0.04232998239545   16.72665693971312
B         9.13622708474609   -1.48973348457543   14.65433962441123
H         8.94678680876741   -2.57944651326679   15.04794930359300
N        10.24712356083513    5.24522224168694   12.00876003424804
C        11.01685552028169    6.33400258710007   11.86424881218150
C        11.05652851047410    7.03539650226402   10.63424349107762
C        11.91643737486438    8.11131925545766   10.50224485580351
H        11.96479823006452    8.64042876958678    9.56179659921886
C        12.72358671914331    8.51972657319145   11.54835874625186
H        13.39813472644533    9.35302724346534   11.41995188985899
C        12.65337821463158    7.86439868925529   12.76583159628661
H        13.27481824506128    8.20437108628710   13.57961974399347
C        11.80334766411781    6.79040322523326   12.94977839235058
C        10.17274191529908    6.61274993351716    9.48408495350325
H         9.51476051510825    5.80028096706566    9.84626719953773
C        11.00618166000334    6.05721023583733    8.32563098943952
H        10.36471424549307    5.81592227712195    7.48106707600563
H        11.51978865990607    5.14868920611795    8.63124735013453
H        11.74518790103732    6.78633445096105    8.00073250393734
C         9.29098848621320    7.77144335095812    9.00882834744501
H         8.59111189975093    7.42322516761600    8.25190052169836
H         9.89600322679063    8.56295249195176    8.57348085710109
H         8.72439384897106    8.18692304639120    9.83898808637964
C        11.69023079576873    6.06417935117747   14.27084197822806
H        10.65753136221754    5.69597985970405   14.35025667139047
C        12.61719928469253    4.84366325536719   14.28410159271448
H        12.56030743087160    4.33657876243031   15.24597331284036
H        13.64710025441729    5.15068406737613   14.11066971180171
H        12.31926461488647    4.14680498749431   13.49911729608155
C        11.97419230047654    6.95807300974998   15.47645184376983
H        11.69913820960649    6.43735611493715   16.39087959705374
H        11.40093487255375    7.88004044008381   15.41438099392350
H        13.03126342358673    7.20570397220082   15.53862488856281
N        10.07017870333127    2.86664335889221   10.38483290004810
C        10.81713019715217    2.48214512065466    9.33934016260824
C        12.23025059360529    2.45003312728884    9.43129865801660
C        12.96865252875565    2.11748060765391    8.30938973856403
H        14.04722226614915    2.10776778436616    8.36698399462661
C        12.35431926436204    1.80488467343199    7.11041175904684
H        12.94954625586513    1.56218699562655    6.24283229515003
C        10.97229549194428    1.79095437511028    7.03040222109127
H        10.50498139490537    1.52760696430811    6.09428980258907
C        10.19119753379740    2.10638662954733    8.12597489311871
C        12.91950970453927    2.77696602433087   10.73542365321615
H        12.13642706544652    2.91574345784361   11.50466542379796
C        13.70502485232306    4.08719427049964   10.62737452000860
H        14.24832212791284    4.27870736213525   11.54994477287540
H        13.02789756985350    4.92027692283739   10.45372117408965
H        14.42015310197167    4.03907604181743    9.80908403708289
C        13.83518697525249    1.63280457772938   11.18071712440839
H        14.24049180914807    1.84078563742705   12.16889295396821
H        14.66700904129166    1.51370342185133   10.49084052520034
H        13.28463493489934    0.69583695613796   11.22285451238601
C         8.68036912214568    2.08344151409924    8.07661889305501
H         8.32803305541817    1.81022156405207    9.08137104046654
C         8.12533038558506    1.06643052761242    7.08117008993777
H         7.05166422988705    0.96471026040128    7.22220562638955
H         8.58979824403229    0.09396453614999    7.22643114922905
H         8.29813337967522    1.38818992491712    6.05686537969239
C         8.13979617723564    3.48298967418304    7.76332670482726
H         7.05317101097716    3.46202778691372    7.69655606796484
H         8.54182245501439    3.83914493362756    6.81645748875487
H         8.43175739543020    4.17577046770473    8.55409688939693

