88
CSD_code = AVIBAJ | q = 0 | S = 0 | Stoichiometry = C36H46N2O3Ru | MND = 6
Ru       10.59014050271536   14.63649042152236   19.38697478355399
O        11.70757332937665   16.58017202774739   19.79888128583372
O         9.59688364376173   14.43630070793187   21.46763335411562
O         8.71556424578285   15.73486564683062   19.94942782958308
N         9.91760262693181   11.88801512842060   19.75276135535276
N         9.17674318955124   12.44373905194305   17.78775217852183
C         9.76987412319060   12.91122280865824   18.88971894037448
C         9.55854850558788   10.60209877333671   19.16320968085454
C         8.86382463147790   11.02047261820373   17.86927424558976
C        10.73272393925878   11.96403027320461   20.90951062316704
C        10.33416412475322   11.37985770820490   22.10901242119779
C        11.18659562712430   11.45009989166721   23.20452052059068
C        12.40580851261603   12.10410563603289   23.13811825176318
C        12.76118537114523   12.72277406040801   21.94957365125079
C        11.94171395799571   12.68466884160180   20.82661919307179
C         8.99369845045761   10.72357265205322   22.27668225455112
C        13.29892912365093   12.17955805513040   24.34054693868435
C        12.28796800958941   13.40198521926262   19.57844500386452
C         8.76954801830231   13.15156981336967   16.62867637310524
C         9.49601587706952   12.99317473845603   15.44687658137305
C         9.06153820342742   13.64482440225352   14.30146702785051
C         7.93148005253614   14.44713210900029   14.31020810732677
C         7.22749335810402   14.59018008875562   15.49773019198353
C         7.62468779629839   13.94934506804471   16.66059505933741
C        10.74732593055615   12.16612810309006   15.41099520263833
C         7.48038167706972   15.16542260874861   13.07456010428029
C         6.86177799311650   14.12932887454207   17.93259278329613
C        10.97717056987345   15.21488687411431   17.62799784509522
C        11.50779807900300   16.52589757099989   17.47319877861538
C        11.67687207806046   17.13480183717621   16.21985492675791
C        12.16579743419553   18.41857863397824   16.10835165378751
C        12.50154806233007   19.12714279237858   17.25081658927171
C        12.35208429261904   18.55830067143096   18.50882923254674
C        11.86453954646299   17.26711710055695   18.63169518668311
C        11.97372097581152   17.23366063144636   21.03787740154014
C        12.22164700797400   16.14774463389853   22.07617177543545
C        10.79554783964822   18.12826546126224   21.42065164851409
C         8.70160009053141   15.22161306054983   21.09601989770020
C         7.53808884312807   15.52630816844830   22.05112229003274
C         6.65349383552555   14.27329956218906   22.04488963222781
C         6.74213390364349   16.73695959354940   21.57067533533286
C         8.09183570715949   15.75383026996695   23.45887889472957
H         8.90620144708884   10.01810470470476   19.81176257623186
H        10.46925512639864   10.01909647295499   18.97616832674286
H         9.23519487622501   10.48739326129019   16.99201665874517
H         7.77691926581839   10.87909044735427   17.91753293200003
H        10.87787395486412   10.99639220041326   24.13616534522391
H        13.70677605222875   13.24478990352059   21.88879552883872
H         8.24416586677502   11.21963351514361   21.66367615390266
H         8.68231957318724   10.78542512115652   23.31738765150340
H         9.03257952937728    9.66672772164410   22.00670309281960
H        13.23499386250624   11.26657651574080   24.92912945207630
H        12.99668751277610   13.01205954289900   24.97737039750814
H        14.33392897562565   12.33816090313093   24.04595773926716
H        12.41736028718384   12.68799096520386   18.75125297805041
H        13.23384567715087   13.94904555020386   19.69557905131587
H         9.62690823760902   13.52969419477255   13.38716130225873
H         6.34743290966524   15.21711050848158   15.51633724249200
H        11.24314112292773   12.18578987872477   16.37913545327986
H        11.43198936589644   12.55350451912777   14.66031682580184
H        10.52162295724760   11.13129415292561   15.14966527641658
H         6.42046238711745   14.99211864178970   12.89590032140524
H         8.04133393746478   14.83581996237836   12.20368821559277
H         7.62628194227704   16.23889296635805   13.19322098121956
H         7.44463944949489   14.76598669126820   18.60090828223443
H         6.69477665453409   13.17651019205525   18.43284291393852
H         5.90222083287652   14.60499436630918   17.74577717141113
H        10.77532894342837   14.73462477740665   16.66837488174490
H        11.40363495805460   16.57320027335958   15.33789600284257
H        12.28493238205511   18.87456283004915   15.13667445761014
H        12.88234001133831   20.13462422712106   17.17270089188082
H        12.62215119515890   19.14978568747280   19.37008503086565
H        12.88901167822900   17.83464648603993   20.92938153278273
H        11.39679073997241   15.43484287987372   22.08087057951633
H        12.30879979794756   16.58662048543528   23.06668144503905
H        13.14008478842649   15.61329853066898   21.84713458419312
H        10.62931373042189   18.89556735583108   20.66698217658364
H        10.97867339254848   18.60723017178470   22.37941362613461
H         9.89430464734766   17.52310669256973   21.49033600305247
H         6.26218064841563   14.08831765859551   21.04596530534428
H         5.81559847702327   14.39930574115496   22.72920120810533
H         7.23656247187830   13.41020472916259   22.35935616258633
H         7.35602482752235   17.63553904775667   21.58794266441373
H         5.87763072726559   16.89580174450925   22.21305575588026
H         6.40063530079675   16.58372763981716   20.54968701690537
H         8.74821854059867   14.93030408102682   23.73279981191090
H         7.27851814211561   15.81376259145777   24.18000511281472
H         8.66258370772940   16.67988127898583   23.50630884813323

