95
CSD_code = AVICAL | q = 0 | S = 0 | Stoichiometry = C44H43Cl2N3P2Ru | MND = 6
Ru        9.50612933548934    7.65382683576625   13.75820998213226
P         7.26680603487074    7.62952862895933   13.18119124721482
Cl       11.79061765702707    7.72867493299704   14.47250806328490
P        10.23414316379441    7.17187617300462   11.62903519098892
C         9.03057902365244    7.29033051986935   10.23431655386572
H         9.57035298069155    7.05922717738898    9.31097715965051
H         8.26302797579679    6.52718797797177   10.38591198502534
Cl        9.30435799477493    9.99242597399094   13.25899633356851
N         9.67878908601984    5.65413259160874   14.49055778720179
C        12.08546160287140    9.26596508496870   11.44602001745751
H        11.57405830798023    9.68616520562698   12.29939896712331
C        10.28682747690910    4.46667765298713   10.68176612863401
H         9.41644564587542    4.67570780463435   10.07777938247647
C        11.65763153168905    8.05809950506993   10.91250162087896
C        13.39994880422707    8.17923844070225    9.26068655551241
H        13.91476386963850    7.75270369058685    8.41129174772351
C        12.32304562115840    7.51597778270521    9.81463389507336
H        12.00341894089325    6.56771858776514    9.40182259794585
C        13.16591146184471    9.92646031704393   10.88686248953097
H        13.49609949140322   10.86438047400950   11.30826420015311
C        13.82362162341448    9.38575289730373    9.79644811782469
H        14.66960704688708    9.89922363126363    9.36267843179960
C        11.95488472880546    2.89686732058528   11.41233483809407
H        12.37652350802779    1.90268683551075   11.38709858731710
C        10.86259892628300    5.45971832089976   11.46757981186517
C        11.99397427854238    5.15239123499236   12.22374276338025
H        12.43802115624975    5.92677725333763   12.83626149873288
C        12.53656189198248    3.88194518729675   12.19541753715369
H        13.41559825749236    3.65910632430854   12.78232197733128
N         9.02981298823054    7.85827733490316   15.73926030810685
C         8.59427990579372    5.48678441206965   15.45270863447366
C         8.79290460801787    4.27308393627279   16.35895291339634
H         8.80669207759337    3.35854202146817   15.76906883051324
H         7.98211530470810    4.22175750551682   17.07880015497047
H         9.73229708712979    4.35941580026762   16.90205393522940
C         6.58386392872382    8.87483206115754   11.98620818387123
H         5.49875292718907    8.89212992650265   12.14082763976811
H         6.99268070104528    9.84196946465006   12.28909088706013
C         6.88233405376606    8.65274853719809   10.50463625426125
H         6.43405776790160    7.71242276622399   10.16764175415933
H         6.38445165453545    9.46082742955126    9.96139948298838
C         8.37324541432315    8.67416534883089   10.15233826338178
H         8.88528827947984    9.37249817629538   10.82206148538469
H         8.48673735750767    9.05781776589915    9.13671428341791
C         8.57024378815077    8.89690341954648   17.87834884323615
C         8.49800900356725    6.76002637479313   16.26165678400905
C         9.19182709719514    8.90995245983477   16.59495917594117
C         7.78023493763907    7.75616098645865   18.18679667000869
N         7.86396306638271    6.68210601861140   17.41748742771296
C         8.82482834980605    9.95107189454226   18.77335450959857
H         8.41977142887442    9.89719421388740   19.77235164558085
C        10.03027578803403    9.98487707181384   16.25989013186890
H        10.55745411435712    9.96983883857435   15.32007263620758
C         9.61938774224078   11.00322902078264   18.40170104835238
H         9.80761244185224   11.80965150900512   19.09529980606386
C        10.22231063763336   11.01776659766557   17.14043757286687
H        10.87406843242444   11.83406701860340   16.86890694074815
C         6.22824952484204    8.05676788766963   14.62146225297784
C         6.31924390955160    9.36030390453744   15.10691790136255
H         6.97700877007396   10.06667353940933   14.61731918477785
C         4.71524470053291    7.52074580433259   16.41273486141828
H         4.10334134089614    6.79759420265070   16.93152487048530
C        10.83303439196770    3.19373316620327   10.65769680040330
H        10.38054953385497    2.43094481883233   10.03974942476056
C         5.43988672754816    7.13350274500055   15.29994574091882
H         5.38040875620008    6.10917944748343   14.95783545836374
C         4.77742524593389    8.82672476936084   16.86515308530021
H         4.19923000905832    9.12431204540591   17.72722430699010
C         7.20127823541418    5.02095596661598   12.20701047837521
H         8.27432291410376    5.07166158125432   12.34057491971159
C         6.43334313023042    6.12805254808734   12.54373950814779
C         5.05629889122226    6.07786169539849   12.34747958577917
H         4.44160005815712    6.92711928656593   12.60988274358207
C         5.24518558660855    3.83963258400694   11.49491427257841
H         4.78096674794070    2.95411325719840   11.08709827486876
C         6.61563646933659    3.88153237939744   11.68487813062645
H         7.22900689027498    3.03052529318765   11.42527361452199
C         4.46919929256781    4.93939313135481   11.82713187327794
H         3.39975452700964    4.90876076061784   11.67793624106887
C         5.59209030702860    9.74224417746524   16.21802841060777
H         5.66386834965116   10.75782042848113   16.58029106502802
C         6.89144436566426    7.65611922936379   19.34106467936277
C         6.73709983539764    6.42101028450526   19.97177832692974
H         7.29829566849891    5.57848531386917   19.59865841408536
C         5.31279269035682    8.60644292710344   20.89161861548219
H         4.74709515635001    9.45714911837115   21.24330127848700
C         5.18477797961617    7.38156755130814   21.52570346267414
H         4.52734746633783    7.27852030056286   22.37622502134462
C         6.15781542663317    8.74721625152891   19.80686693828799
H         6.22514358455016    9.69618937361797   19.29704842425674
C         5.89594337622501    6.28767320542519   21.05817437975747
H         5.79270475530391    5.32877488621374   21.54464826402149
H        10.58231489078447    5.73999270409170   14.98104502026663
H         9.75080611862474    4.83995690175400   13.88045424802229
H         7.65723606684496    5.36395425729495   14.88646824888042

