102
CSD_code = AVIDOA | q = 1 | S = 0 | Stoichiometry = C41H53CuN5O2(1+) | MND = 3
Cu        3.89601824412742    9.92715894410246    2.52545451774821
O        -2.44122634000492    9.28919826007392    2.68649717641915
O         9.86676586772407   11.27535640631399    3.96966643496051
N         4.48583191897027   11.00625731455754    5.25884877237453
N         2.38265124427361   10.71240652715626    5.01177075797042
N         4.66595836929625    7.54362363016435    0.50441226948585
H         4.92113416120574    6.66960562475144    0.06407017855933
N         5.54060967884865    9.55288404385480    1.37131364384598
C         3.55861953397029   10.62044994927765    4.35762591699387
C         3.90525764640880   11.33559321455945    6.46318007982467
C         4.69076978131926   11.79696679811611    7.63466614300189
H         4.26552632309148   11.40159732276858    8.55429812073906
H         4.68599776251320   12.88505706991998    7.70152495780501
H         5.72315019131912   11.46618261305701    7.54572820398674
C         2.56421100417566   11.14932216951551    6.30492633773299
C         1.12394691152172   10.38167010505715    4.44055682842444
C         0.38718070163144   11.37286473055396    3.79388082054697
C        -0.82301786972041   11.03108469645586    3.20458566101515
H        -1.38958158616172   11.79381178834787    2.69812060187294
C        -1.29253858122466    9.72504590138108    3.25866293354944
C        -3.28741633814073   10.22360720700424    2.05447148509201
H        -3.61862095166385   10.99889240911080    2.75106808082558
H        -4.15060733059421    9.65469123415270    1.71432913515970
H        -2.79958659889907   10.68933016151799    1.19215105465737
C        -0.54535192920832    8.75526417222338    3.92668775937334
H        -0.94083953428785    7.75390398472627    3.95760947770765
C         0.65750967959484    9.06540497744477    4.53035067941535
C         1.44955699489611    7.99825841434936    5.24933747849470
H         2.25717515535361    8.47452745501871    5.81384952561340
C         2.08754919548463    7.05167296263379    4.22978959733262
H         1.32477056537468    6.58494776182603    3.61129296940195
H         2.64577626455904    6.27154004468340    4.74147539145707
H         2.76960028910343    7.60230636250739    3.58399435997291
C         0.58335877286505    7.22208175397945    6.24240850775521
H         0.06949953726882    7.90187367780604    6.91800582363922
H         1.20667625255563    6.55619533384556    6.83429517584836
H        -0.16111236596728    6.62045448186721    5.72983870672421
C         0.91258203548363   12.78525583517314    3.68206699120640
H         1.74695386742418   12.90738995903905    4.37897712361943
C         1.44944967174022   13.01685074129994    2.26642552445013
H         2.24442500936799   12.30616939802051    2.04234412586807
H         1.84918674583009   14.02369345412185    2.17728719340482
H         0.65780741641523   12.89572525572509    1.53068120969725
C        -0.14863123571072   13.82662027513100    4.04001538972703
H        -0.92564261627904   13.87944602667003    3.28274266021022
H         0.31011751802102   14.80950928868412    4.11460889871769
H        -0.61297035450672   13.58908328494192    4.99452003166246
C         1.43447772262953   11.35668179884430    7.24323181678880
H         1.78387698674457   11.29667563951802    8.27036236604365
H         0.66438146920244   10.60555342918479    7.07962597069613
H         0.98453415731842   12.33837650313230    7.09270010845355
C         5.87857085233115   11.05694330495724    4.98135014439732
C         6.64048175801195    9.89492149606056    5.08829964836323
C         7.98935620877705    9.94774437584560    4.76367623498077
H         8.57921817412168    9.05019220727922    4.84412717056789
C         8.57087331086931   11.13526688315292    4.34127100752553
C        10.73114790774071   10.16748935765769    4.07503713773084
H        10.80337136521326    9.81219652356934    5.10698283460797
H        11.70676137691216   10.52411511575289    3.75016050803765
H        10.41108834390709    9.34539894740146    3.42630502857009
C         7.79317415823186   12.29075226716948    4.26567071222366
H         8.27679481340357   13.19819638347994    3.94529809255908
C         6.45003639088183   12.27292270982113    4.58746511593428
C         5.61359490143414   13.52644799065699    4.47316286318752
H         4.66912238208657   13.37097044457179    5.00270287868069
C         5.28360786200930   13.79318348327370    3.00161275192718
H         4.68002905572292   14.69295633814562    2.91233274989145
H         4.72420230365714   12.95908653220582    2.58017542084788
H         6.19486164182140   13.93373147021262    2.42502763846136
C         6.30569708273714   14.73620547172655    5.10160853685626
H         6.63683157577648   14.50656275905339    6.11162670109007
H         5.61432946320920   15.57427324053247    5.14659979375621
H         7.16812656384710   15.04511196694249    4.51862958943111
C         6.03403807109341    8.59212950658493    5.55616742731356
H         4.98508265770549    8.76134415965469    5.81604275956948
C         6.74765656214115    8.07278369651193    6.80635629983776
H         7.77594249229205    7.79876130073522    6.58807950949001
H         6.23595787363311    7.19218144883179    7.18673076623931
H         6.75294634391247    8.83050556074349    7.58645008291602
C         6.06742914579656    7.55118837982066    4.43551960410975
H         5.49698536518852    7.90846130364263    3.58014963221316
H         5.62868012202788    6.61801088132447    4.77998308644580
H         7.08719596579280    7.35444531425555    4.11418333775905
N         2.82953429853367    8.87502841323236    1.14234024808297
C         1.50830382685243    9.06556382258114    1.15256532934463
H         1.17555669430455    9.99093874214246    1.59628214984058
C         0.60631035462487    8.15882285477802    0.64236318538760
H        -0.45088770462806    8.35774708676202    0.68217988585879
C         1.09703676239118    6.97988629780177    0.08860965491850
H         0.42581071157826    6.23746960576842   -0.31386603807869
C         2.45883324384548    6.78050612510483    0.05193765041362
H         2.87688226399310    5.88625926730556   -0.38399856375580
C         3.30902541485564    7.76104897646105    0.58272506746561
C         5.73042773173698    8.37200701234204    0.77559356741648
C         6.59653228804774   10.34466790568924    1.56654706852273
H         6.38825338963450   11.29417898682395    2.03338237394917
C         7.88146190608877   10.00124744388238    1.20883493095171
H         8.69488866264723   10.68525473605696    1.38173790879046
C         8.09270237161830    8.75553043188011    0.62525940181351
H         9.08385162641192    8.43890528921811    0.33917157480245
C         7.00982617265619    7.93449410119569    0.40360476623848
H         7.13250687732438    6.96804168552538   -0.06059020329829

