47
CSD_code = AVIJOF | q = 0 | S = 0 | Stoichiometry = C25H16CuF3N2 | MND = 3
Cu        2.80449924212952    5.12031854473806   27.97943968191082
F         1.34818554245578    6.12776380228601   30.28565810191642
F         0.88332411098408    4.05906657151253   29.88200486742468
F         0.02357850273751    5.61655806711831   28.65916256727214
N         3.17336052909216    5.13630549989486   25.97188708056399
N         4.84153474088921    5.06807358752708   28.02346124296708
C         2.30635901350912    5.18798262042350   24.98303859120337
H         1.26116980169936    5.18462081135828   25.25785105920959
C         2.69856518132969    5.23032691140181   23.64700648213467
H         1.94922506224432    5.24529884073551   22.87094309037585
C         4.04260454766769    5.21642993327504   23.31157119875107
C         4.98813219153923    5.20243896334963   24.36787746944825
C         6.39688894235417    5.29688306656805   24.18488217871744
H         6.77645675259434    5.42396608346923   23.18244812347370
C         7.25299991841018    5.26167350809749   25.23751935511648
H         8.31543212602299    5.36062959167669   25.07466664510529
C         6.78338834648735    5.12868318825309   26.57502823449181
C         7.62497753557242    5.06944824280229   27.71434080710790
C         7.02337735300194    5.05254040675255   28.96208979776739
H         7.63041572444492    5.01184950790129   29.85307398084334
C         5.63499055562882    5.05109600992416   29.07368863007513
H         5.15412406077110    5.02405344180168   30.04106289868688
C         4.48823909254933    5.14945946606289   25.68415808080506
C         5.39184917826123    5.11236951873167   26.79543860879598
C         4.44887393049704    5.20167206893624   21.89992686733618
C         3.92211235389430    6.13707465897463   21.01257943107191
H         3.24271350365692    6.89284618025245   21.37892563630351
C         4.28619723885985    6.11699368684620   19.67913509098575
H         3.87953502217812    6.85254603624625   19.00137821557072
C         5.16649720766393    5.15473357433987   19.21231059126719
H         5.44626577169774    5.13732918684497   18.16984167065340
C         5.68230113037906    4.21100159496019   20.08512148999165
H         6.35996018098790    3.45218188153020   19.72300405103217
C         5.33049537964259    4.23425642160433   21.42204881844392
H         5.71529140512455    3.48312719232464   22.09692462550100
C         9.08847587584549    5.01210098680108   27.60166945689067
C         9.70429948775239    4.05540631954918   26.79729893220172
H         9.09793791015032    3.34394897695610   26.25517879908440
C        11.08335576746133    3.99118721144001   26.72177343683061
H        11.55120194527637    3.24081020023249   26.10195360355547
C        11.86276148992267    4.88321742219183   27.43964317011132
H        12.93922146688729    4.83422396938808   27.37528924531736
C        11.25783913972515    5.83422427286542   28.24488717225044
H        11.86195400654050    6.52950985606615   28.80821669692291
C         9.87955799717631    5.89467815487131   28.33308710759857
H         9.40707063162463    6.64206255187000   28.95369753704992
C         1.23040310467823    5.23343140925093   29.23090957986132

