68
CSD_code = AVINAW | q = 0 | S = 0 | Stoichiometry = C21H41N3NiP2 | MND = 4
Ni       10.22400577588147    2.71614947967323   17.46530319433601
P        12.29196157475742    2.80255207802942   16.82998410400127
P         8.32985652618670    2.27845754252161   18.39914958214025
N         8.84515957504802    1.40644743637389   19.75085755789941
H         8.20416441392822    0.93128704958535   20.37211415126586
N        10.94367200459969    1.51190908042359   18.81692653620252
N        13.03683387452453    1.73283949495479   17.81620004683095
C        10.17017867579477    0.98952129190826   19.77111090129407
C        12.00344237339916   -0.21777477084751   20.68705754195404
H        12.40532504951043   -0.89959658364978   21.42287381825086
C        10.64808305102531    0.11660794780441   20.73075368918791
H         9.98977564242251   -0.28728545723587   21.48391330152779
C        12.81226026137663    0.31422232235900   19.72203663506843
H        13.86205074374371    0.07999772928630   19.66090418546424
C        12.27411555516079    1.20638727598126   18.76239645927373
C        12.58985558878275    4.66083016614979   18.70251906427692
H        12.84521858362838    5.65398151436081   19.07017762850341
H        13.02566131210762    3.91931855548289   19.37038843917314
H        11.49646598284477    4.54995477325316   18.72304117182904
C        12.34858901834223    3.15258949920371   14.01995273987959
H        12.31779690988238    2.65102230356855   13.05292436005561
H        13.09227195895778    3.94321073219717   13.96300262964395
H        11.37289760804657    3.59676273053784   14.21131457870244
C        13.08958109994574    4.45158249264987   17.27034733979955
C         7.26575438178179    1.03243649979532   17.45682427803258
C         7.33087783323848    3.64092637017071   19.22440156317841
C        12.69145905155383    2.15085851019494   15.11448585024328
C         6.50930371909368    3.19363175044500   20.43025936754715
H         5.98906102171888    4.05642500218196   20.84558899396494
H         7.14938500633416    2.78823553494436   21.21111818315721
H         5.76262961148793    2.45091744500974   20.16345463442606
C         6.44883026423757    4.33550523120218   18.19243350827008
H         6.09488570464924    5.28848407624247   18.58403278050555
H         5.57894631460047    3.73142312172836   17.94491469644659
H         7.01871724310127    4.52844538962879   17.28432899576390
C        12.57734538439859    5.58986538997205   16.39751033213533
H        12.85297936953191    6.54811769029721   16.83744372676847
H        11.49112849338036    5.53976899044152   16.32544825169575
H        12.99609013893221    5.54623412609300   15.39660991870415
C        14.60841694731790    4.35223199112493   17.24487179833251
H        15.04919962756639    5.18206993709299   17.79709787216155
H        14.98547065620761    4.38551553751685   16.22534749137249
H        14.92306473246910    3.41749951654667   17.70503689158510
C        11.74971808387017    0.94787889651700   15.01480929971085
H        11.80562127470274    0.48065289528830   14.03243290931328
H        10.71904647854094    1.28079549005283   15.18854886815269
H        12.01094804504311    0.20550621398746   15.76848866824792
C        14.14069159249225    1.69136597408303   15.02614585528288
H        14.28007086166095    1.06150554270633   14.14785499683959
H        14.39862614058778    1.11965242912349   15.91467292349165
H        14.81836664107302    2.53747101613899   14.94964091079772
C         6.02524804281380    0.54484639731945   18.19544475313753
H         5.57653255380350   -0.28134153983106   17.64386862036325
H         5.27937660923501    1.33207064150029   18.27843449285598
H         6.27025827329657    0.18246946264338   19.19315502248407
C         8.42534931150614    4.60885485108666   19.68566945945586
H         7.99403967568923    5.48573179104514   20.16606678147477
H         9.01458761448635    4.93667268024081   18.82513475156152
H         9.09292938475536    4.12124155235721   20.39658499189110
C         8.23124830767486   -0.13329723123424   17.21633009432082
H         7.81339558345576   -0.83602303449616   16.49694892808218
H         8.44401430095930   -0.67629890650608   18.13651060378367
H         9.17577018944064    0.24550262291722   16.81349685140114
C         6.89306704393480    1.63501895640218   16.10411527422623
H         6.49822050171166    0.86227628049400   15.44569809621288
H         7.77979013376448    2.06809210247286   15.63896085854801
H         6.14105007346586    2.41222161820574   16.20262225336190
H         9.79436462055352    3.60446650230324   16.42830494414907

