100
CSD_code = AVIPEC | q = 0 | S = 0 | Stoichiometry = C48H34AgBF9N6P | MND = 4
Ag        3.76732141779082   10.08792350559708   12.82545739364394
P         1.90718754704535    9.63147832919083   11.31182792560496
F         3.51257428657752    6.15452778706534   13.16094172759934
F         4.32272589578299    7.26595761660945   11.50777115867088
F         5.22688440776214    5.40475126788598   12.10571793741555
F         1.28850872255516   12.45098447929710   15.08453524891108
F         1.34189636575549   10.33416394354334   14.71086226471897
F         0.88001501405761   11.07377866015739   16.68026682643874
F         4.09463917614428   12.38435559460361   10.85972259589464
F         5.48257000620483   13.96780529877907   10.40659784175814
F         5.77627601338327   12.01519537003589    9.56704290025711
N         6.31203876242621    8.95535055876119   14.58304920245589
N         5.41395225176218    8.57287011406849   13.68735152592217
N         5.20841615919514   10.93504319139388   15.65732228744966
N         4.01739013057643   10.81868340036696   15.08801105043789
N         6.71519021100861   11.26513477266201   13.68600926314556
N         5.76878160642691   11.41032172077458   12.76902140515657
C         5.56426327270489    7.26529916202457   13.50740400133459
C         6.60118299696286    6.77970282640577   14.30421481527954
H         6.95257189663273    5.77216716354065   14.38190841093541
C         7.05365486642048    7.90032569986843   14.98839446001081
C         4.66859672025184    6.52984161841213   12.58019508004110
C         8.13533154309207    7.96769977263863   15.96913336074927
C         9.38016558162570    7.42964265433747   15.65342556823640
H         9.53085159432491    6.97080344268681   14.68702868914434
C        10.42043137991563    7.49771575704987   16.56189129480579
H        11.38428072316752    7.08253244065147   16.30558457026748
C        10.22843959299881    8.09920151280178   17.79454965528060
H        11.04360095888837    8.15868507381015   18.50030869846949
C         8.98643500408162    8.61635234549712   18.12314565198607
H         8.82727958640609    9.07784185518465   19.08613277632692
C         7.94247551488539    8.54638439845388   17.22027885434953
H         6.97126100039054    8.93396997035078   17.48519971503218
C         3.11532767927846   11.24470075927237   15.96502800068391
C         3.73634017719003   11.64571002147552   17.14814244003458
H         3.27648028043798   12.03994839552279   18.03006126114455
C         5.08768093945896   11.43710566243866   16.90657544960544
C         1.67354690137426   11.27328532415481   15.61508372872795
C         6.20309812659843   11.69833390832354   17.81447046280451
C         6.16500147938151   11.18836641913340   19.10958501402390
H         5.31317457021131   10.60366731866408   19.42533555035662
C         7.21658812760427   11.41268792123578   19.97906784500310
H         7.18033079303149   11.00796749041075   20.98002703168208
C         8.31396462461936   12.15020128681901   19.56680621207669
H         9.13816746222428   12.31820734087722   20.24402227172048
C         8.34795103781936   12.67873384539671   18.28712490697647
H         9.19624787497774   13.26246507862180   17.96253965330528
C         7.29691368611964   12.46171299646551   17.41639987759218
H         7.31760085495091   12.88978149098295   16.42641165746528
C         6.21886465493273   12.27934187332867   11.87049138201180
C         7.49701140823364   12.72045169152690   12.21473181134403
H         8.11748225556792   13.41226340584267   11.68457761039537
C         7.78430970025684   12.03704992808769   13.38851437869990
C         5.40025306757290   12.65645977566194   10.69133101628252
C         9.00551214141843   12.11445401018969   14.18753216409326
C         9.49887882498471   13.36046471825339   14.56543015890444
H         8.97175851507928   14.25413895699895   14.26434758111181
C        10.64356745485645   13.45317760919987   15.33565048146379
H        11.01519220661227   14.42414972409666   15.62910612415286
C        11.30898017715616   12.30527957765855   15.73260679359549
H        12.19852897746303   12.37847572330866   16.34043213688876
C        10.83581479175110   11.06386790561240   15.34125686118205
H        11.35518846674455   10.16561683938974   15.63963221772480
C         9.69469871781542   10.96634529108359   14.56788025486238
H         9.33708295471649    9.99937998161786   14.25028999127148
C         0.42000410147233   10.65192838155677   11.56156740056071
C        -0.87597935171877   10.18728754691922   11.36619282273063
H        -1.04431790288899    9.16327160925263   11.06205944064544
C        -1.94910264185223   11.03646536283975   11.57207922426206
H        -2.95579367971536   10.67325851566914   11.42285091488058
C        -1.73721650234410   12.34605810110792   11.97091765104989
H        -2.57937460696881   13.00204142814342   12.13548948548402
C        -0.44676363166181   12.81253657217139   12.16550510971691
H        -0.27984492136216   13.82997476576722   12.48566240456381
C         0.62775243160757   11.96769585051539   11.96324771457740
H         1.64198807633850   12.31576021629573   12.12100632545429
C         2.27578714837423    9.91173651291272    9.55029051926044
C         1.30827209892465   10.28722628044874    8.62491078982510
H         0.28540343813786   10.43540089093258    8.94163610345581
C         1.66102004677463   10.47767339069238    7.30076691458725
H         0.90934358437227   10.77254416950865    6.58282913584690
C         2.97317452202038   10.29576882548571    6.89445174832404
H         3.24338842964910   10.45102930104592    5.86030425341754
C         3.93976656709126    9.92186488794767    7.81423896592746
H         4.96457591983792    9.78968340102754    7.50166039080960
C         3.59257158601716    9.73320098776781    9.13874719063983
H         4.33886341607084    9.44713844044032    9.87121538592452
C         1.22733840733161    7.94375056337030   11.31317554518731
C         0.70514205281282    7.48021773288539   12.51911483311082
H         0.69473401251749    8.14006893553154   13.37664974102869
C         0.21269124562036    6.19362423691712   12.61253049689722
H        -0.19272503998720    5.83761285574627   13.54794471479785
C         0.25179181330359    5.35557404041255   11.50859992517722
H        -0.12563256678497    4.34634681743255   11.58332615800985
C         0.78449285769624    5.80822271292095   10.31368134802970
H         0.82379267704861    5.15185770410284    9.45631265468753
C         1.27450538579822    7.09902406606234   10.21140369178235
H         1.69887575360416    7.44677204226920    9.28033850802480
B         6.49036443622557   10.43584425044119   14.96442904979683
H         7.41078169896601   10.55545502726775   15.68746695665474

