38
CSD_code = AVIPIE | q = 1 | S = 0 | Stoichiometry = C13H21AuIN2(1+) | MND = 4
Au        3.28287255202741   -0.61949716378132    7.26118354106477
I         2.16697912115974   -2.89211368379381    6.56754642010700
N         4.71677482179200   -1.45999155796449    8.62959744728272
N         1.96841474771355    1.84319702859789    5.96659556228619
C         4.24286217076237    1.07030730009157    7.72666237626393
C         5.08153862957418    0.94421154778396    8.83046129293083
C         5.87639732941817    2.00883827051900    9.23098478164114
C         5.83051486418389    3.20221164695664    8.53278219984175
C         4.99401773108001    3.33426634039887    7.43982224665004
C         4.20234328318396    2.26654437872849    7.02745249875026
C         5.05260245398853   -0.36212130666467    9.56182575963494
C         4.28698533902978   -2.63361350912532    9.40029831811288
C         5.91157052963870   -1.82272700047388    7.85296026458520
C         3.32950235169841    2.42375709015283    5.80993565940401
C         1.33390997758212    2.34986142458243    7.19565490574117
C         1.14769181358765    2.26148893900925    4.81049924209695
C         2.02947764730585    0.36215451593916    5.98401515288501
H         6.52556562933742    1.90073743864841   10.08583876701644
H         6.44696031221305    4.03130747462922    8.84058721150489
H         4.96263441242247    4.26551224681897    6.89487643938550
H         6.00417146614883   -0.56684249002866   10.06358748056189
H         4.27294492190681   -0.31786411989826   10.33076521793177
H         4.13696384378269   -3.48378066997490    8.73918452041998
H         3.34905681529932   -2.42471565866324    9.91250814837494
H         5.04398274732811   -2.90036291924001   10.14082935029704
H         5.65561489017046   -2.57814014347643    7.11182776102395
H         6.68531434313052   -2.22992903516669    8.50808066308445
H         6.30855048182621   -0.94487242837926    7.34479342867659
H         3.22700988696815    3.48598248717168    5.57667800150887
H         3.80123177927182    1.93220345220979    4.95266408157782
H         1.89076478859900    2.01924531265858    8.06982751166287
H         0.31379257505563    1.97700913160441    7.26509996254133
H         1.31443656022336    3.43822709659590    7.18410309491694
H         0.16727363121926    1.79093336777643    4.86053439230244
H         1.62781552394793    1.96510193576555    3.87950114174439
H         1.01847808745128    3.34262778616399    4.81175864950864
H         1.01785334724744    0.00069653330186    6.16798305575590
H         2.29982859272412    0.03584894052635    4.97839345092446

