36
CSD_code = AVIQUS | q = 0 | S = 0 | Stoichiometry = C15H12ClN2O5Re | MND = 6
C        -4.52816360317223    2.10043625482544    9.84374002645816
H        -5.02730728638278    1.16436852114683   10.05889813195950
C        -5.22593740149133    3.28747342814903    9.94729092223062
H        -6.25909831977324    3.26686211338970   10.25063218078037
C        -4.55678945653026    4.47887804162657    9.66510374776443
C        -3.21844805429038    4.39187788565511    9.27583080144450
H        -2.69709562244744    5.30702479876756    9.05492288732197
C        -2.59401157055660    3.15747320511747    9.20403325583091
C         0.52683186585580    1.52284075138777    8.40820431890822
H         0.85675028162157    0.49202932103587    8.38836720486951
C         1.40601065116725    2.52933917729383    8.06082756439334
H         2.41509418365882    2.27520501691576    7.78325232018874
C         0.95332592162522    3.84865236067875    8.09494207447684
C        -0.37569493539547    4.06653133733799    8.46439390301693
H        -0.73154479803212    5.08180389784755    8.49115509994141
C        -1.18758606803684    2.99657648613170    8.80338531407185
C        -6.43176216568720    5.85510831050608   10.12794106898384
H        -6.62965442788293    6.92514026338017   10.11132804614165
H        -6.58599494225112    5.47261274307491   11.14075208363214
H        -7.11129042450592    5.34922906234424    9.43596539317436
C         3.03392979508020    4.77260349198705    7.43065601861531
H         3.41271410707917    5.77665701875896    7.24966388031807
H         3.13137083493872    4.17754435448888    6.51806924138869
H         3.60842020214313    4.30746100839195    8.23639659110741
C        -2.56365261662497   -0.55073183439136    8.09299006261810
C        -3.23840846872742   -0.72109247983118   10.86007398970903
C        -0.60393195887439   -1.02243145125037   10.11274074784287
Cl       -1.31664214641278    1.55452531653697   11.64063992483274
N        -3.25159599365381    2.01775709457916    9.49193186945693
N        -0.73087142819579    1.72972865173632    8.77655307970193
O        -5.08649827276027    5.71161589263644    9.72391865931567
O         1.67960373338478    4.93755574500028    7.79413743539465
O        -3.97346598532213   -1.22832861714471   11.57733400304690
O        -2.89949125735585   -1.01885204691248    7.09743843542879
O         0.27132535679917   -1.71446523367470   10.37247868040459
Re       -1.99793972898858    0.28869011247419    9.74851103522977

