34
CSD_code = AVIQOM | q = 0 | S = 0 | Stoichiometry = C15H12ClN2O3Re | MND = 6
C        -1.56620695325940   -1.76853396252746    3.69964621423118
H        -2.04342154085489   -2.61105125583727    3.21574251465567
C        -2.16569835780960   -1.15140639146116    4.77811546800626
H        -3.11143014787973   -1.51405459551972    5.14864599302108
C        -1.53127371229352   -0.07032288355604    5.38614299264265
C        -0.32286874747750    0.33940570507069    4.84429031967909
H         0.19493845711582    1.17546961964943    5.28580792530970
C         0.22580117852309   -0.33183600987166    3.75433510936682
C         3.00197799850516   -0.37046398311423    1.44522441934432
H         3.26953812589411   -0.98838282435327    0.59769542448161
C         3.81096964736025    0.68134965685741    1.82514407122553
H         4.71914258113806    0.88489868015789    1.28020885642615
C         3.44948083256888    1.45883402088792    2.92209815413869
C         2.26348524555494    1.13389524794199    3.56376776871003
H         1.95125140117471    1.71596379149569    4.41565983344656
C         1.49591358684880    0.05807166715878    3.12642662532485
C        -2.12877208119503    0.60423825098966    6.57556074441284
H        -1.61494657321942    1.53497815765992    6.80148828734099
H        -2.05509778006857   -0.05056200772845    7.44375645467933
H        -3.18380696300344    0.81083470483949    6.40612776057798
C         4.28800558447983    2.60890803227998    3.37114475487825
H         5.34255750245822    2.40508147013914    3.20214896343837
H         4.12906420944712    2.82153008905882    4.42540986269785
H         4.02302176519166    3.49984883111361    2.80050974310478
C        -0.14500490507642   -1.96500758047208    0.26013190992302
C        -0.18134773857085   -4.19944293388369    2.04618944814553
C         2.20757079258737   -3.47142304296928    0.86976816964189
N        -0.39642150706572   -1.38541289975304    3.19656921142212
N         1.87631588366181   -0.69062296060856    2.07553741453090
O        -0.71299325824474   -1.59627718335594   -0.66941839905603
O        -0.74538072380845   -5.16923041357643    2.27313439997835
O         3.09751049427383   -3.99851928755928    0.37955235080381
Cl        1.95316814050102   -2.99303548412699    3.89056515596289
Re        0.80985756254773   -2.53182222502072    1.85197207750712

