94
CSD_code = AVISUV | q = 1 | S = 0 | Stoichiometry = C46H41AgN3P2S(1+) | MND = 4
Ag        3.96082848620805    0.81851547504303    3.12866960297546
S         6.46142592450006    0.22167072078239    3.79551587736714
P         3.65523789814785    2.96547792418080    1.80256800476625
P         2.24363884613598   -1.01024190408077    2.80315922989996
C         4.32387017690074   -4.20093402311812    4.16038968091619
N         4.28004671262419    1.49622511127841    5.47294678730975
C         2.83557768005349   -0.86797457307150    0.09896287068953
C         1.64587142391214   -3.45638386659638    4.12304578654631
C         5.94682870401231    2.69224980384438   -2.16792784154050
N         7.66544793686223    0.58986177523062    6.06213308788832
N         5.48157915884424    1.29404122399074    6.03530391712739
C         3.95332597999021   -2.98186235261192    3.62627525461448
C         2.77767698920978   -1.26735509019126   -1.22408744266701
C         4.29789809899704    4.48613876983169    2.56353168307863
C         0.52242972171307   -0.69050650614407    3.29941601289072
C         6.52206201140544    0.73259287038093    5.36967163629362
C        -0.51347321798528   -0.51449431206674    2.38998062454909
C        -0.99915920594150   -0.25139875583100    5.11156051008007
C         1.00126858130209    2.75976261725375    6.19639854280615
C         2.61342014792152   -2.60466055989757    3.60201705048478
C         5.26505539059039    6.71784156788978    3.89716317163267
C         3.33589522174496    2.03341474412098    6.15644320149102
C         0.27463906801323   -0.53906741325030    4.66315480271704
C         2.00325560391956   -2.35908881686428   -1.58018737461522
C        -2.64778218290950    3.46784366337457    5.97828772025347
C         1.58849683939639    4.78119655227683    1.10538925305992
C         0.31621157008779    5.06757168490325    0.64316861550717
C         2.06777224348576    2.24782645833168    5.55127641007686
C        -0.54248438776057    2.95706592443469    4.24503073637423
C         4.53580573927253    2.89149203911454    0.21004011151477
C        -0.30375707328343    2.99055695138784    5.62330633788668
C         3.35755817426414   -5.04846800243275    4.67907293717508
C         4.25616617310234    3.76220718326959   -0.83897237215206
C        -0.17979345820245    2.72237915167214    0.51098216175430
C         1.34496930564349   -2.65769744497147    0.70961389056642
C        -0.56493366163777    4.04273443808031    0.33904445505953
C        -1.37859520582960    3.26097530900756    6.47893853048089
C         2.02395415866280   -4.67395748615514    4.66123400613003
C         5.47822420214887    5.08922572428714    2.14490102945251
C         4.96370621885988    3.65908879072996   -2.02255503675606
C         2.11464207234681   -1.55424409641217    1.06953279736676
C        -2.86819853622581    3.42732560998506    4.61023038369635
C         4.09601548968582    6.10792195560099    4.32759598135271
C         6.22655823946826    1.82255619047979   -1.12634461848008
C         1.08674181372966    2.43153635584528    0.98111729037315
C        -2.03336427808846   -0.09399260704650    4.20192227331753
C         5.52137453124056    1.92037371713816    0.05923224952886
C         1.29045113458096   -3.05314812409520   -0.61350259602896
C         1.98200121014371    3.45722882783033    1.27111600619385
C         3.61638015665080    4.99200377963300    3.67012162445061
C        -1.81067707687607    3.17715072533462    3.74904528142078
C        -1.78703514443787   -0.22059782379351    2.84560500133476
C         5.95406925519676    6.20594395525569    2.81042021986399
H         5.36391508170550   -4.49078866958011    4.17431206295241
H         3.44558407149069   -0.01545127673202    0.39002433007629
H         0.60382748081962   -3.16841912854491    4.11670938484765
H         6.49455958279722    2.61679220033878   -3.09491372286836
H         4.70231069022569   -2.31003400645677    3.22112510582109
H         3.33819127033202   -0.72855452101280   -1.97337566355075
H        -0.32695393655025   -0.61991563361308    1.33049793181416
H        -1.18979394241369   -0.14954535470251    6.16934635387161
H         1.09999241190235    3.00757292241497    7.24714333139870
H         5.63825991458929    7.59102773697448    4.41032061068942
H         3.48861938419256    2.33063206801958    7.19704009891218
H         1.09025792890708   -0.66311328928648    5.36521100364663
H         1.95756556214370   -2.67456959898755   -2.61132464323943
H        -3.46688388964785    3.66694671787617    6.65253528143041
H         2.27182129418981    5.58485699253309    1.34130142320131
H         0.01350429122354    6.09581744407138    0.51410315966860
H         2.00503092690370    1.94637481307178    4.50731398256617
H         0.26665422205713    2.77072155092765    3.55539876359148
H         3.64418569069945   -6.00066960336592    5.09878314809803
H         3.48765110599567    4.51381078261678   -0.72807480067524
H        -0.86605791215670    1.92106993615914    0.28113554704050
H         0.79597729225579   -3.20134252772613    1.46582817639905
H        -1.55258855127806    4.27472788479577   -0.03013678457264
H        -1.20984254678524    3.29601007245101    7.54569778866591
H         1.27216635693064   -5.33493882064281    5.06612543465001
H         6.02012233953758    4.68925315784133    1.29941865398937
H         4.74805895712755    4.33574495007260   -2.83573947219028
H        -3.85894356971498    3.59638847650510    4.21692399799989
H         3.55849936727935    6.50512548453682    5.17609959403587
H         6.99131300567327    1.06875462918539   -1.23819588281756
H         1.39528792784284    1.40216627931936    1.13253517614332
H        -3.02919052996999    0.12943142167190    4.55228550021443
H         5.73792038991031    1.24382761499901    0.88273942757479
H         0.69322054036272   -3.90785188463100   -0.89346605148141
H         2.70390221470313    4.51103477357004    4.00055665762244
H        -1.97323474032599    3.15535617709126    2.68236433986404
H        -2.59301852927839   -0.09628906861832    2.13789840765138
H         6.86601726842790    6.67845198260885    2.47754707246019
H         5.62173238144645    1.57689198522514    7.00793174863781
H         7.77208230416013    0.88815159076684    7.01694185879457
H         8.45575203096951    0.18101990458011    5.59317630939428

