77
CSD_code = AVIVAD | q = 1 | S = 0 | Stoichiometry = C23H41FeN9P3(1+) | MND = 8
Fe        9.37244940545116    7.61446905693143   17.10203238810725
C        10.06906381837213    9.64971422868611   17.00205900273525
H         9.53652551427643   10.57724755038105   17.12213568294129
C        10.30921278320503    9.00186663769919   15.77322848394526
H        10.00602132428335    9.36080131914394   14.80487199969484
C        11.20350089264770    7.92593501917301   16.02201560451560
H        11.68866382920403    7.32129556622452   15.27458702846007
C        11.48162613394842    7.89814651276527   17.39874914231975
H        12.21209147944556    7.26626291042293   17.87155128452906
C        10.75710873584108    8.95072390068998   18.01859121190060
H        10.85541926618290    9.26767159116118   19.04237304429330
P         8.78124596349382    6.20819602830181   15.53965702825031
C         8.94208588832773    6.74830459816013   13.75445539928762
H         8.21625538774246    7.54648562836562   13.55733682715029
H         9.94745845415746    7.15013195842577   13.59253382094063
N         8.72196404888612    5.66894256968743   12.82496491886885
C         9.85666403289917    4.68889389947581   15.38350088782220
H        10.90242602095462    5.00651569650886   15.29915704296467
H         9.76031998778550    4.08825706597869   16.29583139391019
N         9.51498742908738    3.87420142442573   14.24342464427679
C         7.14404453748080    5.32447881810061   15.30423075404261
H         6.89735647923360    4.75827411855944   16.20943502499392
H         6.36244014945919    6.07616813349425   15.13804378270962
N         7.15828266268414    4.42391279341286   14.17816704484880
C         9.68643066477859    4.59446276446804   12.99177591085388
H        10.69785584638902    5.00640698080374   12.94877091954055
H         9.55643143134857    3.88701309411482   12.16904774817572
C         7.38052668690301    5.12242048715683   12.92303283229925
H         6.65153606337016    5.93101099819179   12.82422459588597
H         7.23639171024890    4.41256812270386   12.10474335051195
C         8.15267711171188    3.37345800031699   14.32156124740191
H         8.00599380192331    2.65210899621484   13.51375744841066
H         8.00692550927695    2.86786459281069   15.27982678308145
P         9.28076266632928    6.18148765663925   18.74825798023055
C         8.89300116036803    6.88148552545853   20.43510693217266
H         9.63136174936561    7.65767143540346   20.66826575814444
H         7.90203580636676    7.35005918664618   20.40242872931414
N         8.90792153966037    5.88483431500000   21.47805590974416
C         8.10206723650561    4.73001453283689   18.86177426947496
H         7.07290922819842    5.09146011365791   18.75503578353657
H         8.31176073410524    4.03705875459069   18.03824826323180
N         8.22082934181758    4.01152037819339   20.10649985617781
C        10.80232379615279    5.23398362184555   19.29101715758104
H        11.13515640307228    4.58306424379730   18.47384627830196
H        11.59909820150852    5.95208369176651   19.51197672705140
N        10.56910668415846    4.44311943365723   20.47244766706405
C         7.91435362556145    4.84779635016597   21.25536586115899
H         6.93389289077401    5.30988843725450   21.11248744475574
H         7.87996216132953    4.21044016667513   22.14245608366184
C        10.21557281691504    5.26478850147289   21.61800646040639
H        10.97119343082987    6.04278931401795   21.75259233381055
H        10.19962726700073    4.62747769197302   22.50558787423259
C         9.54443661501642    3.43384047832955   20.27524275679763
H         9.52614276491798    2.78519700589118   21.15458691231490
H         9.79203918374654    2.83347418641359   19.39593086547709
P         7.38863927348459    8.44755652528401   17.47084774255714
C         5.81603878543658    7.53845812283605   17.93905662247635
H         5.64274314712767    6.71886980827819   17.23344932127692
H         5.93971496307578    7.11245442482494   18.94230268073773
N         4.65959905591527    8.39999161833841   17.94890162108396
C         7.13290715016852    9.85257443905637   18.68786079437482
H         7.29774356177080    9.48184858685898   19.70598457620935
H         7.86497891272839   10.64238801106366   18.49476054274484
N         5.41393790278016    9.95805304302674   16.25582721577656
C         6.68183271026014    9.32578496780385   15.98590732005272
H         7.39956266559547   10.08386946410789   15.65166730418181
H         6.55807380091218    8.59508379384934   15.17673213594727
N         5.81019993265666   10.41766379968535   18.60054637445829
C         4.77611035520219    9.45690167166851   18.93961495775253
H         3.82009632548213    9.98341573782382   18.99467335471367
H         4.99559725222778    9.01664653156245   19.91582193471789
C         4.39940096484945    8.99401810632111   16.64792143191114
H         4.34251160872468    8.20284317735095   15.89564366702052
H         3.43668342621621    9.50913680507307   16.69453631293048
C         5.52895915102237   10.97598305920389   17.28825601701045
H         6.32163187583323   11.67725672581159   17.01561031614926
H         4.58069882382739   11.51645549552732   17.34318557160223

