78
CSD_code = AVIZOU | q = 0 | S = 0 | Stoichiometry = C38H36NP2Rh | MND = 4
Rh       10.31644018548525    7.37504560480449    8.73392768991273
P        10.52364803653662    8.31478479765395   10.73227502898725
P         9.98471468405216    5.46166687396880    9.87908523760286
N        10.25787563125866    6.53710788616902    6.94064920017079
C         8.94042360762304    8.87723332842520   11.44106041082462
C         7.80476677340510    8.68459542111887   10.66444323205320
H         7.93679992914171    8.24685685792446    9.67562937358227
C         6.56058109271346    9.05550477528484   11.13868311021946
H         5.67767479998871    8.90386386704748   10.53442800750983
C         6.44984450353622    9.62914604570610   12.39516962581089
H         5.48059816494923    9.92310620419352   12.77133152679550
C         7.58104758431184    9.83496438777570   13.16967857100023
H         7.48944630272190   10.29060739224152   14.14541457742549
C         8.82587839345678    9.46135640697296   12.69674395705612
H         9.71170652366627    9.63170070279782   13.29419972412405
C        11.58975518644158    9.72832329697532   11.14792899131849
C        12.80639425460270    9.63638202912990   11.81156483038760
H        13.15126687312245    8.68621891193779   12.19337793272585
C        13.58755032959211   10.76603153793360   11.98778760823040
H        14.53113812306208   10.68935783992509   12.50964441792746
C        13.16940972905079   11.98850781006833   11.49160951152466
H        13.78695633993443   12.86483594079320   11.62526198376146
C        11.96223350248935   12.08456864396885   10.81654239393489
H        11.63821334707401   13.03462218500035   10.41786494155113
C        11.17943246442012   10.96126099527109   10.64372770038689
H        10.24256198598166   11.01999639802816   10.10590027587254
C        10.99848489197865    7.00634620292377   11.96561116058310
H        12.04733762833332    6.75888872650744   11.77590716679600
H        10.89909736345875    7.36808495931585   12.99362295731829
C        10.11776529274955    5.78902695177000   11.71274065878514
H         9.09625527279162    6.00789263265747   12.04548770140908
H        10.47041967526640    4.90352515861228   12.24997044185533
C        11.17371686363814    4.11311398297648    9.57187026475067
C        12.37368931087141    3.97732457890385   10.26068740759419
H        12.59057852124679    4.61997137428283   11.10198888457360
C        13.29369620372623    3.01745718782172    9.87797673015053
H        14.21873950672654    2.91086615851352   10.42676680537925
C        13.03594820902705    2.19712517227615    8.79258144460897
H        13.75698333756681    1.44967317731823    8.49579242490834
C        11.85305572666238    2.34206430824032    8.08433155236139
H        11.65132332482890    1.70964033794690    7.23156615837084
C        10.93300443825393    3.29769468886300    8.46662426662229
H        10.00713802666565    3.41542769350830    7.91636542573273
C         8.43542383335260    4.48925811793818    9.89288608333371
C         8.33655553475886    3.24083863303878   10.49732449082301
H         9.20888654168075    2.79702065442837   10.95751959559248
C         7.12929683176970    2.56771113424655   10.49775124207019
H         7.05426453959783    1.59688144270751   10.96655404944364
C         6.01469839779750    3.13347741343665    9.89786375371490
H         5.07416761105909    2.60197590864035    9.89992456555783
C         6.10734490245863    4.37658312245346    9.29490796331814
H         5.23878603026376    4.81661813335325    8.82624631533466
C         7.31540541535651    5.05009538417180    9.29358922295541
H         7.41010666354658    6.02217098440444    8.82483603580055
C        10.71480829466589    9.15366782293963    7.88855077859646
C        12.03202451382187    9.61279770067835    7.83562487706233
H        12.82999668647176    9.01351005268735    8.26926415123557
C        12.35900781066403   10.82704253796582    7.25914957630700
H        13.39169157440744   11.15388554021854    7.24068840932429
C        11.37584953644560   11.64341714314926    6.71763949369156
C        10.06137998621094   11.20112796019009    6.76030580719011
H         9.27766615609275   11.82320026091001    6.34440701643657
C         9.73929232769015    9.98285586909941    7.33435475966932
H         8.69466987505617    9.68216407782080    7.35220374139475
C        11.72743926859698   12.96107624481588    6.08906250767171
H        12.60651741758558   13.39355589828446    6.56360738836205
H        10.90075670697182   13.66437177239961    6.17262502931353
H        11.94938697823558   12.82753542107183    5.02861088937853
C         9.16492984617749    6.28120328926967    6.21478564302329
H         8.26058323821688    6.80495498524986    6.50088914116745
C         9.15984426780854    5.40364118029701    5.14803542352618
H         8.24705411892146    5.22785223139345    4.59963687975436
C        10.33843547534504    4.76378429248667    4.79288279295645
H        10.36841353715233    4.07395253155366    3.96335147026875
C        11.48194778158717    5.05043535535833    5.52749639630226
H        12.42665771844844    4.58923442197880    5.28433872682199
C        11.40100295500162    5.94204487943920    6.57747033356834
H        12.28331568419215    6.19098816838496    7.15999413655841

