71
CSD_code = AVOBUI | q = 0 | S = 0 | Stoichiometry = C30H35N5Zn | MND = 5
Zn        9.87081372138934   10.92279686010041   10.41323478241208
N         9.47117088856748    8.99046901476778   10.41521725670874
N         8.13775026385289   11.55585354664605   11.11207345011130
N        10.13210516243116   12.88834251473909    9.47080227436100
N        11.34892382320696   10.54648163429446    8.83414306749127
N        11.25355544539739   11.19821464668584   12.04398728314944
C        10.00546094207147    8.00987972009710    9.63231685088504
C         9.14029332473415    6.93835984721282    9.55154025977940
H         9.28876428600510    6.01950540421525    9.01734442425129
C         8.03751611136162    7.26106685227052   10.35004247223378
H         7.18019901141376    6.63734747240274   10.51243029236366
C         8.27035133882631    8.52252623675030   10.86337307535056
C         7.44882915429720    9.26501338142185   11.88161876110749
C         8.24076695044645    9.31941833271665   13.20425130826032
H         8.45334047538045    8.30990946005111   13.55262333929867
H         7.66261812275755    9.84511566478408   13.96265794605756
H         9.17893901746748    9.84339012233368   13.04919537597991
C         6.14155499669178    8.51274370586352   12.15015833009259
H         6.35621809731274    7.50750672985055   12.50481321678041
H         5.54504622222510    8.44655635166170   11.24441108348572
H         5.56532491499792    9.02847548074541   12.91458435247783
C         7.15156080961469   10.67345811497242   11.44460958656948
C         5.92799835076769   11.31538368223183   11.44326500590067
H         4.96657875291338   10.89018792683325   11.65607728970841
C         6.17001204832478   12.64874365814474   11.09478458698453
H         5.43531962287127   13.42727180452506   11.01842642196182
C         7.53379007580754   12.76357405705296   10.92095393520245
C         8.33183227831693   14.01887950273639   10.66303712570462
C         9.27435210416248   14.29343655252951   11.84521350578001
H         9.95003049407072   13.45553762738716   11.98412953627037
H         8.68802177912412   14.42884142860346   12.75104755687451
H         9.85909363034146   15.19359124876828   11.66196665914658
C         7.41789191331935   15.22728011582249   10.45717769791940
H         8.00633353805954   16.10093753813458   10.18095098242331
H         6.88866980513439   15.44565631593823   11.38109713277137
H         6.68293985256968   15.03492288922214    9.68053362213556
C         9.11484510253321   13.70749430475160    9.43716107475897
C         8.88509452811637   14.19753477512885    8.09850450245419
H         8.09906750197175   14.86306300023727    7.80071258949619
C         9.84179855300994   13.66367286410348    7.31066377886877
H         9.99042119868999   13.81087853678673    6.25874594926069
C        10.69005458994251   12.85553931823192    8.17908630787615
C        12.19915573550783   12.77086791672901    8.06463960596760
C        13.01479855458240   12.85036885971530    9.33078251538077
H        12.49925754037468   12.36153757402437   10.14912374729787
H        13.18616008571173   13.89387687669422    9.59015540262195
H        13.97775205462096   12.36620258000871    9.17634408110005
C        12.86504971851364   13.43769152970695    6.88391525554551
H        13.82891004132652   12.96710639003157    6.69477453829646
H        13.03599456298435   14.48985390110099    7.10747846498936
H        12.26895694527098   13.37232309292068    5.97978668429781
C        11.38549780000122   11.51654587679406    7.81503712184121
C        11.31928270554079   10.81740688387640    6.53692561201784
H        11.30020290907254   11.28600185708980    5.57238376029059
C        11.32496179211660    9.49820420207094    6.82101247520665
H        11.30562534060828    8.68592317188216    6.12153363587923
C        11.36600948619420    9.37357315152317    8.25893907258615
C        11.39791362488701    8.12017975553841    9.05954554775337
C        12.42522394491995    8.23795757086462   10.19630600106242
H        12.37543385728534    7.34989401876555   10.82201499923989
H        12.20835764548293    9.11071869651166   10.80392077882845
H        13.43098718969225    8.33064132676133    9.78936576139890
C        11.74169066847687    6.90708502416148    8.19454804182206
H        11.79104696031756    6.01751660830735    8.81713654307853
H        12.70975420223183    7.04853933406806    7.71634008595795
H        10.98812422624943    6.74587775292478    7.42871714101992
C        11.42504171914383   10.98001901550194   13.15492221211901
C        11.64384947945646   10.71011360163278   14.53881175162165
H        11.78299545898405    9.63815407566532   14.67725881175933
H        10.77308150614538   11.03543043609320   15.10776929189095
H        12.52843544380959   11.24243067728680   14.88684700842997

