47
CSD_code = AVODOF | q = 0 | S = 0 | Stoichiometry = C13H28ClCuN4 | MND = 3
Cu        3.02730639376444    2.78688520255058    0.20612749363500
Cl        3.75987561860187    1.35296683087936    1.68861748430225
N         3.08381563828054    4.73035398920476   -0.30499630098847
C         3.75437733017988    5.63121804741845    0.32808911683997
N         4.42470962673883    6.74084238464300   -0.17642498552018
C         5.24682575036025    6.70572875661698   -1.36608151093549
H         4.68289198025204    6.36485625059337   -2.22740532439951
H         6.12427635861197    6.05936568388424   -1.23662263520324
H         5.58906111211105    7.72236336824035   -1.56253712875527
N         3.81787278457102    5.65524974685041    1.68693998634690
C         5.04632165393995    7.46084393828723    0.92837978867354
H         4.90895249314790    8.53704798633265    0.79680608693374
H         6.12289806456744    7.24660679994525    0.96570795609490
N         1.81692892111805    2.49512964212775   -1.63266519101392
C         4.33782709663891    6.91519058245179    2.16341240559433
H         5.01462290513225    6.75885864893236    3.00725963705710
H         3.52160694678557    7.57681709628669    2.48781640403283
C         2.99085016555684    4.86237012023155    2.55310969076652
H         2.98767628789666    3.82892850138038    2.19353429358862
H         1.96083034437601    5.23174244653683    2.58820135953338
H         3.41749008558300    4.88383676282300    3.55402379888308
C         2.81343723307229    4.78132487301173   -1.71907642076326
H         3.67609706077601    4.43456155702488   -2.30323163469392
H         2.56188649743287    5.80190850809594   -2.03614908640588
C         1.60093342157795    3.88691859847361   -2.01494517238580
H         0.77467339966410    4.27207719626405   -1.41831168984474
H         1.34234659900873    3.99278487164455   -3.07742913810466
C         2.68679051367224    1.76368524133362   -2.57060748090020
H         3.51445906123469    2.44626555255959   -2.79028241512607
C         3.28945499801824    0.52191000285231   -1.91358393131506
H         3.61704399134400    0.75400058298264   -0.89999226052582
H         4.14921762075967    0.18322259308025   -2.48637576715823
H         2.57600831448439   -0.29676020615892   -1.86434026323464
C         2.04165897306511    1.37595828230327   -3.90628318017761
H         1.61162410979472    2.23795494566473   -4.41209554620890
H         1.27051155717816    0.62309127608535   -3.76657692632067
H         2.80571078605139    0.95602335705673   -4.55646261458068
C         0.57721725102478    1.79085002144565   -1.25717478518136
H         0.79407592025803    0.72474497695459   -1.35033720274038
C         0.23814069004712    2.05842944091478    0.20905086060640
H         1.06503792718794    1.74677178441407    0.84556839995570
H        -0.64770656752126    1.49630351178894    0.49522077366533
H         0.04668938548730    3.11512385965454    0.38151165892194
C        -0.64956185283289    2.10532935643447   -2.12518663001283
H        -0.42706129688451    2.05062031109620   -3.18570011009493
H        -1.04720616590177    3.09366548902836   -1.90771521599934
H        -1.42909698621729    1.37913122976646   -1.90638664683165

