49
CSD_code = AVODAR | q = 0 | S = 0 | Stoichiometry = C13H30CuIN4 | MND = 3
I         4.63032641871015    3.43444861415322    1.71263591160786
Cu        4.05745863016370    4.76829438750266   -0.31083589716950
N         5.06500282607008    5.13615426586859   -1.98573816625254
N         7.33483909724960    5.26055734783410   -2.61313520982811
N         6.32013657964647    3.21351130706003   -2.16970103496635
N         2.60811230988718    6.27065145718158   -1.16557154350921
C         6.21009202786286    4.57677770139701   -2.20896368488298
C         7.75216688307201    6.47937210491046   -1.96322888643288
H         7.16660752844086    6.64035106699733   -1.06129523740624
H         7.65173238658585    7.34845305958042   -2.62244558439233
H         8.80260753092244    6.39245716524398   -1.66966851774192
C         8.29298556391172    4.68725901614176   -3.52535689728518
H         7.87119416056358    3.79625331243001   -3.98246435274253
H         9.23495856274736    4.42464689265003   -3.03114689970021
H         8.51479529396791    5.41706305058749   -4.31006095907212
C         7.40549789482817    2.59759367465052   -1.43230836832580
H         8.19707756991304    3.31652315417767   -1.24515559591590
H         7.80895097710922    1.75463737401373   -1.99699856425878
H         7.04229727242799    2.23226377209609   -0.46709303183354
C         5.12152715893534    2.40820281340663   -2.20549941933124
H         4.68857890215847    2.26215346445149   -1.21213286524167
H         5.37790205323588    1.43233099570709   -2.62038453532330
H         4.38580808313334    2.89118536213511   -2.84389062041906
C         4.73165100371954    6.46432728138657   -2.42947308038386
H         5.13939108190199    6.66022746691048   -3.42991981423310
H         5.12165981212250    7.23694405593762   -1.75437227785288
C         3.19979996520061    6.55121684692227   -2.47428580310047
H         2.90498206476385    7.53434207381390   -2.86415985812156
H         2.85768438617065    5.78849359531039   -3.17421550277652
C         2.66673547455165    7.43444685713387   -0.26152638212389
H         3.67276122139911    7.85083732937971   -0.38991622681418
C         1.66554395575735    8.55711540971808   -0.55686659141543
H         1.72468479405290    8.89019040744100   -1.59105468501834
H         1.89576103705383    9.40902775902918    0.07897234836977
H         0.64751799195607    8.24319243322922   -0.34059081946384
C         2.53747380016539    7.01739342911670    1.20303322730665
H         3.19310488942937    6.17577972752179    1.41556865301070
H         1.51932169551001    6.73329693108897    1.45739465373657
H         2.82459210540093    7.84587817094693    1.84597012846755
C         1.29269190143372    5.60889689366310   -1.24190118154885
H         0.80856075939304    5.77866648387005   -0.27661725819920
C         0.35049575650951    6.12062071688773   -2.34087559093508
H         0.29586714364715    7.20387684039240   -2.36374092462590
H        -0.64944160688176    5.73621003968203   -2.15234354439493
H         0.65895128249972    5.77167671304707   -3.32378947399979
C         1.46936797213997    4.09869950125476   -1.40397939643500
H         2.05303900044592    3.69528254302674   -0.57888761104179
H         1.97727625354724    3.86030232545121   -2.33599321892119
H         0.49907054656178    3.60741680766172   -1.40758980906097

