35
CSD_code = AVOHOI | q = 0 | S = 0 | Stoichiometry = C10H18N4NiO2 | MND = 4
Ni       22.89752302303948    2.02652486967816    2.32529728227369
O        20.24059163825135    2.13976789356357    5.41665604831114
N        21.96291924686226    2.00191478011439    3.96114166021329
N        24.50715176077902    1.99975504224553    3.39459545375799
C        20.66836169787776    2.14057504107930    4.26723833254989
C        22.83862450207597    1.86187503370288    5.12689215408558
C        24.16817730112515    1.29777138149954    4.64503387886036
C        25.76014205162890    1.52861279142047    2.79637679238914
C        19.69092436503423    2.33435167564153    3.09730746881996
H        22.98365833836755    2.84252586974264    5.60309559097152
H        22.36247979032226    1.20648199945504    5.86469600939026
H        24.06448765841754    0.23259978784165    4.41889604932611
H        24.95969665828589    1.42539818564268    5.39551120229422
H        26.57440184730984    1.61474294748477    3.53206647347019
H        25.64348154324620    0.47276602898762    2.53466234050157
H        18.70336381907581    2.05134778251347    3.46287670231141
H        19.66176313531030    3.40167096324417    2.85821542146667
H        24.63624639384254    2.99196209989377    3.63072734490630
C        20.03511385261991    1.52863607131870    1.85378675714739
N        21.28808574382290    1.99992640526938    1.25563417330967
N        23.83230297889860    2.00226188646783    0.68958080617437
C        25.12692622068650    2.14087047659273    0.38337230804831
O        25.55452502792692    2.13979654081231   -0.76603408208477
C        26.10465324085614    2.33441424748652    1.55302086944155
H        27.09225451442490    2.05141641115323    1.18743909130473
H        26.13358142149394    3.40174208602772    1.79221174058067
C        22.95621258817373    1.86182328470438   -0.47588351191616
C        21.62639414274074    1.29768558688922    0.00511997344413
H        21.15896730979694    2.99213891724132    1.01955601354929
H        21.73047639124960    0.23257032134808    0.23140478319626
H        20.83474813547299    1.42517911836882   -0.74542923688931
H        22.81116596580222    2.84229730185217   -0.95239329422423
H        23.43223086497066    1.20640259743344   -1.21367782775679
H        19.22075663031278    1.61479634938396    1.11816955180934
H        20.15171019989880    0.47279822389845    2.11563567896606

