93
CSD_code = AVOKIF | q = 0 | S = 0 | Stoichiometry = C36H52BNNiP2 | MND = 4
Ni        8.97537705387635    4.83871388734048    3.22674287839195
P         9.08518672438076    3.47078001001260    1.51570541004559
P         7.18158790239865    3.83301948972467    4.04252773803412
N         9.91904163070725    5.86765068499210    6.58295048646608
B        10.04949749190166    5.42583648138481    7.98910387453632
C         9.74269954825610    6.12744217321929    5.46799199488329
C         9.50961266924429    6.50180817026568    4.15354085101893
H         8.78434919331693    7.30697914423336    4.02982397949060
C        10.38305100285121    6.17164011999888    3.08962110037179
H        10.33235236147826    6.81540182998996    2.20821374115582
C        11.76282485648464    5.61598037098523    3.35756151141442
H        12.45568198858649    6.44503838722815    3.52364229359973
H        12.13064117448559    5.04323174764476    2.50703737135574
H        11.78327590460359    4.98542174740690    4.24573692582249
C         9.25162574664159    3.82486324282167   -0.31019746728187
H         8.89955304938583    2.95728378288087   -0.87946288172772
C        10.70350965810424    4.12719822407404   -0.66832559818402
H        10.76697596821041    4.51386649188623   -1.68424047753131
H        11.32585104657343    3.23795608132124   -0.60983467389790
H        11.10384918590487    4.88204632032408    0.00728089241208
C         8.38147277831317    5.03667597583560   -0.63763329087247
H         8.51867525876187    5.33782650742909   -1.67461826006510
H         8.65857254018363    5.87246497412306    0.00431861357183
H         7.32550999136699    4.82665388454569   -0.48620605026168
C        10.35787642224248    2.14485846867776    1.83265847286493
H        11.30440778746912    2.61114260765380    1.53387257756005
C        10.41418943540111    1.91878596349717    3.34223519673634
H        11.35647186592192    1.46377943914325    3.64031687678167
H         9.60515184595396    1.27124161749501    3.66994316946509
H        10.31176060672027    2.88228899015895    3.85896517031884
C        10.19015436889478    0.83914429538182    1.06669703205590
H        11.06242314726254    0.20740415736784    1.22784626221054
H        10.09148937311942    1.01349768054041   -0.00258941605348
H         9.31761875057755    0.29005465598439    1.41328551584761
C         6.80656251174428    3.08888894724189    5.70593968152002
H         6.84300230429544    3.93831994843976    6.39797745196425
C         5.44426056485646    2.41340331953740    5.81890142179509
H         5.28539931037760    2.10875246642512    6.85184998285578
H         5.39164052233107    1.52498631479885    5.19335638374234
H         4.63602308857022    3.08466753229911    5.54068662693629
C         7.92206721445262    2.13282507075076    6.11807299963183
H         7.79251499391196    1.84356251204158    7.15816015851400
H         8.89173519035829    2.61646544334391    6.02819630331154
H         7.91806637316907    1.22791500148868    5.51282985941473
C         5.72138921229830    4.95361458913956    3.72578422164852
H         4.79899991748429    4.36938609802302    3.63684229284437
C         5.99465787041778    5.68314605234064    2.40881192110842
H         5.38089515057719    6.57818131465426    2.32069781829356
H         5.78377203024378    5.04456832075948    1.55497054463484
H         7.05361391659177    5.98137198637304    2.36241179807338
C         5.58874303263579    5.95620943717466    4.86854804296785
H         4.85075369399013    6.71804810696829    4.61995440366431
H         6.54338473812895    6.44825602159604    5.04918108989871
H         5.27878747899727    5.47203913494452    5.79066043881612
C         7.45363120735012    2.57417072041363    1.50358593461407
H         6.78942518038584    3.18108734878631    0.88550261354056
H         7.56456716477172    1.60715653808966    1.00727388989432
C         6.84057749463958    2.40135945640293    2.89456030005178
H         7.27611908505335    1.52262838635028    3.37476742019694
H         5.76220913305949    2.24057440610434    2.81412343076817
C        11.14406179766226    4.23264312957803    8.04416758996267
C        11.45292507411323    3.43896841370063    6.94425372549183
H        10.96289696886781    3.63060964163490    5.99726943188955
C        12.37146271234488    2.40683791139682    7.02026071850909
H        12.58993087187630    1.80972486732040    6.14415047058276
C        13.01083655646777    2.13819760861795    8.21709145403301
H        13.73024386558554    1.33366830749950    8.28359684969641
C        12.72026191863867    2.91237477600004    9.32789012414542
H        13.21522369145972    2.71116030106564   10.26851164626541
C        11.80250061311639    3.94321204199808    9.23739839669590
H        11.58931313934792    4.54251880564247   10.11150851853897
C         8.56644900527734    4.94893508453660    8.45073286411000
C         7.46158660795010    5.76732824893627    8.22300964362189
H         7.60153539539434    6.71473967836723    7.71823397319984
C         6.19143113142244    5.40693452828273    8.63857188263863
H         5.35310210546252    6.06644091146260    8.45435995317797
C         5.99313647652708    4.20557648570857    9.29818833928741
H         5.00294995524848    3.91987267020744    9.62632411157510
C         7.07720731286101    3.38020598767571    9.54176409743514
H         6.93403868197196    2.44348630870561   10.06482918702640
C         8.34381784175003    3.75053717317531    9.12161297515761
H         9.18083589277501    3.09614463296108    9.32237794146074
C        10.55386339004332    6.70138763769936    8.85522075095366
C        11.49386706463069    7.59438756552129    8.34815248522804
H        11.87429501031728    7.44988712599775    7.34448319471625
C        11.95883033884295    8.66114997068988    9.09656075520138
H        12.68857316592155    9.34063111167643    8.67583848655307
C        11.49445015267992    8.85853214624694   10.38534833956168
H        11.85624485278631    9.68991916761277   10.97469014924130
C        10.56390165807443    7.98008228745840   10.91254394185494
H        10.19637209255598    8.12406978381782   11.91996550705177
C        10.10170392937137    6.91938838868891   10.15337188307813
H         9.37063404932569    6.24398519977049   10.57736186551892

