93
CSD_code = AVOKAX | q = 0 | S = 0 | Stoichiometry = C36H52BNNiP2 | MND = 6
Ni       12.05705508454002    5.90810495347819    4.12852504016119
P        13.63635362772508    7.42341600294990    4.37002080893450
P        11.41516726071019    6.83320351372099    2.24442510169321
C         9.60813734223017    6.64866039155565    6.11876368242304
B         8.28625666658443    6.65226209383953    6.91380299365404
N        10.53043357788025    6.59475887843522    5.42001528398468
C        11.14031865380026    4.09160486683120    3.79330374154037
H        10.31962583188663    4.17503635397822    4.49801611607518
H        10.87145384463267    3.66849726280735    2.83335534428202
C        12.43926438719361    3.93556407195059    4.27201380499325
H        13.20591391338962    3.49511166993728    3.63699543320001
C        12.78297013613461    4.56221813921514    5.47437406723499
H        13.80256778735401    4.49937721611422    5.83690235502283
H        12.03332469598380    4.63883512944908    6.25568736479562
C        13.36476133497722    8.71739165190026    5.67960846582337
H        14.24063280263938    9.37621513391449    5.69554157875352
C        13.21983492389646    8.01579626937031    7.02662685822241
H        13.03323929239579    8.74247796681298    7.81461260179431
H        14.11764425041448    7.45755227537252    7.28596063927316
H        12.37754848095680    7.32685520867175    6.98618881750063
C        12.12234779357762    9.54652086780518    5.37257804715665
H        11.87871217629742   10.17743734291442    6.22503968519805
H        11.27478202163863    8.89075922151870    5.18187786368249
H        12.27757210647119   10.19414331686304    4.51244764154719
C        15.43561689175010    6.98056074789607    4.63070545395429
H        15.48152570876299    6.61500626655098    5.66411919874401
C        15.83832973996194    5.83588624072918    3.70404920195966
H        16.81299593153572    5.44347898342185    3.98948683552855
H        15.90480125300939    6.17421108157740    2.67172912103886
H        15.11664196910768    5.02363425637541    3.75837635258463
C        16.41299450261657    8.14229890838829    4.48040586864368
H        17.42212057424015    7.78854895440961    4.68664427321300
H        16.19875994561037    8.94909980492466    5.17544616433243
H        16.40019548894328    8.54039646392727    3.46875191534325
C         9.67137517812125    7.37107112561673    1.88237755305104
H         9.67949282842929    7.84446798051736    0.89294831685398
C         9.14570187459946    8.37074031979749    2.90717489384694
H         8.08550825391814    8.54178846533602    2.73305026224001
H         9.65297938094867    9.33060507401905    2.84631598406891
H         9.25181183410168    7.97385269653339    3.91297809051614
C         8.77401250955569    6.13738776245131    1.87250373262551
H         7.74781760469522    6.42190533724008    1.64999567046195
H         8.78078422742441    5.67644306342391    2.85831503996261
H         9.09398216610168    5.40567016574494    1.13289956042735
C        11.87953891536898    5.87483576158622    0.70402535047364
H        11.34085984128033    4.92450142038372    0.79834584896832
C        13.37548531123653    5.57286248382576    0.74626187252542
H        13.62600740945798    4.76623653102586    0.05914617905010
H        13.66927167462291    5.27392183965685    1.75362238711553
H        13.95231602996054    6.44952801095538    0.45852339276180
C        11.49176385919238    6.51497345356267   -0.62391791760652
H        11.89171324569586    5.91361629034896   -1.43942874024178
H        11.90042303580995    7.51858159142772   -0.72166337455688
H        10.41343094476678    6.56463618892328   -0.74668284866183
C        13.70329427666379    8.39892916690371    2.78929292205525
H        14.05468332424791    9.41268168070336    2.99961982147920
H        14.44450867858343    7.90846208307612    2.15481571029126
C        12.35200782327117    8.43084659386062    2.07984209379751
H        12.47338549857838    8.68737084868763    1.02432105597339
H        11.71867662565368    9.19011319452983    2.53879917825938
C         8.24563619093383    5.30435967502916    7.81455112737705
C         7.04960767912267    4.64906106099714    8.09426228328065
H         6.12972707768965    5.02370417164931    7.66569100620463
C         7.00839279457179    3.52649819561638    8.90186607778760
H         6.06317355427117    3.03872339151889    9.10254670452144
C         8.17365496517000    3.02298140675261    9.45438523083140
H         8.14550501459311    2.14342930525283   10.08357751619906
C         9.37491246047554    3.66003501067386    9.19629868584323
H        10.29203751144579    3.27802438719192    9.62738864523143
C         9.40220902740713    4.78494149475277    8.39115616346076
H        10.34992900330233    5.27896040511965    8.21092503577541
C         7.18691739309462    6.66241840025535    5.71352231351295
C         6.52978972776065    7.82663451884300    5.32569658110460
H         6.73179330312052    8.74740002201280    5.85630264695102
C         5.61813241207073    7.83336063043939    4.28395408709080
H         5.11588199719824    8.75266740400544    4.01026187003160
C         5.34459404444701    6.66637417735150    3.59127153688157
H         4.62904327712143    6.66649404695408    2.77937271575565
C         5.99540784511245    5.49802810365857    3.94978435514528
H         5.79109656237303    4.58026773274158    3.41283583907673
C         6.90649749055813    5.50448662519788    4.99122581539953
H         7.40572225858202    4.58171974730744    5.25995292343029
C         8.18065569562274    7.92661045196627    7.90220382883911
C         6.99778620644992    8.18067796607411    8.59271329470034
H         6.14984991717553    7.52787407001332    8.43777417089403
C         6.88084699948726    9.24486163075065    9.46759349565938
H         5.94840776461952    9.41806361378249    9.98919130325479
C         7.95622886834357   10.09133283618739    9.68080152453801
H         7.86906899221158   10.92488365983457   10.36495993345554
C         9.14360844129252    9.85699165056923    9.01077639619492
H         9.99169003336264   10.51146954394739    9.17238954810851
C         9.24826239275055    8.78848415110450    8.13685990670583
H        10.18590074710774    8.62052987471456    7.62342767874162

