47
CSD_code = AVORAE | q = 0 | S = 0 | Stoichiometry = C12H20Cl2N8NiO4 | MND = 6
Ni        3.88201245918945   -0.00000322864857   -0.00000952128619
Cl        7.88753569547940    0.06722800602218    3.76487069597691
O         2.71047486907071    1.82035613819923    2.08709765841472
O         5.94537737655408    1.91789459717361    5.24064094301855
N         4.57157949194836    0.59192662288899    1.64175517001459
N         4.36267401704005    1.82667078878873    3.61754676056421
H         3.78083925391925    2.44638513139328    4.17121637212655
N         1.95962460488894   -0.70492319534482    1.01848135449557
H         1.71990182035148    0.09637107163279    1.60036607195446
H         1.19902425388453   -0.86959344829755    0.36540814152042
N         4.31499763056767   -2.15519462499461    0.64021517448664
H         4.76657617292207   -2.53817707559392   -0.18890334325670
H         4.96443834737661   -2.21620449235091    1.41905199781479
C         3.82762470216847    1.42127942045423    2.41361353876854
C         5.59669746295116    1.49033932493607    4.16418601450720
C         6.32170148119929    0.60722546554572    3.27622270939416
C         5.78539482082608    0.21427174098716    2.09144028555568
H         6.35510831202194   -0.44687822121240    1.45038585066110
C         2.20130419865304   -1.90904562743037    1.80519742124559
H         1.27192766374649   -2.41885042752044    2.08946520808953
H         2.74105343425314   -1.63410552709182    2.71475545276275
C         3.07996683892165   -2.85591597604518    0.97328691243402
H         3.26034135531678   -3.78239371170724    1.53316433646894
H         2.55398980857470   -3.10377970943553    0.04804354256788
N         3.19244724155961   -0.59196222786378   -1.64176375163765
C         3.93643878626596   -1.42133557144868   -2.41356452124459
O         5.05359204093361   -1.82036268462896   -2.08699838460541
N         3.40143702016072   -1.82678443226464   -3.61749698861050
H         3.98330253524692   -2.44650735328716   -4.17112453948939
C         2.16744915503631   -1.49044751422074   -4.16421363638966
O         1.81883469649182   -1.91800306150640   -5.24068883786928
C         1.44239923512872   -0.60731772974565   -3.27630480797594
Cl       -0.12340784605489   -0.06732591340613   -3.76504397113564
C         1.97865012706711   -0.21432726273699   -2.09151114842891
H         1.40890973724791    0.44685227332134   -1.45051007562026
N         5.80434369825860    0.70502401650884   -1.01850985526539
H         6.04411411280977   -0.09624427535178   -1.60040966769444
H         6.56493770482110    0.86972464495060   -0.36543596573925
C         5.56259292596439    1.90915017057574   -1.80519794917031
H         6.49194226851720    2.41899806666187   -2.08947879850055
H         5.02283322077742    1.63420428409951   -2.71474772903613
C         4.68391115488240    2.85596875411032   -0.97324797205796
N         3.44891578058995    2.15519305553117   -0.64015786552878
H         2.99735544845740    2.53813098801567    0.18899183037568
H         2.79944727300648    2.21620415958541   -1.41897089742181
H         4.50348493383902    3.78245198256959   -1.53310028093678
H         5.20990267717213    3.10383258818470   -0.04801293431645

