38
CSD_code = AVOVUC | q = 0 | S = 0 | Stoichiometry = C9H21MoO6P | MND = 6
Mo        1.67601023558601    8.87741500427745   -2.73139444784011
P         2.21520789487879    5.77919788661620   -3.31535458722710
O         1.56344841983863    6.80399841198007   -2.40374183246265
O         0.92289755675384    8.80965453179562   -4.19676927254997
O         0.44769978940987    8.86804736882520   -1.42536484290470
O         0.87943912584361   10.14679005664576   -1.68953474999210
O         3.43121181145140    8.55375631899589   -2.98861665062833
O         3.18781845352571    9.91416398654616   -2.94120892836014
C         4.01312852410148    5.69129150011346   -2.96841544507419
H         4.44049161368698    4.80981336060488   -3.44803769872850
H         4.47781580481758    6.58665740197505   -3.38907641086063
C         4.23065510965411    5.66940150259166   -1.45559774640688
H         3.68750381215439    6.51527408949412   -1.01705425562039
H         3.82370702817912    4.74716842505537   -1.03225845905755
C         5.70988456801810    5.78607268857644   -1.11012232479665
H         5.85106684928649    5.76763402568485   -0.03268872627014
H         6.11067190132226    6.72092675406605   -1.49318462607486
H         6.27329475400547    4.96283582457191   -1.54497224933200
C         1.86270677069949    6.14291481352234   -5.07406768037491
H         1.65380530031528    5.20973338806705   -5.60207189843319
H         0.94983852417267    6.75360234603296   -5.04310165393994
C         2.96087303745867    6.92765838929881   -5.79393278596711
H         3.23932202248608    7.79611422429379   -5.18863126322099
H         3.84061476498534    6.29450156324220   -5.93498028106519
C         2.45637932360591    7.42288651095934   -7.14463961625069
H         3.24553037520620    7.95253243146668   -7.67107863097269
H         1.62581809583231    8.10713561477166   -6.99285018271467
H         2.12309774266311    6.59283869148463   -7.76507446074584
C         1.40161594270260    4.19917384562097   -2.87764876308877
H         1.35409430396153    4.15823527448470   -1.78659644133621
H         0.37370604266997    4.28436983069933   -3.24318282977224
C         2.07364533402608    2.95513169683433   -3.44653172989591
H         2.21634608269594    3.07104777560034   -4.52302166715622
H         3.05785658202815    2.82791666941902   -2.99285305034280
C         1.23515738964744    1.70967362398078   -3.17940380693526
H         1.72842887711088    0.82624972974942   -3.57619267437535
H         0.25871601062210    1.79782215220508   -3.64910597746596
H         1.08959422459519    1.57086228984917   -2.11104135175946

