64
CSD_code = AVOXEO | q = 0 | S = 0 | Stoichiometry = C27H26BN7O2Ru | MND = 6
Ru       -1.29655928313754   -1.64340793959088   -2.12316535455245
O         0.89629279683776   -1.32440549994740   -0.38220362836907
O        -1.99307904364424   -5.32501467456631   -3.47991934607191
N        -0.00626278597501   -1.49078257919366   -1.09776153645092
N        -2.93337495301750   -1.67193902144151   -3.46686106176063
N        -3.85903129792729   -0.69856517227002   -3.38879800668412
N        -1.29522600425092    0.44934220230888   -2.73286159800159
N        -2.42086184869238    1.16308882644524   -2.67934086743260
N        -2.77437339913243   -1.00846762091488   -0.66537852532807
N        -3.71044424196452   -0.11418132673827   -0.98938975604001
C        -3.28030834199785   -2.45654974830132   -4.48840731139492
C        -4.45251982997691   -1.98964140692670   -5.07284406561125
C        -4.78248005552217   -0.86890718757781   -4.34097950193425
C        -0.29525706874717    1.27915502683756   -2.99543583754509
C        -0.78837689248676    2.57651346175977   -3.12304820888728
C        -2.14698871251767    2.45320792722513   -2.91441925203439
C        -2.92389473469176   -1.30504217559140    0.61765562606692
C        -3.99804204287950   -0.58927319310612    1.14193957240788
C        -4.46862816030838    0.15642035868831    0.08171204969301
C        -1.40348135483298   -3.75497230383624   -1.74512502829968
C        -1.31517929501353   -4.38898319178437   -3.10182370225125
C        -0.32117389277169   -3.67655995719053   -3.96050460993313
C        -0.15878454330693   -2.37874989121833   -3.66053703474568
C        -2.56130812545241   -4.15079053591663   -0.91186031354873
C        -2.38075747085761   -4.52166904078702    0.42176206197581
C        -3.45717059140893   -4.82098857297216    1.23202340178782
C        -4.75657955426442   -4.76536975244963    0.74090646962435
C        -4.93973014960609   -4.42136766269652   -0.59136685826122
C        -3.86474218729484   -4.12301848856928   -1.40659526298853
C        -5.91752752980442   -5.08648451524240    1.63295946584497
C         0.31138060284538   -4.39173642316920   -5.07682107362822
C         0.63680045092116   -5.73977645489496   -4.95253073537552
C         1.23199472532107   -6.41917477378667   -5.99840130791878
C         1.51435429937208   -5.77979851374002   -7.19776713910691
C         1.18145275496100   -4.43512442206124   -7.32397582796054
C         0.58949461422295   -3.74995410990310   -6.28290438249665
C         2.15829927816165   -6.50812248325827   -8.33836603046868
B        -3.76848133609393    0.47360908436953   -2.40127600667519
H        -4.67294546304898    1.22184902090450   -2.52813397889967
H        -2.70859440947008   -3.31632321331143   -4.77755167689470
H        -4.97590670767536   -2.41153253140685   -5.90495325099367
H        -5.60601807298618   -0.19144742397054   -4.43986964962953
H         0.71382108230593    0.92197273552665   -3.08410452439632
H        -0.23621224131840    3.46828131485109   -3.33444109822330
H        -2.92125229775907    3.19291674022575   -2.92064068245205
H        -2.27680921499510   -2.00679962530663    1.10746832075740
H        -4.37124234220392   -0.61328980888191    2.14424474880311
H        -5.28171660711680    0.85098590732684    0.02440148834597
H        -0.46695160521093   -4.02891202105197   -1.23144547725755
H         0.51444404697606   -1.78296584364431   -4.28159374305624
H        -1.37794686927198   -4.57239903069431    0.82650814048187
H        -3.29151714826219   -5.10269298320457    2.26295721217233
H        -5.94089064766949   -4.38739315588383   -0.99911672434196
H        -4.03866755139326   -3.87905287666737   -2.44460449987382
H        -5.88131562546021   -4.48420070616311    2.54005287538758
H        -6.86134259929848   -4.89925278399081    1.12675268675331
H        -5.88750054227951   -6.13490460165484    1.92929692601979
H         0.42288415565154   -6.25563345497061   -4.02897134527487
H         1.47895861199390   -7.46502664076813   -5.88108357819671
H         1.38596023126536   -3.92386184046280   -8.25472239479928
H         0.32102805433316   -2.71060606980547   -6.40860732276983
H         1.53148239222174   -6.45268717522437   -9.22769939531699
H         3.12005740225254   -6.05690845317472   -8.58171556345287
H         2.31914917342810   -7.55443372654223   -8.09131696855718

