64
CSD_code = AVOXAK | q = 0 | S = 0 | Stoichiometry = C27H26BN7O2Ru | MND = 6
Ru        1.31727633079923    0.85247994661286    9.60613333415842
O         0.99359386882419   -1.01950062391440    7.52380102059362
O         2.06543685215713   -2.82522963331400   10.93854782282421
N         1.14671205740934   -0.26121021716127    8.39046139887398
N         1.45752891168016    2.25809699576821   11.13720242560954
N         1.63560062218855    3.55899585165253   10.86813232638597
N         0.00034305068873    2.36710587150385    8.78360564285453
N         0.37328127666786    3.64819338341363    8.76147709260464
N         2.88329663199399    2.03566470646149    8.67096321622952
N         2.82963768004847    3.37096995931965    8.70463912382797
C         1.35128841947294    2.13771426614926   12.46056354669090
C         1.47397569494687    3.38697372332158   13.05968943223634
C         1.65190245152317    4.26090344044805   12.00639804008693
C        -1.15370771558104    2.26475929577126    8.13979817456074
C        -1.54677698198961    3.52277889465526    7.68539903598927
C        -0.54372568824438    4.37214414840687    8.10525041408278
C         3.91102243268246    1.69021261635195    7.90838409812953
C         4.55246322208930    2.83601731000229    7.44019523447327
C         3.82890403608990    3.88234112067724    7.97139037565358
C         2.56727132652385   -0.46974368879041   10.71542507543793
C         1.70154120856970   -1.67003339468015   11.00643720220579
C         0.31275470285444   -1.24347463171640   11.35904583533477
C        -0.07027357475041   -0.09720366054469   10.77807245707274
C         3.86872844642176   -0.74158141433533   10.06507208822360
C         4.00005672547029   -1.68527271701746    9.04346902405078
C         5.21563199549141   -1.88556604690778    8.42082081111225
C         6.34104854746237   -1.15170936886986    8.78360402607398
C         6.21472679023667   -0.21498794543704    9.79995830201249
C         5.00237500231974   -0.01728838308899   10.43319965970274
C         7.65031646076284   -1.38153601357720    8.09084846151617
C        -0.50603757144839   -2.08795644758864   12.23807586973590
C         0.09122929196122   -2.83323876675899   13.25189638356033
C        -0.67255870258721   -3.62512432336604   14.08794472343502
C        -2.05042050410238   -3.70282280636045   13.93761243475910
C        -2.64599214169308   -2.96264691435746   12.92175853048061
C        -1.88953585024521   -2.16803908558792   12.08494925298577
C        -2.88622183466921   -4.55465442056196   14.84429832138255
B         1.68854034769541    4.09217242695260    9.42692091130693
H         1.81885895158841    5.26507575378438    9.39942897930505
H         1.17640443263227    1.18609195621709   12.92909306760456
H         1.43551665923917    3.61675946648695   14.10390229281126
H         1.78552033571122    5.32341538355495   12.00140066146075
H        -1.64675785772457    1.31627556153459    8.03241955018812
H        -2.42877601546047    3.77269323690253    7.13363386480688
H        -0.43054972808892    5.42960333105220    7.97999457967455
H         4.15291801426320    0.66099893414805    7.72628815518744
H         5.41367268861626    2.88756272965292    6.80760371301348
H         3.96070473526624    4.94081742275182    7.87551983534473
H         2.74662606430221    0.02739056526951   11.68025366010848
H        -1.07845835620802    0.28008212185635   10.96660088753743
H         3.14493431872421   -2.27384566929343    8.74541134822400
H         5.29734300641482   -2.62366277097441    7.63508008090566
H         7.07628523954181    0.36436444088723   10.10280920331723
H         4.92936092727910    0.71722430382366   11.22549802528020
H         7.99527055361889   -2.40056761167879    8.26377617580344
H         7.54271536254887   -1.24681334132862    7.01494670373872
H         8.40982822579110   -0.69336569456132    8.45403686476854
H         1.16191386107375   -2.79294851544921   13.38309670515649
H        -0.18865028681073   -4.19619781488133   14.86801690096564
H        -3.71713265885011   -3.01856491727891   12.78375276428423
H        -2.37033067170764   -1.61854189698402   11.28877454350236
H        -3.48307320240567   -3.92710770098165   15.50696983523320
H        -3.57125364991544   -5.17237851069754   14.26588087769093
H        -2.26182476917270   -5.20186421737925   15.45516959784624

