140
CSD_code = AVUBOI | q = 0 | S = 0 | Stoichiometry = C52H82ClN3OZr | MND = 5
Zr        2.69151087097200    4.40415426952758    4.65855615749943
Cl        1.12860841502814    3.87152030422145    6.41177774037031
O         2.86481121125609    6.44518916302891    5.92572329676778
N         4.69508141586869    4.05505861727833    4.63925496084588
N         2.73040559869510    5.80189193477088    3.16246792148488
N         2.34769368656361    2.96444759406679    3.29940204554617
C         5.24779656499440    3.89682296421368    3.30857144453124
C         5.05848360804568    5.20806310359298    2.52224744715039
C         3.61691308382947    5.47821703750173    2.06059168607378
C         3.07501380974679    4.25595055588138    1.28790633828910
C         3.17482138871972    2.96061024630246    2.10901044084187
C         4.64893974284132    2.71857378056837    2.50768664366967
C         3.90153590055470    7.36740361574049    5.54995161302953
C         1.88969483829970    7.01219476999366    6.80914691759589
C         5.24695987691509    6.90911849800499    6.10333843716194
C         0.94951130091617    7.98009704572151    6.09834079103126
C         5.04005539513309    3.18287034775588    5.64031197527929
C         4.46902109731710    3.45073163271749    6.91001928184778
C         4.77970248063771    2.69217483390814    8.02039000645940
C         5.65428868525119    1.61234566000954    7.86669144606951
C         6.23868494834783    1.31762726706579    6.64454746923815
C         5.94094818523759    2.11372775719008    5.54471838386447
C         4.24049050805379    3.01422355910541    9.40841798709853
C         7.21381127664169    0.16132115358799    6.46354556129966
C         3.30592596961475    4.22784792701004    9.41560277376964
C         5.42846812224245    3.31942857715799   10.33332661642775
C         3.45635792883145    1.81278216991119    9.95014418776096
C         8.58583470980761    0.72561553631261    6.06848610515568
C         7.39021271496340   -0.67277031165295    7.73551537057843
C         6.69868519999800   -0.77233893214410    5.35937694086619
C         1.47608280862743    6.26339478827068    2.81404552986789
C         1.23516095194288    7.26751818988909    1.86012488568798
C        -0.04748740945582    7.70881533065580    1.59149615013411
C        -1.12276033642403    7.11679171322150    2.25548333383065
C        -0.93574726282398    6.10807001042371    3.19206543027661
C         0.36463883207148    5.71568508132279    3.47780587971351
C        -0.33321038765634    8.82100568019540    0.59018199341826
C        -2.08438306780828    5.39254858335203    3.89087004945878
C         0.93447549455558    9.37094735576358   -0.07001478060291
C        -1.02806602825590    9.97950885519127    1.31968978094837
C        -1.24718668257922    8.28236008232148   -0.51925253707171
C        -2.01324394798560    5.66668776573808    5.39939702361486
C        -3.45489682166166    5.85006537413005    3.38201245090582
C        -1.96009068542710    3.88237825464962    3.63421497564150
C         1.66493874104281    1.79482098732961    3.59526190261860
C         0.80737328864116    1.17975013980049    2.67720676045389
C         0.11022581060629    0.02758990633517    3.00442387526199
C         0.28307550082725   -0.51607299804702    4.27202748491663
C         1.14121401717097    0.05458544978977    5.20812533357467
C         1.83096109836827    1.20526829823603    4.85678460015809
C        -0.82145943244941   -0.58967251295871    1.96912780001918
C         1.31726475097909   -0.53317762441199    6.60231875110055
C        -1.90429004377911    0.43260164553117    1.59714057710380
C        -0.00704950669226   -0.96113882611153    0.72174578785247
C        -1.51950268892422   -1.85645568560958    2.47193516815269
C         0.73102382664759   -1.94372403152811    6.73092079963079
C         2.80770273221170   -0.61769550260382    6.95931574964061
C         0.59136975052148    0.38678209619971    7.59269833542519
H         6.33905033252011    3.72811307723717    3.39039909249803
H         5.40450865410807    6.04169118372806    3.13984732003839
H         5.68907107125309    5.16262846922168    1.62998661258143
H         3.66698020588637    6.32364630370977    1.34896761635196
H         2.02777512579175    4.44281135847489    1.02740015250022
H         3.64426993242972    4.12782879408491    0.36318589908943
H         2.87439467285055    2.12350222888341    1.45444473717678
H         5.24707672239717    2.56735296728811    1.60470045807757
H         4.69062232106973    1.80566120507935    3.11025269833096
H         3.92416608155580    7.39304847575720    4.45181499508938
H         3.66268802526560    8.36732125211513    5.92584326680342
H         1.31888736532844    6.16238181488432    7.19633306876154
H         2.39853664513584    7.50846594876911    7.64743639996747
H         5.47842825438536    5.91461530676138    5.71811795241390
H         6.02797209853388    7.60274861305346    5.80172940668095
H         5.21943794830802    6.87053554195300    7.19104224634082
H         0.14878331705788    8.26695720799065    6.77406665467869
H         1.46645734032391    8.88139286749775    5.77509830564897
H         0.51850394093705    7.49556743484871    5.22307097501970
H         3.82164405251859    4.32537407314694    6.98170835833799
H         5.88453609153152    1.00973430816253    8.72670379937884
H         6.42264955800130    1.91257351978787    4.60110451389443
H         3.83013366384280    5.12790825548610    9.09912482652916
H         2.44682816374237    4.06518485283273    8.76893455385752
H         2.93765715042054    4.39298616229198   10.42656334346032
H         6.08273454568436    2.45811690263284   10.43393786920387
H         6.01406831757203    4.14577136195090    9.93466730912426
H         5.07204286280495    3.59386126647812   11.32435111024559
H         3.10478888636063    2.01927802576818   10.95928938421186
H         2.59453443798987    1.61873536350853    9.31804728449110
H         4.07006623679913    0.91686575125579    9.98008004385252
H         9.30359101819895   -0.08263874322414    5.94196120984626
H         8.52982447516693    1.28155252018209    5.13662677984645
H         8.95239291424113    1.39626367443199    6.84296498045650
H         6.44111170344027   -1.09503045574999    8.05712636573032
H         8.07567876291687   -1.49493581397928    7.53789206549480
H         7.80925791183595   -0.07578410447680    8.54211274316512
H         5.71293438590237   -1.15018133526650    5.62061986260955
H         6.62414877261113   -0.25967592080016    4.40467283171784
H         7.37291590592778   -1.61808411305844    5.23807662035952
H         2.08013724030343    7.70228167806780    1.35209707692525
H        -2.11940580443384    7.44729037571965    2.02312293809766
H         0.56441603534804    4.91481659834727    4.19547377088549
H         1.61050256355707    9.79275180762960    0.67019063331144
H         1.45366070576836    8.59429875982945   -0.62676810214211
H         0.66547360102412   10.16162038066647   -0.76801093749256
H        -0.39019641022446   10.35673937633250    2.11651615232227
H        -1.23273508173508   10.79256823496926    0.62594559749591
H        -1.96908487437724    9.66223205215443    1.75968839326562
H        -1.43952206819071    9.05844135410853   -1.25751092181236
H        -0.77343349671902    7.43981949941905   -1.01862397950073
H        -2.20111590868998    7.94902511913840   -0.12116209438613
H        -1.09659516893130    5.27393954120072    5.83123527977796
H        -2.06184924984708    6.73700344886221    5.59223483341373
H        -2.85132743003878    5.18913094114433    5.90268042386975
H        -3.61797042622399    6.90570867537873    3.58766693219113
H        -3.55261355798564    5.67454737254161    2.31303809541107
H        -4.23644545312532    5.28702448488681    3.88825121428484
H        -2.81327987525920    3.36135268768538    4.06384767806692
H        -1.93823930417395    3.68315768426229    2.56466853927134
H        -1.05763676355176    3.46505806064089    4.07784119456428
H         0.68137424972037    1.64527764839607    1.70968323875715
H        -0.25752516060339   -1.40523563248699    4.53622525386131
H         2.54545562047825    1.67112616262384    5.53770299065671
H        -2.46430088369947    0.72279579035707    2.48332424980801
H        -1.46843703974721    1.32803855716097    1.16350069607298
H        -2.59536576453602    0.00389401636780    0.87363121397324
H        -0.65100791457795   -1.41936707333218   -0.02659419663880
H         0.45893482667667   -0.08511293037587    0.27935020597082
H         0.77711998764573   -1.66873546498383    0.98332987698845
H        -2.13832972970779   -1.64302852995658    3.34019102053117
H        -2.16485334688532   -2.24992638832886    1.68842291209632
H        -0.79610034088596   -2.62664983048023    2.72906569430591
H        -0.34958215623244   -1.93760456068988    6.61202050880522
H         1.16701905845247   -2.61466059332728    5.99375189332238
H         0.95102153639117   -2.33795506891832    7.72143927732048
H         2.93133478112860   -1.10310726538516    7.92577127251342
H         3.33649450803360   -1.20361473133650    6.20969160426637
H         3.27146985314143    0.36249720845662    7.01845077846180
H         0.72725329258238    0.03111239481525    8.61261102679058
H         0.96374954229359    1.40490707233341    7.52082821308733
H        -0.47431591728300    0.40685638876139    7.37295474559861

