65
CSD_code = AVUFEE | q = 1 | S = 0 | Stoichiometry = C31H25ClFeN3O2P2(1+) | MND = 6
Fe        4.26358685484405    3.29412353167058    4.33865857600777
Cl        5.27778701793117    2.90860391422136    6.23417572715259
P         3.58033066143326    1.25687297059607    4.12233564977343
P         4.88730332624736    5.36013325348285    4.25650794521247
N         3.48679638434507    3.59968186195435    2.57273746114703
N         2.82811675762246    1.40019573948081    2.59837842257753
H         2.36213917400192    0.62272723689637    2.14560708342052
N         4.20854884204593    5.77240509083408    2.74723418566670
H         4.28148056429459    6.70306382106689    2.35329765730535
O         1.68464708669402    4.07767348771840    5.40798884766783
O         6.94521056022303    2.47028254669534    3.57848000235921
C         2.84228222616497    2.60352965890906    1.94428086040276
C         2.24067493162991    2.79918432574113    0.70462133716919
H         1.73197220157534    1.98568681586235    0.21546718227360
C         2.30903225405993    4.05471171389097    0.12698918546701
H         1.85035119165721    4.23213873118171   -0.83222880392423
C         2.96239059782656    5.08364383418227    0.78210370137682
H         3.02256918093966    6.06995222865596    0.35385185845929
C         3.54291572027529    4.82183142701793    2.01959499426170
C         2.31730950653717    0.54592954033440    5.20803524700894
C         2.18293857194716    1.02527777063921    6.50715031806760
H         2.83725810678862    1.81282793309831    6.85592529317995
C         1.23261459397941    0.47056809055666    7.34663371559615
H         1.12776401099047    0.83826528931562    8.35568322517539
C         0.42017317146126   -0.55551820075933    6.89209965578602
H        -0.32385057268821   -0.98329753206403    7.54615717741056
C         0.56582435170136   -1.04500527620052    5.60231145008678
H        -0.06011634385882   -1.85360030949795    5.25683807487238
C         1.51783381872993   -0.50363462337812    4.75948839265346
H         1.64888781295321   -0.89938182870138    3.76098894988902
C         4.73895385675622   -0.11218990617989    3.88926856755038
C         5.06516796738325   -0.91657203899876    4.97810795267127
H         4.57810649919027   -0.75153245942378    5.92937136340161
C         6.01209078569226   -1.91365321831046    4.83178717464339
H         6.26657328899709   -2.53968749697567    5.67295635709325
C         6.63596449511905   -2.10496831218593    3.60885753436890
H         7.37385238866783   -2.88432870504346    3.49742952192916
C         6.32262673687001   -1.29411583120846    2.52835420640878
H         6.81650293925629   -1.44131647907077    1.57986377980186
C         5.38321507754064   -0.28992105116409    2.66688771324976
H         5.14479440387124    0.35660592357062    1.83136080594761
C         4.25619114182174    6.60249022421164    5.41278427352611
C         3.83685384762096    6.20971351994791    6.67972389369317
H         3.89828326224276    5.16771538318091    6.96323935654432
C         3.37250729982951    7.16015496446006    7.57224045733871
H         3.04901846214582    6.85910167400714    8.55666198462204
C         3.32598204200971    8.49449019464350    7.20231170376087
H         2.95906232997305    9.23354464775474    7.89766761985811
C         3.76057033790354    8.88831281259486    5.94513242665093
H         3.73546149640675    9.93069889273264    5.66625411043651
C         4.23396453428813    7.94787021453227    5.05007437644254
H         4.59535381785982    8.25512205623033    4.07750478594138
C         6.62720603427384    5.81897162998610    4.07267996637832
C         7.34747183052518    6.19887421614902    5.20235819043220
H         6.84432910736399    6.27211551182979    6.15680724454578
C         8.69836862040390    6.47249313302909    5.09163491548704
H         9.25948791667803    6.76800865096947    5.96458953837744
C         9.33069961914094    6.36280605679517    3.86294632733194
H        10.38472933641303    6.57801679858248    3.77922852286273
C         8.61712422997238    5.96982692213902    2.74073141209388
H         9.11498685357514    5.87818471516762    1.78733099532749
C         7.26826423427278    5.68613353560997    2.84303070231422
H         6.70889593930898    5.36366206754526    1.97356466683364
C         2.71612838625101    3.76291555095069    5.04768135313458
C         5.87903831802321    2.79958315854083    3.78338282549442

