49
CSD_code = AVUHOQ | q = 1 | S = 0 | Stoichiometry = C15H25ClFeN3O2P2(1+) | MND = 6
Fe        1.91941332375365    7.58760126167789    1.88815488995326
Cl        3.93102624948357    6.78668128105352    2.16883803112933
P         1.53000787953482    7.79817435912541    4.01263037134273
P         2.00249270051976    7.49829637420404   -0.27807512642995
O         1.31338842413375    4.76051707346846    2.05016238165488
O         3.43978134193780   10.05186147014181    1.85380147252031
N         0.11174411214479    8.30651660322474    1.63955455721033
N        -0.05207308808996    8.42498786032781    3.92869903436281
N         0.45321384597059    8.11692012865402   -0.62483494460280
C        -0.63642548716005    8.63180588340905    2.70639514601423
C        -1.92213751296625    9.14480575740667    2.56440481449741
C        -2.42825621322138    9.32047540031695    1.28881106815744
C        -1.65760500742013    8.98631862628318    0.18961132013613
C        -0.38050910639089    8.47617683738789    0.40154620237215
C         1.32903721018078    6.36017030092412    5.13174405469504
C         2.67216155442772    5.69490671606028    5.41746671337097
C         2.45936306611608    9.04009557026743    5.00116643786936
C         1.98763619382839    9.21970949040421    6.44076439801103
C         2.04507654330626    5.86967954074496   -1.13221954144769
C         1.93345223494120    5.92489501684218   -2.65255700274958
C         3.09911913834123    8.58134386727279   -1.27028206686388
C         4.55377529467004    8.13294398586584   -1.16257356117724
C         1.44975040537909    5.88399914897430    1.96596898347260
C         2.75835469852137    9.14439024976957    1.86074512715729
H        -2.50298498407741    9.39742416916519    3.43531907373157
H        -3.42107654705088    9.71702668599668    1.15167662827732
H        -2.02958202218558    9.11411705818877   -0.81285804758230
H         0.84982848043943    6.70204782075405    6.05541080143680
H         0.64965815497585    5.65715300148290    4.63933142508447
H         2.52496032584570    4.78961738800111    6.00109176374570
H         3.17630709590853    5.42814685431122    4.49058225812708
H         3.32780478771399    6.35755650175010    5.97744349853374
H         3.51006109897270    8.73586697227425    4.97230923070428
H         2.37724548088487    9.98662441222506    4.45626219529103
H         2.52807369976265   10.04809773166834    6.89300216507309
H         0.92523700408114    9.45226573791989    6.48623497000892
H         2.18064348028186    8.33444757219281    7.04018356102868
H         2.97746371839885    5.38353161297304   -0.82912615887799
H         1.21913248767611    5.28455697504752   -0.71388036218787
H         1.85947188606213    4.91191126453428   -3.04138512065399
H         1.04410908782377    6.46736098176850   -2.96814847351062
H         2.80701559455289    6.38744084545730   -3.10335210016749
H         2.75394494112050    8.56723494394295   -2.30942980650183
H         2.98224107987225    9.60096050731690   -0.88952374961159
H         5.20340164277674    8.83913320955990   -1.67350121501458
H         4.86311075267768    8.07309615148113   -0.12083419261559
H         4.69681994472483    7.15293968542072   -1.61169908660298
H        -0.59946335951545    8.64373737886434    4.75201028859280
H         0.11658836633435    8.25173173389543   -1.57014230696491

