61
CSD_code = AVUJAC | q = 0 | S = 0 | Stoichiometry = C26H28N2NiO2S2 | MND = 4
Ni        3.84764009486089   14.28419134107629   25.14590354692282
S         3.96704390705093   12.76260947585179   23.62639332787491
C         3.44598809609375   11.23056783672798   24.14355678525275
C         2.94975907796301   10.95763218481417   25.39989615393150
C         2.88973174180309   11.83828927566555   26.48430251136326
N         3.31738597617436   13.06841081498572   26.55170894570686
C         3.22693408050863   13.76177711063933   27.84167398281296
C         3.58194106252723   12.90793703650828   29.06530020128298
C         3.50825126609935   13.74671408284552   30.33778275774108
C         4.44221077473945   14.94549591541424   30.25287473451765
C         4.10059279345890   15.80767019289376   29.04073040659560
C         4.18901867789439   14.96211332009340   27.76828459999692
N         3.94711136332308   15.63846076692832   26.49281205653731
C         3.84613829160356   16.93357271324250   26.44116687903808
C         3.75836761878282   17.73417048168425   25.29504753900748
C         3.88906880269041   17.30606283929018   23.99299165389290
S         4.12783641696446   15.68891380383314   23.52215728201567
C         3.52810241511431   10.16755006999882   23.13581683871300
C         2.57261840612429    9.15793682605320   23.06242812800722
C         2.65374865461310    8.15755010449480   22.11084767940396
C         3.70881051788282    8.14094999575346   21.20475994226902
C         4.66796694937806    9.15492321072884   21.26621301151079
C         4.57325719100239   10.15116898349114   22.20860202782769
C         3.85064344188195   18.27802350379734   22.89481355889916
C         4.65119022809516   18.10787723993380   21.76275922853631
C         4.62555116682088   19.02126974698900   20.73564039948404
C         3.78331471737829   20.13444763938830   20.79455638285365
C         2.96852866166547   20.30373399723824   21.90893102650496
C         3.00963418680976   19.38604195686029   22.94269432275688
O         3.89384081791779    7.20429176259198   20.23577540304592
C         2.95946944689923    6.15950463692257   20.11974942646340
O         3.83213483072532   20.97538819581147   19.72617183111579
C         2.99829558579726   22.10801411201194   19.72026790362832
H         2.61526242114795    9.94950105102890   25.59910561014809
H         2.45034336392107   11.40079914688958   27.37944626470518
H         2.19993684132198   14.14432730830468   27.95794322272148
H         4.58934007638763   12.50529342197929   28.93628000694898
H         2.89373290506656   12.06901870684881   29.17097622607656
H         3.77343389758883   13.12709175093278   31.19641052379922
H         2.48245220082140   14.09481480254388   30.48101464920318
H         5.47438872422494   14.59784836438538   30.17066091441109
H         4.36308235295524   15.54595597978708   31.16110659397780
H         3.09117370258934   16.21152234861191   29.15075919248235
H         4.80947365521802   16.63646625654766   28.99359108785403
H         5.21041109038811   14.55122375759049   27.71041328294426
H         3.84845046521655   17.49478529209721   27.37229527278686
H         3.65240374430365   18.79546991198236   25.46795180756584
H         1.72974830231335    9.16345129733546   23.73717289782732
H         1.88480970773007    7.40118672246297   22.08347424837556
H         5.47861818023622    9.13559203946749   20.55525301346522
H         5.31838067685837   10.93043587423859   22.24575298142820
H         5.30293542178352   17.25008513869410   21.70633414796052
H         5.24923991910791   18.89801988780471   19.86452452355400
H         2.29380141479931   21.14237857387825   21.98294734700037
H         2.35088656041033   19.52464222729034   23.78698201422354
H         1.95881812201701    6.53860233894332   19.88809229178981
H         3.30903847188395    5.54134851099292   19.29427908019603
H         2.91715694470822    5.55406241417785   21.03109364238617
H         1.94021433621550   21.82893962275783   19.75832158365639
H         3.22710085440337   22.78126868587052   20.55305776106925
H         3.20083838574569   22.61870739198549   18.78004933592669

