29
CSD_code = AVUJIK | q = 0 | S = 0 | Stoichiometry = C8H12Cl2N4O2Zn | MND = 4
Zn        1.59852012711317   13.54627062757059    3.40609855485843
Cl        1.39070850121616   11.77283678403951    4.59282683403269
Cl        1.68288478411839   15.68637028229623    4.25657069788099
C        -0.75332741911322   14.79633104083372    1.76060373204267
C        -1.88884533057814   14.30322870183471    1.04991241209119
H        -2.70955091504160   14.87583867769723    0.67352573587640
C        -1.69035531646801   12.95902697022924    0.96981625165670
C        -2.49231275769780   11.86912526543633    0.36599752006036
H        -2.64252991719545   11.07632560015532    1.09603056369814
H        -1.96136406639173   11.44284161483061   -0.48378176590169
H        -3.45272099365157   12.25170439789201    0.03542351016845
C         4.25267002698730   14.48154344959632    2.03493416572833
C         5.38538752874435   13.85540037426841    1.43266359729814
H         6.29531949325581   14.32795542282732    1.13027034200020
C         5.04547431952755   12.54088000385512    1.33862190148546
C         5.77052944038691   11.36093033680201    0.81156819549703
H         6.79470132889366   11.62864261275399    0.57193951137120
H         5.27530296194673   10.98948279829842   -0.08433322782488
H         5.76127697534280   10.56327466772433    1.55158659350970
N         0.03956173430707   13.77836763775088    2.06378901848041
N        -0.44158472437428   16.06954613793945    2.03378808732288
H         0.29831827971311   16.22407199079251    2.71976983971301
H        -1.17624492055311   16.75352083146213    1.97915839832407
N         3.32718818590094   13.56196957505758    2.26848559910965
N         4.06243126135454   15.78437419217500    2.27572625088804
H         3.28011068816873   16.03080376410853    2.88349172677086
H         4.86923931357489   16.38343268021826    2.28631288531671
O        -0.53724287245327   12.63402844944184    1.56741436553252
O         3.81445428295033   12.35387511215301    1.83068870295774

