47
CSD_code = AVUJOS | q = 0 | S = 0 | Stoichiometry = C23H16AuF5N2 | MND = 2
Au       -1.69801437575621   -0.54048910411718   13.36330993874927
C         0.27446482935273    9.78421393216674    7.87214353684281
H        -0.08111142174269    9.65310196737905    6.85266911330508
H         0.55518170020075   10.82565241636710    8.00650879822501
H        -0.54450320633510    9.55914916257561    8.55169763197067
C         1.46316212770046    8.87146904968244    8.14619454061125
H         1.81755994913757    9.03370036726952    9.16683210819305
H         2.28095002882839    9.12526473776201    7.46793925386076
C         1.09515076959925    7.40124802759847    7.96717324934162
H         0.75325238535274    7.22880150366209    6.94416843533654
H         0.27250971990382    7.14490517123609    8.63889892644230
C         2.28410583230917    6.48044371154517    8.25926505761254
H         3.10490893650079    6.69996743697787    7.57191991475681
H         2.64490925623083    6.64897502598142    9.27798232801679
C         2.02445996481971    4.35060960733866    6.96223137149967
C         2.50956554016975    4.71383066634444    5.71377048272280
H         2.87991507560681    5.70832760659405    5.51781812186506
C         2.49968578715502    3.75897375788812    4.71537039336324
H         2.87037541823599    4.01756960009015    3.73490812087091
C         2.01956818413554    2.47058695107340    4.94264107810868
H         2.03187804823255    1.75380935920492    4.13591337736154
C         1.53002333130477    2.10277305156177    6.17928053205737
H         1.15730923850494    1.10545936775357    6.35533319393250
C         1.52789146236545    3.04736836914359    7.19790205653691
C         1.09584191874418    3.02409548652541    8.56606452403209
C         1.35780674781454    4.32112508166208    9.08850884094919
C         1.03824896490942    4.64153319159307   10.40552635135562
H         1.22887748263336    5.62321895732898   10.80927212403035
C         0.46168514837469    3.67147855541094   11.19261309494598
H         0.19643812381475    3.88142312359149   12.21728319293271
C         0.20335422002535    2.39223759083011   10.67449499393804
C         0.51728319685468    2.05280047121167    9.36186400024542
H         0.30772179046602    1.06338040452712    8.98666805887856
N        -0.37469975260262    1.47153239205040   11.48121194592876
C        -0.87740829876953    0.68421962321861   12.17170165657558
C        -2.56969897748121   -1.81793405496432   14.65364727128910
C        -2.84418142683384   -3.14292785387617   14.33519176091707
C        -3.43545444598983   -4.04690031606861   15.20893900276474
C        -3.78424659819384   -3.62694140263464   16.48597134641124
C        -3.53392621981325   -2.31212897741811   16.85659722314584
C        -2.94024240961667   -1.45100707821687   15.94223463402613
F        -2.71371368738566   -0.18017189766963   16.34288392098501
F        -3.86533222452834   -1.88973843305809   18.08762619024487
F        -4.35468872628851   -4.47942444464645   17.34950054296424
F        -3.67094435394791   -5.31492345347361   14.83463436923521
F        -2.51989409973037   -3.59213880722028   13.10272109442821
N         1.93027504573285    5.09278009821892    8.12027229819094

