35
CSD_code = AVULOT | q = 0 | S = 0 | Stoichiometry = C16H11N4O3Re | MND = 6
Re       -0.14606159804457    2.41918084684380    4.25965767371118
C         0.89878141196793    3.51807024645112    5.49017216120674
O        -1.85913293455223    1.19114631681220    6.53159000178445
N        -0.98376301634766    1.11181295712693    2.78789643871163
N         1.13079766025768    2.98639665897395    2.62364693900129
O         1.56239561003933    4.13187027549925    6.19419901803594
N         1.95310133511009    2.95971971314866    0.54766870489086
O        -2.07777221350277    4.76664779552303    3.67641352161629
C        -1.36391376161727    3.91098315609104    3.94178525215007
C        -2.55204534284720    0.54768511075531    1.07987960060653
H        -3.51406968173636    0.72761253953034    0.62867636259032
C        -0.13557059050930    0.18008603674612    2.30767507768190
C        -1.23346087275659    1.66444069059734    5.69632878016569
N         1.22495980365824    0.76462124746667    4.17324684439717
C         1.11320798081816    0.01311137066519    3.05941602045358
C         2.30241220145279    0.61676246276033    4.93900045657710
H         2.33903706681795    1.22192428745703    5.83621824803513
C         2.98294126834186    3.08751929575756    1.42249929635877
H         3.99859873975951    3.15489764854982    1.08310943794804
C        -2.16090827382614    1.27345274314899    2.18925099710532
H        -2.81657936535358    2.02228154965148    2.61565860565867
C        -1.67578823158373   -0.39494523547555    0.56056739789936
H        -1.93498681030633   -0.96897953340706   -0.31540148641073
C        -0.46227955887035   -0.58833983684967    1.19013585957718
H         0.22827005525848   -1.32214766648331    0.80988547470610
C         2.49100017078639    3.10585428130406    2.69902517821248
H         3.00225579973029    3.20989037874645    3.64054356726322
C         0.87859137806990    2.90846196000725    1.30281387058991
H        -0.11613231633935    2.83666969500531    0.89392488956970
C         3.25598250974834   -0.98737759166928    3.46070387002517
H         4.05604550017152   -1.64915059700936    3.16741180697841
C         2.12653697944381   -0.86447592139670    2.67554486851668
H         2.04308969798424   -1.43058028422229    1.76308634250974
C         3.33706891732814   -0.24617392565240    4.63088181419137
H         4.19179048145030   -0.31962867245226    5.28318710768546

