75
CSD_code = AVUVIY | q = 0 | S = 0 | Stoichiometry = C34H35ClN2O2Ru | MND = 9
Ru        3.18840155631703    4.09868163995996    5.13599886315209
Cl        4.18880146216727    5.00342987048029    7.05180060559368
O         1.39915293641637    4.37604023513902    6.12647306861712
O         7.06526543856993    6.99900987116381   -0.35444139251609
N         3.08212615847729    5.99246160108016    4.49887411725270
N        14.46788626894842   10.45749332254298    1.81586221866661
C         6.16699630468549    2.47312797397940    5.73172726851174
H         6.34740573885336    1.47867575915793    6.13675241646888
H         6.11501160538448    3.17526398275741    6.56819681934126
H         6.99820893051747    2.75906037505299    5.09126980466823
C         4.87035563631591    2.51700026809897    4.98544617664410
C         4.77640461840939    3.10177595740933    3.71067775010320
H         5.66597258383313    3.47899542680464    3.21929869397902
C         3.52986183541926    3.17737198809316    3.04767662801025
H         3.49795962361009    3.61565433795276    2.05571677988276
C         2.37045132883772    2.59447333440309    3.59415955387469
C         2.49436133451477    1.94180984935496    4.85023513935461
H         1.62941096688654    1.43506318504079    5.26622732845041
C         3.70976787578587    1.90158352410378    5.53717705695950
H         3.78909191167519    1.36371408580602    6.47542390461148
C         1.05734653670124    2.59541362891808    2.84819880889010
H         0.30102883997567    2.13476767069759    3.49362228087693
C         0.60848439742221    4.02676407222543    2.54434208945145
H         0.58429568359872    4.61100189678590    3.46456798302738
H        -0.38858803768884    4.02481738688625    2.11017486332858
H         1.28701072253520    4.50656688805785    1.84222456933551
C         1.16700493173267    1.76706329301420    1.56472733557816
H         1.88594438302462    2.20859245630091    0.87831715458899
H         0.20123820555405    1.72270049370626    1.06724660185149
H         1.48579867684351    0.75150046295186    1.79086574206437
C         0.75599275892685    5.46962434419198    6.29149872168186
C        -0.40830477906161    5.43479854796205    7.10553504617397
H        -0.65981018823450    4.48575419224501    7.55419132381970
C        -1.16205058923483    6.55138428655559    7.33516082959574
H        -2.02980877587693    6.48821533497082    7.97591977916151
C        -0.82022967490625    7.77732612080162    6.75261049093240
H        -1.42119518375212    8.65303224044788    6.94265723927259
C         0.28102902067034    7.84891288193938    5.94439938652654
H         0.55661647559905    8.78914599910348    5.48707746554598
C         1.09080095514228    6.72411272057744    5.68555406473603
C         2.19433977112047    6.88577919124493    4.80769008086102
H         2.30271200561923    7.87505159115899    4.35975803099439
C         4.10239761168771    6.32722014931114    3.59742065896404
C         3.81070813384130    6.77586345677991    2.30923779697446
H         2.77894737596601    6.88011427090026    2.00334241033260
C         4.83812998338635    7.05313846389652    1.43050234761398
H         4.62779715275698    7.37386078346865    0.42091450040423
C         6.16814967560344    6.93507155743645    1.82745707771925
C         6.45288547774363    6.50664154460617    3.12310678988840
H         7.47777994282645    6.38853085873800    3.44232573114467
C         5.43322478824617    6.19626537137686    3.99939130699118
H         5.64004679410493    5.87240366646354    5.01205302058834
C         7.23678048715580    7.23992174234610    0.83160535526595
C         8.44902713409880    7.85074154016652    1.36077001187490
H         8.45185489862406    8.12148921524096    2.40463979786380
C         9.50374875678478    8.09629119002983    0.55737610464860
H         9.39919392282019    7.79723634328874   -0.47983236071903
C        10.75563945349973    8.70069069705875    0.91415509119277
C        11.05836359334805    9.15058826768853    2.20607665563909
H        10.32596573289913    9.05097113112640    2.99242735029984
C        12.26927442874091    9.72472228043602    2.50383096413638
H        12.44367015022788   10.05832399069746    3.51348115312086
C        13.26390430981993    9.88769643219493    1.52186631233477
C        12.96238176859236    9.43536302529411    0.22459227010939
H        13.68772636125485    9.52795299816631   -0.56678349246316
C        11.74794617018648    8.86227490343780   -0.06194307061339
H        11.55020536325561    8.52456657927632   -1.06945050086924
C        14.77934923135471   10.86137987748025    3.16472499844064
H        14.12883600408307   11.67628849770341    3.49926734088883
H        15.80893597069277   11.20717111260464    3.21228897185004
H        14.67266442250610   10.02242745459725    3.85771516365237
C        15.43902346555480   10.69529839150392    0.77670920922871
H        15.80964428073367    9.75528814908730    0.35520769059467
H        16.28554739979824   11.23999031291578    1.18723978205393
H        15.01009944726148   11.29510343960447   -0.03100916268796

