50
CSD_code = AWANIX | q = 1 | S = 0 | Stoichiometry = C18H27ClIrN2S(1+) | MND = 8
Ir       11.80553021775262    0.73237978668654    1.13384015448914
Cl       10.91122552532154   -1.39877462384944    0.89852213042023
S        12.25092369704062    0.37836522446539    3.56697911893410
N        13.71227574633381   -0.43064664643051    1.00013361745547
N         7.25683878303745    0.91470752738695    4.54084877212035
C        13.92826482139847   -1.32744811349846    2.14880744113089
H        14.90995345626909   -1.81228228402525    2.09330413627687
H        13.15505453100592   -2.09963136422152    2.11381658415509
C        13.82927133893537   -0.54580797445566    3.44836342357983
H        14.60799005725367    0.21509420954043    3.51088229349814
H        13.90305565782737   -1.20269811407094    4.31265859157413
C        11.10400990011878   -0.91223347091621    4.19506277109051
H        11.09249230737138   -1.73617972112604    3.48393832609611
H        11.50036459788025   -1.22514461207539    5.16122890637290
C         9.74643221408260   -0.29704257128851    4.33172879457996
C         9.48660611402689    0.63652034208521    5.33011643664065
H        10.25007321270745    0.91065947549036    6.04209122744861
C         8.22475661694179    1.20820937915909    5.39045235010698
H         7.97840207204414    1.93916945754169    6.14792137499102
C         7.49724845038017    0.01556219014726    3.60388281149253
H         6.66965887081030   -0.20313933739277    2.94228555165728
C         8.72232022028351   -0.61806796139013    3.44912871903553
H         8.87505317421815   -1.34029879716841    2.66408171960716
C        11.92095308849492    2.96380130430798    1.12078171639087
C        10.56108056423917    2.51915562050635    1.35641615094179
C        10.11610888402833    1.80719395040918    0.20029639730835
C        11.21960815123597    1.74304701954149   -0.72316468868524
C        12.31117781478487    2.51356064140338   -0.16103066097566
C        12.67202078161557    3.88892043672271    2.01428203258569
H        12.52103333207727    3.63146069351006    3.06014185876207
H        13.73720015002740    3.87466521232862    1.80053311683492
H        12.31171957906296    4.90744309290361    1.86605688005006
C         9.71843236813152    2.96201592004276    2.49948385484760
H        10.29267225852361    3.01456715887059    3.42140768100154
H         9.33446036756531    3.96083613261889    2.28611180803123
H         8.86880164799128    2.30298908780960    2.65334166163847
C         8.73555756983265    1.32463969587197   -0.07150671373555
H         8.74855941356776    0.36941215937154   -0.59085081943329
H         8.16705510067289    1.21414461488187    0.84765046911633
H         8.22454129464361    2.04697243816542   -0.70922910286384
C        11.13106157885711    1.23831766365121   -2.12202881747049
H        10.54267807122081    0.32505884122204   -2.17005923245862
H        10.63552655158182    1.98668275325656   -2.74224589097416
H        12.11368863578543    1.04531822066242   -2.54383404553033
C        13.57500654779597    2.84855754812542   -0.87261556034510
H        14.37775955500388    3.08146366160364   -0.17766735571030
H        13.89325108865387    2.04094665603254   -1.52771969608195
H        13.40657215875578    3.72945780909282   -1.49374160111442
H        13.66232483151769   -1.00009077627178    0.15544648304201
H        14.51184703128342    0.19489044277089    0.89986882210211

