51
CSD_code = AWAPIZ | q = 1 | S = 0 | Stoichiometry = C19H28ClNRhS(1+) | MND = 8
Rh        7.73157404020360    0.64067058172760   15.24810978206310
Cl        8.58162101005695   -1.46111240824658   15.52008734535924
S         7.43023978576721    0.34317026317853   12.86343500792277
N         5.78763567197872   -0.48916637858219   15.29658703503362
C         5.64779027291428   -1.36764860233910   14.12726558057158
H         4.66294757615418   -1.85075467562973   14.10732046334162
H         6.41611007398734   -2.14192021719059   14.20048481228502
C         5.84032417879599   -0.56518158167841   12.85174107584557
H         5.07317998575542    0.20406295141677   12.75037191211894
H         5.82357204902555   -1.20546443467529   11.97205098917053
C         8.60583801994256   -0.92559582336440   12.24756734455812
H         8.59589391276589   -1.76362853014138   12.94207599191885
H         8.23618767249652   -1.22102938200070   11.26556937415959
C         9.96321212923242   -0.30089481168119   12.16101928354455
C        10.24500308523561    0.61328125383920   11.15092224971978
H         9.48331849567727    0.85804662681198   10.42463518413948
C        11.49487885880028    1.19883611049642   11.06696351060742
H        11.70852696204302    1.89924132944708   10.27439326547153
C        12.47403725528510    0.87990386821926   11.99442512396242
H        13.45159920982460    1.33147167895717   11.92494270431653
C        12.19745383462374   -0.02569677949558   13.00528877675956
H        12.96155133325966   -0.28369738430610   13.72345459690399
C        10.94552451161431   -0.61245356408372   13.09268099077537
H        10.73578469233055   -1.32459935267424   13.87556927308472
C         7.62015711725821    2.84300706405850   15.31218655805964
C         8.98455431599112    2.39669136392718   15.13882395689584
C         9.36096938786804    1.64041578326838   16.29878877614892
C         8.21366496981544    1.55801285311874   17.15715411360285
C         7.15546638909291    2.33995853985318   16.55488887856701
C         6.92325688232612    3.81332726344734   14.41910586968723
H         7.13451767486174    3.60546463771317   13.37256553740496
H         5.84719735562056    3.79473231540590   14.56900331838302
H         7.27856392002911    4.82059937757554   14.64013868495456
C         9.90042214431283    2.85696510809203   14.05899125227989
H         9.37017934899986    3.00111147908718   13.12077981272180
H        10.33167197146993    3.81452925924269   14.35573615024114
H        10.71370214492919    2.15488210821272   13.89497888475346
C        10.72691309108771    1.14147986087089   16.61637926393364
H        10.68769443563668    0.22597136490512   17.20170673423350
H        11.29891976044672    0.95521884633609   15.71084532666275
H        11.24866088352993    1.89793579414782   17.20462215294540
C         8.21210243712972    0.99143419745926   18.53698840572700
H         8.78126654488990    0.06529957021472   18.58089471727035
H         8.68177906516776    1.70518852704600   19.21550118904469
H         7.20310879910537    0.79862406446952   18.89202134100352
C         5.84903602250451    2.65040671680080   17.20081562160623
H         5.08934286582233    2.91196315457322   16.46823989370704
H         5.49138682931645    1.82086687517822   17.80716413655802
H         5.98417373222196    3.50793453430058   17.86197711760647
H         5.80526877651792   -1.06647168263500   16.13843192166283
H         4.98191851632748    0.13581028541973   15.35910871079053

