27
CSD_code = AWELOD | q = 0 | S = 0 | Stoichiometry = C12H8BrN2O3Re | MND = 6
Re        0.68848261099627    1.90109105781797    1.88343564387609
Br        3.00950308496889    2.48047503635900    2.64258280302871
N         0.88450021682729    0.75833295421174    4.12024280813661
C         0.39041285355934    1.28645381876486    5.21455511858329
H        -0.07230163890648    2.25837808337545    5.10904257582945
C         0.45665505328313    0.63951687590978    6.45252829563740
H         0.03568089759840    1.11189836374565    7.32534091292757
C         1.06300164790679   -0.59024547511083    6.52705585458689
H         1.13684910393855   -1.12125818420225    7.46502399231121
C         1.59939676241547   -1.16916194634084    5.36388056574208
C         2.24531371554638   -2.43833431493188    5.35999688927659
H         2.32174642559610   -2.97221908121507    6.29544748220472
C         2.75018330204822   -2.96120977229709    4.21766107385805
H         3.24008514341568   -3.92346859991652    4.21734140338175
C         2.65196377850566   -2.25909953279798    2.98259130391822
C         3.16343470239235   -2.76528551228873    1.77514112737558
H         3.65392772818566   -3.72789201051127    1.77033664606675
C         3.03315676777247   -2.02835354160248    0.62385303861855
H         3.41453121371842   -2.38691137259676   -0.31858923899282
C         2.39285202777440   -0.78667662093276    0.68503163768282
H         2.27238999135158   -0.16920160956658   -0.19478662906344
N         1.90880948719728   -0.30185684267720    1.80365109970860
C         2.01796696219180   -0.99685415680241    2.94525811223667
C         1.48169677975062   -0.44168746765385    4.15824905771520
O         0.08512655276022    3.27172193327235    2.63994737756945
O        -0.54906204762627    0.75175455153819    1.86146552531593
O         1.12529687683179    2.19649336645008    0.29061552246771

