91
CSD_code = AWENAS | q = 0 | S = 0 | Stoichiometry = C28H50N4NiO8 | MND = 6
Ni        4.81330361066459   -0.00014271331129    8.31175828477387
O         6.64050064063061   -0.44135826003602    9.83179024484353
O         5.93389202438748   -2.41509205269903   10.57142692154427
O         6.62571577732632    1.28367170141899   12.10382362720112
O         8.38866409703780    2.12732456994160   11.04330621497958
H         7.85478000984161    2.93904790941895   11.05644668515077
N         5.70438079511434    1.58832592004368    7.62763183092582
H         4.95109597367490    1.95313499584877    6.97643695388479
N         4.22953065806875    1.19897206401876    9.88166177870240
H         4.97409609197073    0.94069416734046   10.54044950903296
C         5.82476206464461    2.57721212182651    8.70634299551450
H         6.62440745348660    2.23506414954867    9.37106146113782
C         6.13007846648076    3.99434592731454    8.20241935759342
H         5.35641641536200    4.28102134157652    7.48734014556524
H         7.09468640334671    4.02441807063413    7.69533914274088
C         6.16587561552096    4.98905854641446    9.35946659563087
H         6.99198239219042    4.73917291930162   10.03159219305485
H         6.35483922832914    5.99123731188174    8.97006343121023
C         4.85420746264198    4.97418755678619   10.13233860705289
H         4.04957726304596    5.30789712289921    9.47381958965794
H         4.90685672910105    5.66736666619901   10.97430200661790
C         4.53631200658835    3.56993035484449   10.63628887716068
H         3.57296077461631    3.59177904835308   11.14714639643165
H         5.28727194489380    3.23841311187409   11.35720783459980
C         4.49316480842347    2.58303990690229    9.46529300319046
H         3.71312981129100    2.88369104758173    8.75830336864902
C         2.95157525664652    0.98196056668990   10.56720818935765
H         2.94156992666019    1.54926074120866   11.51118842797018
C         1.77949616448857    1.43342558783842    9.69780214933390
H         1.66774235236757    2.51437819945261    9.71851404633135
H         0.85380132799400    0.99280278071626   10.05909243331658
H         1.94989574955364    1.11908977778894    8.67071467434228
C         2.83901120903841   -0.49725642597150   10.95002477471918
H         3.72560567323786   -0.78703408842006   11.51893083630662
H         1.97089316371694   -0.61932230327585   11.60065879373775
C         2.68911042322787   -1.44525672713865    9.76351018592941
H         2.39631908126013   -2.41788525595482   10.17677726682965
H         1.89747918283216   -1.10348002015947    9.09157924954674
C         6.67362834790978   -1.41433656856684   10.61744488853764
C         7.69903498513130   -1.37116219300536   11.76847731223710
H         7.12641194150916   -1.38839042160955   12.69817175405768
H         8.30862280363963   -2.27469026018811   11.73295964601883
C         8.56468345973367   -0.12371388277641   11.69958146352843
H         9.19709415091192   -0.04603030703180   12.58848678176567
H         9.20976853402904   -0.13545847427302   10.82049165204920
C         7.72473996457759    1.11969546382984   11.63650148176142
O         2.98592237636572    0.44123922306358    6.79161332050885
O         3.69309153775902    2.41462337164759    6.05155805960193
O         2.99575494640256   -1.28618547967775    4.52157868573098
O         1.23256001295140   -2.12507242162509    5.58539789364059
H         1.76490500032108   -2.93776717354154    5.57279565867814
N         3.92224995304678   -1.58866644688195    8.99580957823382
H         4.67565545026740   -1.95357783436226    9.64677064511810
N         5.39682427907039   -1.19908160421376    6.74162702428334
H         4.65211184393284   -0.94061480112931    6.08308647308489
C         3.80160845217446   -2.57731856360831    7.91689862809208
H         3.00201244264332   -2.23484287335093    7.25231116080134
C         3.49610411593559   -3.99450807872499    8.42055472241015
H         4.26976433814484   -4.28142334242022    9.13554396182972
H         2.53151389590671   -4.02453332775754    8.92768378370248
C         3.46015730267653   -4.98904126155908    7.26334390159052
H         2.63405607437157   -4.73902226220477    6.59126086199743
H         3.27115692551137   -5.99126421909099    7.65261469720567
C         4.77170640194211   -4.97411355633769    6.49028120603590
H         5.57646656111875   -5.30787272197834    7.14861594927844
H         4.71891391369210   -5.66717858067043    5.64823484559030
C         5.08936149448856   -3.56975728976486    5.98648935404963
H         6.05244367593608   -3.59147033084421    5.47512672824533
H         4.33795710481814   -3.23808288968355    5.26611027632322
C         5.13306681472410   -2.58319827613413    7.15773580372945
H         5.91319767017205   -2.88416497726140    7.86448435472558
C         6.67471865235625   -0.98217150686570    6.05594308173812
H         6.68451249783201   -1.54927617269801    5.11184357158317
C         7.84676081293146   -1.43410359369066    6.92516561572151
H         7.95834682421036   -2.51506621236276    6.90411929803916
H         8.77250675182533   -0.99352002491870    6.56396903669354
H         7.67645816581151   -1.12005062266303    7.95235828901452
C         6.78764341120651    0.49709175482282    5.67342542641724
H         5.90116513934156    0.78725108270418    5.10452665961050
H         7.65583952250834    0.61909274658438    5.02288250081371
C         6.93765903660606    1.44473476050641    6.86019953199676
H         7.23086558913063    2.41736145321715    6.44723273214344
H         7.72903167342204    1.10253726277713    7.53222203363754
C         2.95303817114430    1.41410426283413    6.00580075500391
C         1.92704004948992    1.37132213972336    4.85530318637276
H         2.49932667032972    1.38656998903458    3.92535721442546
H         1.31882880237666    2.27581668635388    4.88999728565610
C         1.05961480431488    0.12520427108054    4.92605299576075
H         0.42658837597006    0.04756348479624    4.03757955621229
H         0.41507046909260    0.13882791211485    5.80552119864471
C         1.89764977863623   -1.11940365029421    4.98999939148706

