81
CSD_code = AWESEA | q = 0 | S = 0 | Stoichiometry = C28H46Cl2N2P2Pt | MND = 4
Pt        5.74113163185744    4.41584078287852    7.28444221214759
Cl        3.68075520385186    5.08920684467032    6.47403477570022
Cl        6.76794186800654    5.91044333578492    5.82622526948247
P         4.43887342264028    2.92968762096885    8.46988268943815
N         5.11525395430323    1.81297553985359    9.57219675094282
C         5.81613633290183    2.34739521975249   10.73208682695641
H         6.32442595389924    1.51582777196571   11.22374674392901
H         5.08460115926115    2.75484152406799   11.43492103340468
C         5.78350421645284    0.63177414968392    9.04416908083564
H         6.87181309489890    0.75988010251569    9.07373007053095
H         5.50701448670141    0.48445497757008    8.00068485381449
C         5.43666585922065   -0.62641202514084    9.80398803763583
C         4.53666385545733   -0.64112759086749   10.85834223240384
H         4.04148023179516    0.27196643207797   11.14799707833136
C         4.26489630524714   -1.81932803551750   11.53338624306913
H         3.56300636501498   -1.81542280337887   12.35452306792912
C         4.88531293481557   -2.99737886476480   11.15932342522763
H         4.67401985031483   -3.91500956301461   11.68795397512951
C         5.77304468901845   -2.99438438189013   10.09613676864925
H         6.25322149321085   -3.91203089553622    9.78941740731784
C         6.04407953480201   -1.81812600042726    9.42409613813171
H         6.73210691383661   -1.81775475698201    8.59112444839700
C         3.14349283330184    3.80229124741637    9.48668949061450
H         2.43592151914776    4.11209593809726    8.71084084608962
C         2.43003324082861    2.89740932293073   10.48660491681174
H         2.98853466560159    2.81506437142195   11.41590295007820
H         2.29562847072017    1.89656538398315   10.08313409704110
H         1.45093818456986    3.30942827429782   10.72593141927282
C         3.65994051221338    5.09057008675577   10.12215999935548
H         2.82033985694321    5.70558683585372   10.44189510767303
H         4.22842417977686    5.65994081240429    9.38228524539074
H         4.28876915664243    4.90280895541656   10.98976173476597
C         3.45472742784544    1.76763535825430    7.37503240983828
H         3.42062639292541    0.80446067026468    7.90011525424515
C         2.02146508080811    2.20906623943451    7.09025585960494
H         2.01228760170726    3.19400260471489    6.63052742922282
H         1.40710523818518    2.22145790760665    7.98582013227528
H         1.57314907077658    1.50491093256679    6.39016905635627
C         4.19393600265653    1.62515620664835    6.04271859602324
H         3.64365005743790    0.96735810019103    5.37168859865276
H         5.19807805574434    1.22218041123256    6.16236419872269
H         4.27339080194100    2.60466042769302    5.56930371264769
P         7.86701061831330    4.06622404669602    8.06247471658482
N         7.87047789588786    3.12736574450584    9.49167867613528
C         6.80662954278269    3.47769765479801   10.42139390378668
H         6.22838200928595    4.29497079451069    9.97904457060792
H         7.22871704983887    3.83309714233386   11.37065261887701
C         9.09095990479213    2.64954434841566   10.13892732573101
H         9.29357617921473    3.23834053006584   11.04433646668405
H         9.92974039055430    2.78483338579892    9.45594816099175
C         9.00656031367332    1.19257216411663   10.52292480132951
C         8.66474177997086    0.81695573107121   11.81594560458170
H         8.47910769554042    1.57767580684733   12.56168795422936
C         8.56927034881250   -0.51976809292913   12.16215830860543
H         8.29627571016690   -0.79529440124680   13.16986637718401
C         8.82993426627640   -1.50011303298781   11.22169072187203
H         8.75893532880922   -2.54244596770906   11.49178441058785
C         9.18770500071938   -1.13706764199587    9.93457378934988
H         9.40866321899524   -1.89758636639453    9.20039040432924
C         9.26982636624770    0.19939598138264    9.58684937896535
H         9.54824032811954    0.47519574781753    8.57978172547275
C         8.74662148230383    5.68711818232418    8.39222836321386
H         8.86945213775556    6.12233597402779    7.39655244512614
C        10.10500877163417    5.57708170797388    9.07514241839895
H        10.59479597652194    6.54992473429436    9.05968616603204
H        10.75719124906359    4.86690065555548    8.57109242507894
H         9.99853235670773    5.27682150059364   10.11521852912023
C         7.80397365831318    6.59295059544781    9.18145028452107
H         7.67704348913207    6.24131962612904   10.20455635933856
H         6.82737339918419    6.62618715419365    8.69110909158589
H         8.19688389328156    7.60727541381087    9.21567077968783
C         8.96872917634031    3.11269003748319    6.90703758162313
H         9.74882189703763    2.60200753384237    7.48293027928601
C         9.62018641382477    3.99849696811994    5.85087132033649
H        10.09781166122781    3.37415750153130    5.09678667857304
H        10.37893781269089    4.64919130489700    6.27858579341710
H         8.86800342318965    4.61428727618485    5.36237010041756
C         8.06911277844531    2.07343997320647    6.24338453669460
H         7.27674768544482    2.58791260694871    5.69487445368828
H         7.61678303799817    1.42634270065620    6.99253990281954
H         8.63214804469307    1.45899550633508    5.54209239091033

