59
CSD_code = AWEVIH | q = 0 | S = 0 | Stoichiometry = C20H32As4FeI2 | MND = 6
I         6.41337361020534    1.42852989102674    9.87630898798434
As        3.32898340197496   -0.21728830935010   10.63157280478465
As        5.62378340435865   -2.01501321424924    9.31889842864046
Fe        4.61418452869707    0.00012114538639    8.68710450812147
C         3.79852826742900    0.58700445372002   12.34645483464168
H         3.74154280737122    1.67694476543853   12.29159340206799
H         4.82226222047842    0.31603802012797   12.61464594782950
H         3.11589278565528    0.22543161831285   13.12021996212617
C         1.40233706779980    0.12339663514975   10.62012513938394
H         0.88863206834094   -0.65876713748385   10.05703760151777
H         1.20118995563092    1.08642861189800   10.13753074172578
H         1.00975238540989    0.15592523808277   11.63956300417861
C         3.41035585109232   -2.09267540512225   11.14679651790412
C         2.53317287685647   -2.65742197706878   12.06274682677089
H         1.75148906923879   -2.04882990054490   12.50691010589002
C         2.64655798787403   -3.99356921822167   12.40429494320948
H         1.95681414516920   -4.43058964126812   13.11212261594989
C         3.64129357222794   -4.77258260801562   11.83568681838977
H         3.72690157657911   -5.81677933447785   12.10041799282940
C         4.52221277655693   -4.21514250627344   10.92570208033668
H         5.29938172093260   -4.82738465557299   10.47860477594130
C         4.41129405480212   -2.87654599626191   10.57461855198625
C         5.94991817724177   -3.44009139166699    8.01844985990168
H         5.00248973480470   -3.88665324042856    7.70917881558326
H         6.59471828442619   -4.21254263874006    8.44502494416724
H         6.44224884504212   -3.02450983173817    7.13208165104751
C         7.27003547120065   -2.13216540517896   10.36019379357302
H         7.17927088524644   -1.52808941823135   11.26586351438619
H         8.11907549448672   -1.75336286942537    9.78580841918783
H         7.45458760209609   -3.17323400115331   10.63877335939780
I         2.81564182862143   -1.42869108882011    7.49761611132928
As        5.89946297896941    0.21727947901692    6.74257724963964
C         5.42998204760570   -0.58698455964197    5.02764699943052
H         5.48685870500702   -1.67692761208383    5.08251124919290
H         4.40627840314650   -0.31595969003494    4.75940879824926
H         6.11263012617325   -0.22552608979831    4.25382852139729
C         7.82612372295095   -0.12341911773497    6.75388882223673
H         8.33985784143985    0.65869495498660    7.31700980997372
H         8.02725038527971   -1.08646118497234    7.23645597393847
H         8.21878669816228   -0.15593550613106    5.73447102871028
C         5.81823116169828    2.09263328719488    6.22716273622138
C         6.69548739968891    2.65736342580057    5.31125696675080
H         7.47714182635725    2.04873911469698    4.86708783581995
C         6.58221011770674    3.99353987019411    4.96976370619090
H         7.27199078137259    4.43054433424706    4.26195621396826
C         5.58750455410737    4.77260429079000    5.53835211018022
H         5.50194338071524    5.81680534119729    5.27362789364776
C         4.70651350670770    4.21518936492824    6.44827771241957
H         3.92933820621180    4.82744976058880    6.89533896457029
C         4.81733987309755    2.87657991943442    6.79931554098461
As        3.60472382276467    2.01514036557428    8.05497066689205
C         3.27866164446553    3.44013135938242    9.35551399928967
H         4.22610959425044    3.88661812952683    9.66484816388105
H         2.63393812982596    4.21262232316651    8.92891178801704
H         2.78625269733958    3.02455025768743   10.24184535773100
C         1.95847591935571    2.13217677255134    7.01370376457895
H         2.04929094922705    1.52809553827270    6.10804026927444
H         1.10948262189258    1.75331970814103    7.58812681714455
H         1.77391044663523    3.17324557315122    6.73515397889019

