61
CSD_code = AWEYOQ | q = 0 | S = 0 | Stoichiometry = C22H34N2O2Ti | MND = 6
Ti       -1.31250752032883    7.96022325315862    1.99054195561521
O        -0.17110985811459    9.06923908305540    1.18413600817740
O        -0.59968236341986    7.15168673330503    3.40571443474134
N        -0.23008164167409    8.06435289831630    0.22862545583640
N        -1.34367512097194    8.12627748503360    4.06289686750816
C        -0.80209311944301    8.57850732709444   -1.02100126202231
H        -1.79933290744303    8.96280587127710   -0.77387979472399
H        -0.91291509473910    7.73846700518044   -1.71574599636429
C         0.02152344436139    9.70179607057462   -1.65529439912430
H         0.26517962311669   10.43754226711387   -0.89001964627080
H        -0.55426599306222   10.18785503990682   -2.43856160699087
H         0.94285810583990    9.32318904502682   -2.09171074017797
C         1.09929488718783    7.47607069266209    0.03758946634019
H         1.83916815898887    8.27686282660363   -0.11506600728064
H         1.06577964465004    6.84504432559364   -0.85739518985755
C         1.50854133162399    6.64080753589271    1.24575911896218
H         1.54373556225841    7.26483813156046    2.14091089100736
H         2.49367086578573    6.20910970430874    1.07926611527302
H         0.79133851209801    5.83625134811449    1.41806467617202
C        -0.44988557900076    8.97698937827009    4.85904505303519
H         0.18932220776588    8.34227080489083    5.49232546884413
H        -1.07210820287551    9.61067226243814    5.49799457156086
C         0.43036334782248    9.85440656180049    3.97875885156618
H         1.09786488768619    9.23952086669024    3.37354580916966
H         1.03218508171592   10.51080935178063    4.60416195848103
H        -0.18330716284508   10.46259270025512    3.31312869968874
C        -2.37398574385235    7.49195907237457    4.89890145805408
H        -3.03174074249480    6.93113240840799    4.22804313837355
H        -2.95419920904517    8.28302893458137    5.38313650873677
C        -1.80820154160370    6.53147174249746    5.94698885702413
H        -1.08271217369504    5.87517721386454    5.46936437769219
H        -2.61096982090904    5.92163198372104    6.35170620549393
H        -1.32937576317032    7.06382499427833    6.76583707712885
C        -3.08073141139279    9.13011128070960    1.94328078639934
H        -3.42692438521879    9.12362056950088    0.89836520539832
H        -3.86033352929796    8.70252048311895    2.58601570088887
C        -2.74167400052789   10.48772242722091    2.36546641071040
C        -2.98408393996083   10.93197989435511    3.67380304691659
H        -3.48821810177574   10.26972450501653    4.36664698848019
C        -2.61722423813338   12.19733499040028    4.08693415177858
H        -2.81705213123987   12.50934137195762    5.10326937271810
C        -2.00926347693861   13.07515222430610    3.20410145829790
H        -1.72179444190994   14.06487607511540    3.52670859086318
C        -1.79652216660540   12.67366747417139    1.89383800772347
H        -1.34812359243782   13.36057473417328    1.18902728891989
C        -2.16288982998240   11.40970918584236    1.47906716555361
H        -2.00508583083532   11.12311417627801    0.44626487620853
C        -2.20935670759177    6.28880926385057    1.02773083819704
H        -2.85008623781124    6.62802019208744    0.20122399981380
H        -1.42174037851708    5.63806140937574    0.62850879291406
C        -2.98763041774762    5.58941764397506    2.04503315273485
C        -2.39634123066389    4.62161972487438    2.87364859761747
H        -1.34825917481778    4.38290065659563    2.73429797278816
C        -3.12031098231863    3.98182402191715    3.85831670012017
H        -2.64013347910696    3.24061611530372    4.48247670203642
C        -4.46322021475623    4.27439550705608    4.04824883578232
H        -5.02912446613652    3.77055987850708    4.81796533571911
C        -5.07447130623550    5.20899160161289    3.22723927737887
H        -6.12520126901584    5.43131027202921    3.35437714322373
C        -4.35368216860179    5.85046700913023    2.23866462730825
H        -4.85129699263811    6.56274239188949    1.59071059183934

