110
CSD_code = AWEZEH | q = 0 | S = 0 | Stoichiometry = C42H63N2O2Y | MND = 5
Y         0.48491430384541    7.57442271333859    3.23379487981434
O         1.42208536476092    8.85830111218528    5.46197495751543
O         2.05113972619902    5.92811523928314    4.68299815274694
N         1.04891139051679    6.29255227518966    1.55787186860472
N         0.51533258100619    9.33047405882726    2.00587732983076
C         0.63523759219552    6.69635168376032    0.21875473080229
H         0.17958483002856    5.83655161898441   -0.30475730462149
H         1.49857544809154    7.01644518398647   -0.39210973196294
C        -0.37404784566579    7.85166129148211    0.19411649295381
H        -0.75514009871747    7.93699094818894   -0.82809691325189
H        -1.22252683055673    7.62908988900619    0.85649324831975
C         0.23817233248645    9.20047512516607    0.58159289255839
H         1.16478719983557    9.34098591681948   -0.00927596413595
H        -0.45557962306428    9.99660532512986    0.25633524883056
C         1.54807312594479    4.97690297376181    1.61350280790062
C         2.89118466285567    4.67993079683811    1.28472849542659
C         3.37452552656400    3.39080789860882    1.45462794011775
H         4.40253879929002    3.16814944272592    1.20767122099720
C         2.56287725414381    2.37337307090492    1.91963161388313
H         2.95930146276432    1.37728054123745    2.05628211426317
C         1.22782903449914    2.63419110030616    2.16025558917732
H         0.57990746358500    1.82166439704073    2.45784245424035
C         0.70515224743086    3.90826634337148    1.99642391840457
C         3.78959427943104    5.73146667660480    0.66930484062642
H         3.35028733112447    6.71068789621085    0.88674011408012
C         5.23079657561673    5.71670978700718    1.18872965395916
H         5.76121721387587    6.59210201275808    0.81686737219361
H         5.76503253904801    4.83782730508070    0.83510987833267
H         5.27559247681299    5.72534282272186    2.27505706731712
C         3.82427384158547    5.52560395111746   -0.85079275546470
H         4.37588872368492    6.33130284658015   -1.33219849038553
H         2.81992506782177    5.49449463553992   -1.26411772035614
H         4.31347340419258    4.58232886896641   -1.08744868511956
C        -0.78907968123920    4.11702037791005    2.12128328065756
H        -0.98198669974200    5.19935661307820    2.08359590636331
C        -1.37726625306249    3.56906792666839    3.42224423635887
H        -2.44910079068769    3.75881967284937    3.45249891561326
H        -0.91874567154781    4.04992731970700    4.28325083474794
H        -1.22733720947062    2.49490504613040    3.50477200937429
C        -1.48718619376882    3.46351347721295    0.92294060885851
H        -2.55671726302079    3.66314728642975    0.95220630811828
H        -1.33609323908253    2.38588864117099    0.93285657691811
H        -1.08877922974773    3.85312100756653   -0.01119511696110
C         1.07254222050378   10.59126136490924    2.29267178202619
C         0.23660810343312   11.71031316484019    2.49298179847915
C         0.79699336954154   12.95349043541973    2.74198284043090
H         0.15528843231638   13.81055946686985    2.88622562483389
C         2.16755040756339   13.12005054821500    2.80483977762281
H         2.59000044376657   14.09701119945155    2.99024486690203
C         2.99284643295011   12.02624704937579    2.62770374363135
H         4.06421266354713   12.16300540134112    2.67494891705565
C         2.46989138268090   10.76788806847533    2.36885757481372
C        -1.26714100733316   11.55345326440324    2.47877436749596
H        -1.48289971155315   10.48161438871704    2.38707901753969
C        -1.89170088321877   12.29592235789582    1.29497428170581
H        -2.96565751599624   12.12211519325756    1.26374237149499
H        -1.45985707547104   11.96023749435772    0.35464302039045
H        -1.71928535247052   13.36672724331436    1.38220143712361
C        -1.88344155140009   12.05417109179733    3.78752499113140
H        -2.94363498454154   11.80937779351639    3.81980379178648
H        -1.78349604185627   13.13316898138908    3.88095240387547
H        -1.39034227352950   11.59199597578746    4.63948007951983
C         3.40596060876701    9.59741947099935    2.16258603321506
H         2.78933778123817    8.68941978316190    2.04953055878917
C         4.32059841938060    9.39546033510218    3.37345059663847
H         4.98200398046230    8.54595601914668    3.20881244139787
H         3.72172732177104    9.20733492371073    4.26263643542054
H         4.93820198729317   10.27410642336025    3.54819315880574
C         4.23246355369021    9.78797169020991    0.88862123516566
H         4.86493592994534    8.92023821735976    0.71139295219619
H         4.86966579663761   10.66621736910722    0.97029848928426
H         3.57961108261091    9.92146618263170    0.02877569874584
C        -1.67929485713863    7.33881697721949    4.16481688366350
H        -2.34367320551354    8.08154290883532    3.69793509257671
H        -2.08030094855067    6.34161477171018    3.94233464585456
C        -1.67277415770156    7.54135315796368    5.62032533313946
C        -1.93300702777599    8.79848383687444    6.18591944882345
H        -2.15761664912759    9.62710132481924    5.52727513285236
C        -1.91798046067809    8.99369567605741    7.55182733027959
H        -2.12290696508894    9.97666722861532    7.95587598964154
C        -1.65621083697855    7.93713542987110    8.41178930975343
H        -1.64602275402631    8.08908425890056    9.48124391294235
C        -1.42956319842271    6.67718430464603    7.87744687860360
H        -1.24977016193135    5.83880626483466    8.53775606356128
C        -1.44473388989613    6.48204580039114    6.51182223518301
H        -1.28780648834223    5.48647807624366    6.11441119175703
C         1.71833327692109    8.33807158215491    6.75391509602015
H         0.79409450175219    8.27329859747661    7.34204715223438
H         2.13688682369687    7.34104191794422    6.63782294365284
C         2.68562368169546    9.34693788306594    7.39037959913259
H         3.72107531926153    9.06200570748970    7.20469438504195
H         2.53496106764989    9.40915996559393    8.46572824649089
C         2.34231033858891   10.66229494520388    6.67071894794704
H         1.99757236711943   11.43222505595817    7.35682819415577
H         3.20236623174363   11.04815655575594    6.12561098642339
C         1.22965078654862   10.25117328249989    5.69625284693510
H         1.27193210375791   10.77099724748643    4.74058605042430
H         0.24641050127205   10.40040236484698    6.16088330024123
C         1.76759619275701    4.67713138368867    5.32538895616799
H         1.03298206121927    4.85926646465504    6.11428124590340
H         1.35289449210616    3.98652335092219    4.58121564587368
C         3.09882088664320    4.14845440094959    5.84648181050354
H         3.09901058492332    3.06598446477552    5.94169544317356
H         3.34047933995720    4.59079699856517    6.81456014108123
C         4.05361442156462    4.65397682353764    4.76976266964543
H         3.99269478859783    4.01557066654948    3.88729654752709
H         5.08675960450520    4.71350665518191    5.10395175552836
C         3.46386245114341    6.02694208535636    4.46263141470942
H         3.87426955909236    6.78790681533653    5.14224240134774
H         3.62195152816624    6.34424075233027    3.43037360607617

