60
CSD_code = AWIGES | q = 1 | S = 0 | Stoichiometry = C28H24Cl2MnN4O(1+) | MND = 6
Mn        2.83339004509362   12.56621108411119   13.47256760588087
Cl        2.44450113909149   10.85086246617912   12.55580583503233
Cl        0.70990962503116   13.76812456920706   11.98365535941513
O         3.06355753056397   14.02545779147344   13.41502564972685
N         1.90141226729034   12.29631240013111   14.95195724860266
N         4.34934760057262   12.12962491611722   14.63149205590783
N         4.89723287613610   12.50703467725106   12.01449924514434
N         3.62971832036312   12.00664249722653    9.03682193403443
C         0.13720094321318    9.91370419999744   15.46651708884859
H         0.64992793084331    9.76542541823255   14.52682850718743
C        -0.32837049022683    8.82754739745600   16.18568816089633
H        -0.17826233829951    7.82828271841537   15.80602892883827
C        -0.99344435973073    9.02289324905598   17.38533232010462
H        -1.36209292151223    8.17578221323415   17.94264273658700
C        -1.18835351615796   10.30662812398052   17.86509345390167
H        -1.70964337804509   10.46406012730307   18.79674175751528
C        -0.71534965209582   11.39538309554921   17.15104164976787
H        -0.87104116832284   12.39571359895714   17.52826504522398
C        -0.05443056774101   11.20398146251642   15.94619401741765
C         0.47126067115068   12.38171092150314   15.14786553281676
H        -0.01822329302829   12.37486030531276   14.16836618359070
H         0.21812957892030   13.32206562481432   15.65941770826918
C         2.62034949957768   12.28072667018932   16.21080462837670
H         2.19431417643824   11.51949486835943   16.87941319102566
H         2.52736309195673   13.25717599862161   16.71868837849769
C         4.05621155913965   12.01589116431559   15.92129455538002
C         5.02687875637956   11.67179548630665   16.86970656087406
H         4.74671082071129   11.59278198681805   17.90777109533587
C         6.31495299651496   11.43569945157665   16.45576024608511
H         7.08104807045569   11.16048803316083   17.16481632670215
C         6.64499997881341   11.55631807670428   15.09309407439003
C         7.95361890353852   11.33378259626740   14.58048932427946
H         8.72822059983696   11.04661892224539   15.27449701713658
C         8.22270647970172   11.47548315498689   13.25747226042081
H         9.21676437078473   11.29818947409747   12.87602718597630
C         7.21004821322383   11.86696914652236   12.33863676953381
C         7.42790805543517   12.03429014550913   10.95588784944209
H         8.40873523010965   11.84669248654263   10.54504671547471
C         6.38984862295610   12.43716288093075   10.15902736086512
H         6.50961360884277   12.56855248763230    9.09590725698354
C         5.12774654504982   12.68957769546893   10.73399588711603
C         5.90298585115623   12.10375128913899   12.81313188162661
C         5.61307857425736   11.92605516746231   14.20018214407600
C         3.97747776191845   13.11847427165416    9.87379411074898
H         4.29510291006689   13.94113185651885    9.22434069678214
H         3.14969310869295   13.46207437773509   10.52140644634041
C         2.46001180403786   11.53079159398751    9.07166362952479
H        -0.24044487394425   13.16520944489557   11.35871832795686
H         1.67707167026293   11.95668289710691    9.72058157624893
C         2.05876836901361   10.40038049343396    8.25755512242028
C         0.75639671945747    9.90784621815807    8.35045814669384
H         0.05542877073502   10.37331160811330    9.02972835698914
C         0.36219252642932    8.83147149630659    7.57900744804561
H        -0.64715156419474    8.45575539348381    7.65418331331211
C         1.26026940663486    8.23667149828374    6.70677617455282
H         0.94888019990205    7.39822359524241    6.10248148843412
C         2.55748930135018    8.71900719428091    6.60834496249561
H         3.25394508779676    8.25427656817276    5.92687831359245
C         2.95724928735056    9.79292856944212    7.37748873766635
H         3.95973866649453   10.18555688230296    7.31379441387082

