66
CSD_code = AWIHIZ | q = 0 | S = 0 | Stoichiometry = C32H26N3O3PPd | MND = 4
C         2.33010668737190    0.60748367601363    7.59796150838532
C         1.30721762296795    0.05937031526330    8.40553855535428
H         0.54170926135455   -0.48881648069531    7.87823128442754
C         1.29231713333845    0.21925629298858    9.77082764792627
C         2.32343754675881    0.94612449337013   10.39733490838420
H         2.29638262496811    1.05825812457922   11.46861215428428
C         3.32160583863691    1.48879267090778    9.64192789156889
H         4.10992982790437    2.04814340877639   10.12518517540209
C         3.37038571002597    1.35057827506842    8.23937971542916
C        -0.72525251417859   -1.00586423916269   10.03821763580253
H        -1.29879370703036   -0.39583424321239    9.33294425611546
H        -1.36338063874335   -1.29252354378776   10.87281215317556
H        -0.36792319838102   -1.90540734894766    9.52672138909596
C         4.45048576492238    1.96599207907996    7.54695554733738
H         5.18118378490135    2.51620427722946    8.13914391963404
C         5.76556721652851    2.45493666462089    4.42362662153922
C         6.88624855986523    3.11720926229578    3.73597375888647
C         7.82474233487403    3.88036398553369    4.42878829217709
H         7.73325037667994    3.98639877413467    5.49841065099675
C         8.84686771351005    4.48109221087211    3.71750213567101
H         9.59342568915601    5.08054134929117    4.21585942545959
C         8.89231185464910    4.29856354336060    2.34183898324671
H         9.67161696877336    4.75118770862202    1.74219814550329
C         7.03498794221356    3.00095526998756    2.35375370142233
H         6.33131127838643    2.41328163152129    1.77897816869469
C         0.60047177896149   -0.55382291153993    4.11274639942224
C         0.20955365419568   -1.85213770090181    4.40722075277870
H         0.86938826696576   -2.67985828080356    4.18879967207282
C        -1.02427024503309   -2.08120035701611    4.99402156780994
H        -1.32794705860130   -3.09185440409466    5.22621442130597
C        -1.86340861194737   -1.02152330125351    5.29341648910802
H        -2.82081283120151   -1.20636415797580    5.75855711586213
C        -1.47132893371085    0.27822834511240    5.00817475340223
H        -2.12160065955424    1.10521120897266    5.25335168929232
C        -0.24198557568223    0.51096662748969    4.42466374981642
H         0.09425966128852    1.52155221773715    4.21761802155260
C         3.08537556446570   -1.67767316812433    3.16672756944744
C         2.72296670599274   -2.57122359454202    2.16360354455329
H         1.90158419983100   -2.33202633393103    1.50273129795010
C         3.41860806456106   -3.75752958824593    2.01154022922092
H         3.13578683233425   -4.45085597304835    1.23305635446879
C         4.47818254900518   -4.05638995812996    2.85325994076808
H         5.01928182553253   -4.98267669937299    2.72974556741008
C         4.84873805560026   -3.16669075578981    3.84955698567382
H         5.67859774133090   -3.40023300914053    4.49997449445762
C         4.15656646618877   -1.97892166794216    4.00665383296338
H         4.44306594638829   -1.26329967531203    4.79201165100137
C         1.85248506051282    0.45967807549804    1.75586571519533
C         0.68643673583668    0.10970130352037    1.08382208593287
H        -0.06729266102181   -0.48482785589741    1.58221937652287
C         0.49120020417197    0.53653257753729   -0.21804500269239
H        -0.41482523389535    0.26664428631075   -0.74105275955544
C         1.45255911985288    1.30822724362069   -0.85071557150322
H         1.29371811439020    1.63809181830191   -1.86676947028244
C         2.61234123955003    1.66414008188570   -0.18006293841928
H         3.35651885163380    2.27251790802538   -0.67228375534853
C         2.81194688022769    1.24425251599527    1.12221093165165
H         3.70348639696272    1.52257897035138    1.66966810304032
N         5.70871186262286    2.56585032901216    5.72582965783452
N         4.63666979142081    1.93010599012129    6.26247074214719
N         8.00878148082272    3.57491778476272    1.67392709674099
O         4.90673787197979    1.80792301903648    3.71090738183834
O         2.23215551821848    0.38519728833422    6.32548876411017
O         0.33761057258473   -0.27792166934876   10.60203351205170
P         2.22870260786739   -0.09055088138426    3.45197444858400
Pd        3.50234050695670    1.04627619422810    4.94254195613383

