71
CSD_code = AWIJOF | q = 1 | S = 0 | Stoichiometry = C33H28N7O2Zn(1+) | MND = 5
Zn        1.55361197314724    1.48933784002708   12.08068087239440
N        -0.41293681001761    0.69053627183281   10.86480521643555
N        -0.34716239111966   -1.75295320228591   13.61396659446213
H        -0.77821641354567   -2.63378575272785   13.38416471377123
N         0.52117237536040    0.26419693054232   13.35508532170069
N        -1.68386356039745    4.00124701476623   11.81788983561830
H        -2.66094132430705    4.10777824923820   11.59694612307134
N         0.27815233164815    3.04461305205899   12.14682563970670
N         1.90230703868523    1.03973457553678    8.01003577567360
H         1.51646056309559    0.65728809514250    7.16186840408200
N         2.04376944380606    1.70912379121312   10.11192172448406
O         3.15724855036542    1.90698721425041   13.08515802866983
O         2.97401071817296   -0.04538756855135   12.12728346717808
C        -0.45922243831196   -0.68773311156622   11.32183384502724
H         0.30875346507728   -1.25034138826886   10.78203264171474
H        -1.43783787000173   -1.16430619824899   11.14189483237967
C        -0.10546583288097   -0.72408832628117   12.77018162004423
C         0.19647156407597   -1.41246477864535   14.83610585511938
C         0.27082024476150   -2.07276818174288   16.05216828396637
H        -0.14845156892126   -3.05686332429543   16.18960217511381
C         0.91723904527650   -1.41055661430656   17.07705302343680
H         1.00352497668980   -1.88932669026211   18.03996695305865
C         1.46969761523612   -0.13869892416547   16.90085723603046
H         1.97140498903262    0.32872413861662   17.73373707751755
C         1.39229156645167    0.52673953138838   15.69540587666595
H         1.82434980017144    1.50217498880627   15.54070256490591
C         0.74488628348519   -0.12686648760716   14.65439994901361
C        -1.49318306421273    1.51882520278033   11.37853936660560
H        -1.89795694627740    1.04605586062461   12.27940595072798
H        -2.31820717374405    1.62854421322138   10.65834290279224
C        -0.95992157598438    2.85857526904368   11.77016119072111
C        -0.84397062330732    5.00047372954318   12.26696392222441
C        -1.02844266461159    6.35222641153737   12.51313624779799
H        -1.98206777066556    6.83232725484553   12.36117997231442
C         0.07154145224288    7.05329322194135   12.96633550240957
H        -0.02663589372868    8.10769063083439   13.17242645676625
C         1.30995381181393    6.43602948072618   13.16870566909724
H         2.13367015153286    7.03364407927301   13.52678008076829
C         1.50014893566045    5.09225511400166   12.92469145641407
H         2.44326063219349    4.59422407072710   13.07958876169871
C         0.40229288359854    4.37395221716128   12.46779696701445
C        -0.16520295245806    0.84311035572668    9.43927069847477
H        -0.77492178540648    1.66604681369274    9.04691869303647
H        -0.43699518550683   -0.06212693397578    8.87914552257928
C         1.27087778801617    1.18318496465840    9.19797735418914
C         3.19169060142407    1.50133415639506    8.17498449690364
C         4.27559742631902    1.59079582681776    7.31599536847729
H         4.21372788673309    1.26507176069312    6.28972577428970
C         5.43912779288855    2.11620829973137    7.84137288202069
H         6.30991427455204    2.20174611796198    7.21029282384886
C         5.51998123942357    2.54150764326975    9.17033921818875
H         6.45353679193549    2.94512858966513    9.53020108659470
C         4.44322411117664    2.45875619375577   10.02795700005014
H         4.49776497322771    2.78321743532643   11.05407724733971
C         3.26656614826834    1.92377505971347    9.51752087267668
C         3.62825632125088    0.75475119125675   12.83773992692579
C         4.93473182198079    0.36488921388610   13.37832068009617
H         5.27131283353546   -0.62026432845255   13.09708484881904
C         5.63353971223961    1.19221222706908   14.16666603933283
H         5.18412323612295    2.15445160995593   14.38334353785960
C         6.92607884692058    0.95308678308814   14.77432550394544
C         7.65894503612713   -0.21915057373734   14.56723353474362
H         7.26384942142543   -0.99250449965582   13.92733276844849
C         8.88743267033735   -0.39605883563850   15.17200738427536
H         9.44294420359482   -1.30647061202885   15.00249936769429
C         9.41166322818807    0.58880870567557   15.99533232692549
H        10.37228594388993    0.44583720992740   16.46639379703777
C         8.69830995314043    1.75716423267230   16.21008780106496
H         9.10288149584528    2.52730647806627   16.84974530732095
C         7.46993100945607    1.93763480348698   15.60554823878209
H         6.91596866586950    2.84999221032736   15.77483179945756

