118
CSD_code = AWIKOI | q = 0 | S = 0 | Stoichiometry = C56H53N5OP2Ru | MND = 6
Ru       10.67561922357400    8.10035774451338    3.99141437890006
P        12.29253042323502    8.14861434704033    5.64811334539740
O        10.67527787057133    5.10184292779414    3.99162677860834
N         8.27380591316235    7.84331434628658    6.00692629164145
N         9.15961724717576    8.52998978336684    5.32974967773756
N        10.67553840192735   10.10614585250529    3.99123618273734
C         7.47249177030884    8.71099723371780    6.65134945574533
C         7.87219040696234   10.01359064226385    6.37400719933317
C         8.96348879063972    9.86351123379690    5.51318020023232
C         9.80746587084667   10.75843104295123    4.77675649264739
C         9.78468021538453   12.15411039878821    4.79713712382164
C        10.67561059923979   12.84249847616779    3.99125447154913
C         6.29848224004086    8.21944772641360    7.44887550258617
C         6.73812405168714    7.04292959017823    8.32391410614193
C         5.22093445042501    7.74684688294929    6.46229600812306
C         5.73318469496862    9.33429045562008    8.33022336092624
C        10.67556213353769    6.25330286095740    3.99143444050198
C        13.60981449371567    6.88650854062657    5.61005897460516
C        13.82210167027098    6.12555423794429    4.46588274935032
C        14.83338027972953    5.17988541104723    4.44488548907566
C        15.63284459352432    4.98703350345494    5.55842904761223
C        15.42662792810109    5.74882962189501    6.69796964839312
C        14.42058120359258    6.69579979892644    6.72667330691225
C        11.70305628979691    7.94543245308300    7.35816598398807
C        10.76758752580266    6.93153400653877    7.54978287836969
C        10.30242831930120    6.64624934803970    8.81903308193125
C        10.75845480357562    7.37760974570514    9.90408343826185
C        11.69395285521969    8.38176451422021    9.71893609772563
C        12.17561992378709    8.66248387503992    8.45215945104453
C        13.25534350348513    9.68971496721120    5.64517463651688
C        12.71568235531504   10.85062467068549    6.19597077343505
C        13.38032104894503   12.05501552890856    6.06180971757622
C        14.57636205229299   12.11414908215640    5.36457415462339
C        15.10843111209467   10.96576122601242    4.80175169049464
C        14.45122293555696    9.75674087626460    4.93613677507238
H         7.45033193443256   10.93422787503470    6.72314152992569
H         9.08168811163573   12.67034095648435    5.43039922722368
H        10.67589569060485   13.92305575140290    3.99155526079389
H        13.21707554552094    6.29574272488835    3.58456478597322
H        14.99518242369752    4.59059146797214    3.55425974085714
H        16.41824990464426    4.24568832927287    5.54064344046558
H        16.05129838571397    5.60283471986560    7.56730135236815
H        14.25959052784718    7.28636369297894    7.61794680684669
H        10.40550461613732    6.37879528180801    6.69131139756006
H         9.58257626002852    5.85517481073132    8.96290086559091
H        10.38827791948105    7.16349454639510   10.89615695815787
H        12.05719908447076    8.94657743107613   10.56570588807853
H        12.91925109471516    9.43674127217668    8.32044331562869
H        11.76886049305655   10.80645192037721    6.71998546772633
H        12.95815713521230   12.95184522577133    6.49192796766121
H        15.08966820628483   13.05815724885223    5.25468283596326
H        16.03497765050466   11.01362442926992    4.24853752699599
H        14.85483266521705    8.86128671834845    4.48355821618328
H         5.88475092050284    6.61894811252132    8.85019418694255
H         7.19292318289374    6.27730656656708    7.70197476471912
H         7.47169509167041    7.37506590150352    9.05557601930823
H         5.62150053799362    6.96559141705962    5.82070717882073
H         4.35778239716693    7.35657564337827    6.99840817545199
H         4.89293174634940    8.57340498347172    5.83385674486742
H         6.50256590890358    9.72295784497555    8.99434847754715
H         5.35316549890717   10.15285765567357    7.72292378054747
H         4.91453118059352    8.95140916475155    8.93683205772646
N        13.07737594367627    7.84340982544824    1.97549941292840
N        12.19158525182364    8.53001393637161    2.65282688402492
C        13.87864760028152    8.71112416265370    1.33108049083177
C        13.47895197770633   10.01370604771006    1.60856175228729
C        12.38767078219570    9.86353023251273    2.46937415582172
C        11.54371475564974   10.75843090679303    3.20580014242935
C        11.56661742532366   12.15410350220330    3.18547685064439
C        15.05273343677461    8.21981993809341    0.53348331123944
C        14.61349623502201    7.04303751714140   -0.34141737086903
C        16.13076655164696    7.74775204784311    1.51980374444113
C        15.61736661380411    9.33486193890643   -0.34800868963412
H        13.90082017886465   10.93437858610071    1.25953737294291
H        12.26984601215049   12.67028760142554    2.55243611108824
H        15.46694858416559    6.61940943480517   -0.86787602896808
H        14.15919117093095    6.27724067815502    0.28066495060931
H        13.87959563960045    7.37479519184115   -1.07291189934932
H        15.73072517958447    6.96627148767907    2.16141789176883
H        16.99408158195550    7.35793245756057    0.98358595982458
H        16.45845066896984    8.57441922990229    2.14825222284298
H        14.84774878160024    9.72304881248608   -1.01214230470532
H        15.99716790074020   10.15369452384798    0.25909276314704
H        16.43607542595931    8.95217870333358   -0.95462241284619
P         9.05886890131280    8.14874061759250    2.33459506487814
C         7.74137710995516    6.88683807185913    2.37243684717155
C         7.52892051832577    6.12573695824673    3.51647970164346
C         6.51754238610037    5.18016666761789    3.53729661799909
C         5.71813126981937    4.98748610533419    2.42365770170984
C         5.92437429416164    5.74958448231490    1.28429929240759
C         6.93054503691166    6.69643774448262    1.25578981600777
C         9.64841727178119    7.94516698209733    0.62460941027722
C        10.58405040317154    6.93135431319448    0.43340427657389
C        11.04958373526705    6.64589904810745   -0.83566449879839
C        10.59373793183443    7.37697994052651   -1.92097562280281
C         9.65763489728027    8.38066440524700   -1.73632367725637
C         9.17562783476356    8.66159240095083   -0.46971432948466
C         8.09609291236186    9.68987636614094    2.33699556455665
C         8.63587332363250   10.85068092535678    1.78610468791529
C         7.97140613289565   12.05517206133600    1.92017516189791
C         6.77523106536112   12.11449059382113    2.61716710158660
C         6.24316615560174   10.96626317326615    3.18032010699350
C         6.90030327776520    9.75718210749190    3.04615451875465
H         8.13417856375721    6.29550933411641    4.39770961918881
H         6.35587174883830    4.59047934470771    4.42766713723363
H         4.93248849132811    4.24640775138636    2.44140817908452
H         5.29933565714389    5.60412224698741    0.41512556606878
H         7.09126237314219    7.28748552088338    0.36478001250174
H        10.94635292047192    6.37914081192203    1.29212897412340
H        11.77005020055449    5.85531372359524   -0.97910066071055
H        10.96430209214731    7.16280415535732   -2.91288831269787
H         9.29480489127734    8.94548330588322   -2.58327436764834
H         8.43215979447802    9.43606927707346   -0.33827099455147
H         9.58266664986900   10.80636838831084    1.26207050897987
H         8.39358499790633   12.95188474301035    1.48986560401036
H         6.26221231765493   13.05862047813145    2.72723292264655
H         5.31659324884298   11.01430846867302    3.73346704427553
H         6.49649258392138    8.86181807653543    3.49873883348191

