125
CSD_code = AWIQEC | q = 0 | S = 0 | Stoichiometry = C60H60N4Pt | MND = 4
Pt       10.95530155753311    2.48104068992306    6.00096809738237
N         9.98131423180927    2.47330616028993    4.24075007390425
N        12.71325965854348    2.40256158482701    5.02909472645304
N        11.92905144771860    2.48617168025377    7.76069278816113
N         9.19776674730057    2.56246536044080    6.97343968835420
C         8.62914253014953    2.51205109505807    4.05402101187401
C         8.32977210101178    2.49416675823072    2.65140227467563
C         9.51157935004819    2.42599370338965    1.99778334149667
C        10.54133540382871    2.42530963833587    2.99625206990936
C        11.90146080813992    2.37648611525920    2.70593611657108
C        12.89877227997482    2.38150789910273    3.67673259131202
C        14.30106196537362    2.40778053444093    3.37614272309440
C        14.95631761336704    2.43306889203591    4.55867687195401
C        13.95847993124805    2.41810881168204    5.58901995707215
C        14.25142909263357    2.44343112283344    6.94933221415639
C        13.28166636392049    2.47157583688596    7.94712726747261
C        13.58066023247311    2.47080886422400    9.34989882358561
C        12.39761182345689    2.49854087095016   10.00429215306981
C        11.36815957830595    2.50047054506396    9.00552459632407
C        10.00764628224955    2.53332212566035    9.29674742044135
C         9.01080947450689    2.55848737548859    8.32600245367849
C         7.60783317723899    2.54989092691447    8.62444074384697
C         6.95391986477384    2.56483852489207    7.44098666578906
C         7.95337875109753    2.57923288744364    6.41219219211851
C         7.66060663193537    2.56860937746789    5.05162936062027
C         6.23928809137060    2.61422203225759    4.64848021095662
C         5.64220175025043    1.53828304746031    4.00105478082393
C         4.31172184999084    1.58917304301568    3.63638036063745
C         3.52633968028794    2.71101318255733    3.89307635044612
C         4.13265491066402    3.78221243020955    4.53798652476798
C         5.46355667413152    3.73506608618331    4.91318044517095
C         2.06614022040825    2.71696125175610    3.46916843181830
C         1.98414395201266    2.51322043082504    1.94973797759681
C         1.35673497148225    4.02965939412088    3.81250509556599
C         1.33356697834425    1.57480993696894    4.18746365892688
C        12.31543867388424    2.32163594017435    1.28824811350147
C        12.06976915610349    3.38261852425129    0.42712623290615
C        12.46694635052468    3.32800761694911   -0.89734423364397
C        13.11651477975374    2.21211447310668   -1.41097957130932
C        13.35462839398986    1.15108129257226   -0.53992437581603
C        12.96792544392806    1.20176203146522    0.78403182586601
C        13.56811159538955    2.10765445142485   -2.85904859811920
C        15.08837553029132    1.89631250349864   -2.89530521228347
C        13.24247327653157    3.36373469742373   -3.67168681564410
C        12.86089649406700    0.91458365329254   -3.51753182295092
C        15.67284347694142    2.43859420946191    7.35397367798441
C        16.48505960006087    1.34489606326679    7.08519256459186
C        17.81639026520939    1.33958964539445    7.46183132204117
C        18.38663469267600    2.42679434188845    8.11283959271886
C        17.56435171776600    3.52051833096308    8.37527725447439
C        16.23346384315757    3.52966721270005    8.00888043370773
C        19.84549327020114    2.46610298904622    8.53946031410327
C        20.60066460769387    1.18363842983350    8.17990644007528
C        20.53988381059972    3.64247808111791    7.83872238954785
C        19.91699171333459    2.65212287009196   10.06168649291693
C         9.59705517494330    2.53952333476691   10.71655323984094
C         8.94756554053999    3.63938218618915   11.26620281808531
C         8.56840658477890    3.63982758790274   12.59352865315550
C         8.81160644153668    2.54676661396762   13.42252599922217
C         9.45843441818788    1.45127377947932   12.86349075193281
C         9.84815159515988    1.44702191192108   11.53586752446153
C         8.37057483381307    2.59646158063009   14.87676892198755
C         9.08809121873201    3.75995210815106   15.57573354919817
C         8.69663536943599    1.30811462563539   15.63717489414585
C         6.85157554644967    2.81181195041559   14.93314835099500
H         7.34271350549268    2.53156026948566    2.23447743315794
H         9.68260584922285    2.37790996665883    0.94048865091080
H        14.71573624661369    2.42381419931865    2.38751756605828
H        16.01388068310752    2.47391772509564    4.73005629154861
H        14.56836827261796    2.44670395289472    9.76631048664473
H        12.22548315605746    2.52081437301469   11.06228844010139
H         7.19144123209636    2.52025504467979    9.61200866678870
H         5.89602870116560    2.54926542667552    7.26723534721651
H         6.22628883103516    0.65291658764147    3.79483014629065
H         3.88278789174718    0.73054038149947    3.14165539161645
H         3.57440438868760    4.67682356908771    4.76111916213723
H         5.91175729601960    4.58307556218091    5.41084334583191
H         0.94611188717369    2.53449503489049    1.62446460128896
H         2.52363275433402    3.30551054157654    1.43470939758749
H         2.41336499992357    1.56033697152990    1.65299603826139
H         1.35772065466773    4.20679061500873    4.88554239835458
H         1.82769762068568    4.87192135245339    3.31085293234076
H         0.32108427677176    3.97870972357420    3.48227142059044
H         0.28198410206864    1.56993563157309    3.90830459773650
H         1.75829343999110    0.60824137882511    3.93107734928221
H         1.40392532961617    1.70250107208367    5.26577880173549
H        11.57254080839332    4.26533938680549    0.80299761287481
H        12.25879194202175    4.17965207486506   -1.52440615758814
H        13.85332839128510    0.26148133337791   -0.89468680778025
H        13.16281994664397    0.36322461848613    1.43705079511977
H        15.37403686788050    0.97822948798356   -2.38949984260703
H        15.43413615538034    1.83875867124451   -3.92529282728978
H        15.59482198929323    2.72648296244776   -2.40702169935314
H        13.73925533083589    4.23787261475137   -3.25699413026773
H        13.59054598053332    3.23361389094703   -4.69450390544660
H        12.17030762273370    3.54338039505294   -3.70303591608122
H        11.78179990231904    1.04906697986913   -3.47853571181207
H        13.16079263505410    0.82987909370129   -4.55996959598752
H        13.10579448110377   -0.01761921051046   -3.01610453610751
H        16.06536334474517    0.48467148507639    6.58362842479909
H        18.40382183914204    0.46479773337908    7.23504007235770
H        17.96402434177100    4.38971903903167    8.87600994498554
H        15.62013838962315    4.39391135122170    8.21974157077154
H        20.16092462079155    0.31917415426012    8.67202569761130
H        20.60419660442999    1.01942930402528    7.10481624805587
H        21.63433291155552    1.26751141478922    8.50960102223072
H        21.59128469061057    3.67602785869969    8.11654539598303
H        20.47167783598271    3.53014902167645    6.75859346442317
H        20.08563090295751    4.59094309663364    8.11146220486729
H        19.40694246063756    1.83308639928218   10.56474156375560
H        20.95447719911376    2.66585115265416   10.38910138681188
H        19.45108989044436    3.58392530863496   10.36995858721194
H         8.74954910080055    4.50221108307783   10.64663084499469
H         8.07190720431571    4.51525330606422   12.98475833215476
H         9.67104684416778    0.57696217373636   13.45687724206281
H        10.34494233115253    0.58006605342422   11.12449174120441
H        10.16618759673196    3.62255931916203   15.52268447104870
H         8.84355929765966    4.71209099196787   15.11305443007458
H         8.79703919313806    3.80513382752503   16.62309541496417
H         8.35527051004755    1.39877964507299   16.66652654140289
H         8.19410372511890    0.45281741610437   15.19120046636055
H         9.76832205052488    1.12378675717086   15.65492698021249
H         6.56599528424087    3.75366329545390   14.47314030858138
H         6.33875927086570    2.00729818032815   14.40991274908217
H         6.51298999366104    2.82218769929894   15.96703836325219

