57
CSD_code = AWIZAJ | q = 0 | S = 0 | Stoichiometry = C28H22BrCl2N2PRu | MND = 6
Ru        9.10740077327065    8.21152302970161    7.33294360433354
Br        8.08772624297380    9.47410918765880    5.26148481528667
Cl        7.60034195404897    9.24282827149605    8.83943800802889
Cl       10.71129840890341    7.28998503395963    5.78644713711869
P         7.57954010892176    6.65420021085275    6.57999118489201
N        10.52173108054745    9.50020202578898    7.80834219393576
N         9.93714778369725    7.23481649942623    8.77923527102069
C        10.67735566636666   10.72281020055957    7.31232184508863
H         9.85647804963224   11.12027668471889    6.72880023415845
C        11.81602320920147   11.47691439163290    7.52049209024534
H        11.89129171894674   12.46304264174325    7.09152599919658
C        12.85071555801104   10.93830436333701    8.27502677268450
H        13.76245930573258   11.49130504516300    8.43828921904065
C        12.68288924668719    9.68068017153457    8.82192504019702
H        13.46089465362747    9.23629912056267    9.42103950179514
C        11.91578878679629    7.01662327775456   10.11262307800322
H        12.88658883318875    7.39446290058869   10.38835176245714
C        11.42380334684046    5.86308050980358   10.69125217831992
H        12.00769707728006    5.31624848670055   11.41419248444981
C        10.14706261322496    5.44117176931604   10.33629215192079
H         9.70153956977037    4.56858479912225   10.78580202303004
C         9.44816046973753    6.15351598104311    9.38587708559827
H         8.45063654900115    5.85016403163968    9.09254216987179
C        11.14963621398057    7.69958706460598    9.17121125774943
C        11.49975388279252    8.98398537749529    8.58493937529049
C         7.61886094439294    6.71158556047098    4.74959997359767
C         7.84855293849287    7.93625899026004    4.13135941460295
C         7.91592378621498    8.07042946576650    2.75897532097659
H         8.09921866504935    9.03695447205591    2.31716550578260
C         7.75689472818056    6.94077707707526    1.97161296749391
H         7.81879062325515    7.02853814046374    0.89777689055090
C         7.52777171071875    5.70856963791139    2.56053083429264
H         7.40767723439497    4.82957818496494    1.94529765568986
C         7.45706288054473    5.59388764547563    3.93843318354338
H         7.28259547494828    4.63057758875504    4.39532205468792
C         7.74079303956537    4.86253260780875    6.86154196726153
C         9.02364486723730    4.32796380364375    6.75020902715281
H         9.84885982458148    4.98420653501190    6.50402269036278
C         9.22911186540085    2.97599509683757    6.94624812466998
H        10.22306563216697    2.56374245377449    6.85466552421046
C         8.15983862056138    2.15135821220249    7.26180080829610
H         8.32001400145037    1.09459045633793    7.41753420657949
C         6.88526331199157    2.68083074154971    7.37754144024219
H         6.05226880985505    2.03769771026231    7.62167797548054
C         6.67034967006125    4.03416130821210    7.17932977659556
H         5.67458893585082    4.44556822015833    7.26879091583931
C         5.82304781133005    6.98393687212825    6.91883423401362
C         5.43757242487107    6.96527365403249    8.25809446918272
H         6.16964250474733    6.73370725045745    9.01990682384647
C         4.13629629746937    7.26529499398938    8.60951361170792
H         3.84415375719418    7.25600995975092    9.64896161843429
C         3.21322119952390    7.59487717757723    7.62944684348025
H         2.19769626940795    7.83918961090521    7.90443253204274
C         3.59423015638211    7.62219233559514    6.29881976346490
H         2.87732017193370    7.88626458192883    5.53490723230823
C         4.89646139086361    7.32101297228841    5.93889361267024
H         5.18594934834038    7.35031560633151    4.89666651700767

