89
CSD_code = AWODEV | q = 0 | S = 0 | Stoichiometry = C46H36O2P2PtS2 | MND = 4
Pt        5.52433958540291   14.77618667156465    9.78196875150680
O         5.15814681178220   17.34303371429375    8.27440919972159
O         3.16736656269084   16.95504558693360    9.62465612496802
S         4.24343879846510   16.35865976391137    8.87108272703476
C         3.57094396091727   15.49271890003514    7.41219978007754
C         3.45857777808140   16.26365859565718    6.29085413553629
H         3.65229783597407   17.32183613238871    6.37352241502404
C         3.14149684753100   15.67987735719067    5.05909807772017
H         3.04037097451644   16.30225980223235    4.18251014907474
C         3.01015462962974   14.32212389509358    4.97341623158732
H         2.81796349936630   13.84852457477563    4.02058183283349
C         3.11827802802549   13.49991168273746    6.11481255576418
C         2.96717763873211   12.10159783509087    6.01632723379668
H         2.78179233188552   11.66839800462676    5.04385877052738
C         3.02712399671961   11.31516238659145    7.13413311450647
H         2.91253769172598   10.24348660429244    7.05881058954420
C         3.20330392688323   11.89484207383589    8.39170556897806
H         3.19429962483813   11.27933692169563    9.27878507522827
C         3.36218079385027   13.25826566165798    8.53858825778192
C         3.36456841142066   14.10027874601216    7.38563709762752
S         3.38655273158404   13.89355470307910   10.17625855937412
P         7.27102237973189   16.04184450184627    8.91895907375613
C         8.98018867870424   15.40704109519590    9.12261729259318
C         9.55886178835329   15.51670168241967   10.38473607847291
H         8.98824300984917   15.95803662356587   11.19061594954371
C        10.85136563279305   15.08419687247265   10.60573981603640
H        11.29155138360078   15.18144790236910   11.58761613677762
C        11.58403291105322   14.53398116663240    9.56588254770813
H        12.59969475698962   14.20694844979279    9.73260296318992
C        11.01045697880669   14.40555736537680    8.31297370227673
H        11.57697567837017   13.97389976646206    7.50079032564942
C         9.71367915435515   14.83490186286945    8.09089648119954
H         9.27516876389988   14.73449362355648    7.10843328081029
C         7.53696910021216   17.71391314920849    9.56737024024049
C         8.62670564147738   18.47218960383712    9.15397077152514
H         9.32287838850468   18.06611218191795    8.43196045653303
C         8.82188400322554   19.73754685221598    9.67798241578314
H         9.66134958206755   20.33240975935491    9.34775246337502
C         7.94492517759920   20.24067582103882   10.62521861561449
H         8.09900373470365   21.23054673679524   11.02926639861555
C         6.87315647674664   19.47530707602839   11.05657290446586
H         6.19233764093602   19.86632822634499   11.79800607166648
C         6.66902396900083   18.21292561646232   10.53145416912327
H         5.81785749021412   17.61892793774614   10.84230101249672
C         7.09462808980235   16.01776632376317    7.11396563844664
C         7.35100024685901   17.08522010140893    6.26657881913534
H         7.68519200974686   18.02737540456630    6.67309435584593
C         7.12712717111549   16.94479677931852    4.90816208137208
H         7.31330253328097   17.77872718052368    4.24690700442572
C         6.65812981610734   15.74750231693123    4.39167806231500
H         6.48264901288821   15.64926129088290    3.33050937252919
C         6.39850942715514   14.68097668706492    5.23681275236660
H         6.01895855976827   13.75054840578871    4.84065796802215
C         6.60940412433438   14.82086090363781    6.59504098927627
H         6.39443854975855   14.00141346803125    7.27776500705282
P         6.62919844152955   12.93049116656064   10.73036266251406
C         8.02970997916074   12.20561995575058    9.82850046222053
C         7.75629013827198   11.78651875975904    8.52673031238125
H         6.74798045368765   11.89179638240005    8.14320130291297
C         8.75173834022119   11.23458666133868    7.74529642312263
H         8.53289015083754   10.91050615763808    6.73843658119766
C        10.03205556350483   11.09671371668573    8.25859673240387
H        10.81261752673454   10.66198501933603    7.65214489330514
C        10.31059483720695   11.52052642914192    9.54659339590591
H        11.30910842963239   11.41623717183903    9.94449489254521
C         9.31717268606118   12.07994864781911   10.33140287365442
H         9.54551659434449   12.42317864086842   11.32915190104137
C         7.26164148836614   13.43128042562878   12.35659155731381
C         7.84103701801129   12.53039914357025   13.24486942462227
H         7.93021935561856   11.48818210435365   12.97007723880672
C         8.28403117339991   12.97189221799090   14.47838224151721
H         8.73796304629524   12.27502689626669   15.16772986807162
C         8.13977423959065   14.30380384630595   14.83581498265060
H         8.48696333711209   14.64158596277682   15.80102564061725
C         7.53668511519198   15.19768559450592   13.96560137920750
H         7.40683278630208   16.23055186765148   14.25308891265335
C         7.09576950447438   14.76064416849407   12.72988283145765
H         6.59913519304513   15.44004127410560   12.03638810232730
C         5.62757991557852   11.48300720373376   11.18544345578288
C         4.62601518691558   11.70983029426600   12.12931694595723
H         4.52024531736404   12.69461241623987   12.56297381008150
C         3.77260112629617   10.68696444095296   12.49392351621624
H         2.99481567892634   10.86923005408089   13.21999807621052
C         3.90689991738020    9.43344506634510   11.91748869769645
H         3.23475779802624    8.63516835207438   12.19580184543308
C         4.90131261837325    9.20508805583661   10.98099364265609
H         5.00757374834759    8.22811126230843   10.53199044290543
C         5.75990694155412   10.22566661889207   10.60928773766917
H         6.53108203069842   10.03943167553145    9.87570975036431

