90
CSD_code = AWODIZ | q = 0 | S = 0 | Stoichiometry = C46H36O3P2PtS2 | MND = 4
Pt        2.10832193778623    0.00069106894635    3.69857072854925
O         1.14707824795503    2.18508408284782    1.65952290752541
O         3.54329234379520    1.59585815096764    1.50535066637460
S         2.35099729033313    1.74206194933253    2.34023188607518
C         2.75234821757937    3.08835066175640    3.49364319490336
C         3.85495048457792    3.84677944992699    3.22030911497450
H         4.46199743638131    3.57783047949161    2.36911149451706
C         4.17736829693643    4.94401344425325    4.02868333965775
H         5.04714092234165    5.54140774920970    3.79889930459738
C         3.38648536010221    5.24461598309647    5.10262584881203
H         3.62032549724155    6.08827264426763    5.73700454348809
C         2.25080880867392    4.46898455144100    5.41862441058423
C         1.44176265420875    4.79011382225485    6.52804937261865
H         1.69955467242282    5.65497779918739    7.12240259879489
C         0.35105502518992    4.02633986980989    6.83761249436860
H        -0.27396151044433    4.27316325925543    7.68280767193345
C         0.03461901356679    2.91658242768424    6.05158469851885
H        -0.81315142578910    2.29520153335511    6.29879885553635
C         0.79158837184567    2.56994054900060    4.95865103763793
C         1.91684356607969    3.35248090090783    4.59482214627240
S         0.14704417484701    1.15561119861623    4.05608765782084
O        -0.62047887108639    0.41099594950770    5.09742511608477
P         4.04440412672731   -0.87343172268582    2.61100607774523
C         4.33451797318502   -2.64960792118546    2.93156710128990
C         3.18121738246642   -3.42972627691578    2.93871139926120
H         2.21760344091459   -2.93389025674649    2.85672760311398
C         3.26348166498573   -4.80276351391267    3.04853433825254
H         2.36568209316110   -5.40316515645894    3.03694695604464
C         4.50350310477304   -5.40918281318957    3.17737907707922
H         4.57409541568758   -6.48316116236544    3.26557867024924
C         5.65186144350983   -4.63722891164540    3.19248669400919
H         6.61790812470290   -5.10952022208967    3.29648094218220
C         5.57314434813941   -3.26138624332917    3.05821473573153
H         6.47599726298585   -2.66778042730918    3.05139621625429
C         5.67272244719871   -0.11451901858243    2.81432143230385
C         6.26768374407956   -0.26088339918561    4.06777917670122
H         5.77103096430617   -0.86404484248861    4.81849837909051
C         7.47574898212401    0.35213447978795    4.33864789692481
H         7.93810380321297    0.23255619643284    5.30798992438817
C         8.08939100085116    1.12790014029816    3.36683481155296
H         9.03239288967619    1.61031139667196    3.57863323565582
C         7.48697623353078    1.29512305041729    2.13018936763552
H         7.96052237712277    1.91215728931774    1.38041110488685
C         6.27829079111363    0.68218639991192    1.85013532867049
H         5.78253414272910    0.83991458629213    0.90525561673681
C         3.67967443062134   -1.06951381175710    0.84407534960158
C         4.66068655020503   -1.44105090381625   -0.06681311079309
H         5.67919527897015   -1.58550748227655    0.26673882712030
C         4.32811985000364   -1.62288530424000   -1.39718532084235
H         5.09251317823377   -1.89882671302216   -2.10933171426779
C         3.01933447950773   -1.45126976823499   -1.81762488634507
H         2.76643959351954   -1.58552251592879   -2.85914423691140
C         2.03486270632527   -1.10964424201672   -0.90426146174963
H         1.01402361391708   -0.97880270592022   -1.23059857010004
C         2.36243877605739   -0.92536159802954    0.42544155813240
H         1.59826570703992   -0.64104776422642    1.14500350544845
P         1.65940753078875   -1.33155858716169    5.54947873664000
C         1.65694891816194   -0.09064957476043    6.87692332669870
C         0.75048462498978   -0.02622399555301    7.92389176463325
H        -0.06100668640169   -0.73458452801359    7.97967605990521
C         0.86535346774884    0.97932032781579    8.86895054564799
H         0.15296673800265    1.03453111948176    9.67912541688140
C         1.88101648484761    1.91628711437196    8.77930090713017
H         1.96747878830117    2.69353388548743    9.52392265973445
C         2.77257149115469    1.87291709145011    7.71960589949992
H         3.54723211929907    2.62018199617654    7.62805893960831
C         2.65075750673556    0.88273621621608    6.76420956197628
H         3.32397699177105    0.86490223511660    5.90538749422215
C         2.89443616638655   -2.52738618677797    6.17306786066185
C         4.09508658783620   -2.07929614723374    6.71682474832032
H         4.25589694742493   -1.02121457357293    6.86276587491209
C         5.07719403904155   -2.97799462547589    7.08866190244416
H         6.00439817377090   -2.61602999776364    7.50894045979849
C         4.87495084317737   -4.33822470120840    6.92476485070106
H         5.64280039669930   -5.03978788179184    7.21429337680366
C         3.68191866404908   -4.79306025783361    6.39091613064614
H         3.51573951182854   -5.85259885335288    6.26474606161866
C         2.70156167252840   -3.89578847405035    6.00980243256049
H         1.77706029208894   -4.25924300008881    5.58615508132342
C         0.12993663477081   -2.29640024603963    5.58378819229538
C        -0.29940270423754   -2.98881640534521    6.71101415134273
H         0.29546810978145   -2.97349067098040    7.61428788717840
C        -1.47712617984091   -3.71298523322406    6.66283050920491
H        -1.81818263281518   -4.24337335951171    7.54026811236517
C        -2.21858594995749   -3.76027056098349    5.49310719711214
H        -3.14010093943051   -4.32300471350808    5.46365717988911
C        -1.77794417195407   -3.09300985879153    4.36117026887488
H        -2.35374027818093   -3.13827762032632    3.44885369556324
C        -0.60439923386450   -2.36493240320077    4.40528357734708
H        -0.24941236072683   -1.82162389605994    3.53542402141280

