88
CSD_code = AWODAR | q = 0 | S = 0 | Stoichiometry = C46H36OP2PtS2 | MND = 4
Pt        2.20078482407369    7.51783870215905    2.86945917387690
S         4.41565069037805    8.01316074248020    3.12418609189994
O         5.18550646113922    6.84938955372532    2.60849989294501
C         4.16741118224975    7.65693760508524    4.87888294512195
C         5.02007053015304    6.71091305871208    5.39921850296502
H         5.71521159089023    6.22805949658250    4.72708604537607
C         4.99184319655057    6.37901384059040    6.75474848601189
H         5.65533274962658    5.61311881607306    7.12951129920429
C         4.14359237781947    7.04435036997599    7.59627368815074
H         4.11971237550625    6.81217947136175    8.65157731120072
C         3.29569277548013    8.06484269360475    7.11671499130994
C         2.47763606176796    8.79079401141602    8.00645120034851
H         2.50687293878147    8.53773915830469    9.05643073932424
C         1.68347772768856    9.80672532561009    7.55070676075677
H         1.07460304467772   10.37917884834330    8.23515809118743
C         1.63381478215935   10.09796337519851    6.18855027959242
H         0.99010256951439   10.88402223190182    5.82455899655439
C         2.38086772478513    9.38262602753668    5.27638493650403
C         3.27634887579179    8.37037237776893    5.72452821024684
S         2.20162201239024    9.79017332159033    3.58881373316094
P         2.87237465983971    5.66431336005486    1.63611506828371
C         1.55409116493335    4.82794716551562    0.68153836622483
C         1.27019719079989    5.11557561780196   -0.64833946779105
H         1.88194186827151    5.82393683357645   -1.18952717279303
C         0.20833455297337    4.49458210095609   -1.28271829565616
H        -0.00067647884968    4.71734151801200   -2.31910065081299
C        -0.58437435242615    3.59135119875150   -0.59599906125239
H        -1.41668858704584    3.11467872771716   -1.09232570660336
C        -0.30205316937313    3.29453325457730    0.72787641038479
H        -0.91078898162354    2.58296728156189    1.26645299613575
C         0.76211563672945    3.90590832940407    1.36064302880205
H         0.99610262412734    3.66709580157043    2.38940629616150
C         3.87467266037602    6.39587857007599    0.30832217375947
C         3.46368535276487    7.66101597979137   -0.10839922252342
H         2.60966169287266    8.13396187823978    0.37909885752037
C         4.14764871982292    8.32258094888898   -1.11011941398087
H         3.82867261664394    9.30575423889388   -1.42383689514354
C         5.25079570784394    7.72569888919736   -1.69923380683006
H         5.79251863303020    8.24189170255877   -2.47825139222985
C         5.67121286790373    6.47624427970104   -1.27465760078344
H         6.54519190063321    6.02233792080465   -1.71906666782573
C         4.98854073869697    5.80833986388607   -0.27287788690932
H         5.34520114300527    4.85317618924843    0.08061146402558
C         3.71815781384007    4.18648605068859    2.26574155483586
C         4.02711056789805    3.12760277686873    1.41644894446229
H         3.75757589152307    3.17807883965471    0.36998997953446
C         4.65876750805145    2.00526548536201    1.91886424087005
H         4.90836719527114    1.18805815326617    1.25736158604374
C         4.96800548827061    1.92341666207866    3.26781162372244
H         5.46556287764253    1.04565493089013    3.65372717229121
C         4.62865162713872    2.96042103389217    4.11988875646063
H         4.85390290186325    2.89195104897826    5.17428903166418
C         4.00097756269872    4.08700766554675    3.62020788875203
H         3.72983722564642    4.90007904267411    4.27662569493689
P        -0.10640805006099    7.16332487868688    3.30407819652885
C        -0.86567498029064    8.29765067767025    4.50588653643849
C        -1.21597644084642    9.56036710868369    4.03132370445159
H        -1.04621699244908    9.79799118526256    2.98944204308792
C        -1.76046992211667   10.49641912869759    4.88759752008613
H        -2.03012644540338   11.47420871219825    4.51600398093588
C        -1.94965059908650   10.18413499376840    6.22536429367295
H        -2.37274484799409   10.91723096762221    6.89641022420783
C        -1.58509329854958    8.93723129981099    6.70336917473064
H        -1.72173909888010    8.69637873566865    7.74756380121588
C        -1.03887697240168    7.99416002106069    5.85048868874606
H        -0.75022297795653    7.02461806665770    6.23130368674721
C        -1.41047699430667    7.07193070295583    2.04141402260326
C        -1.02730365713823    7.12404553630101    0.70765584462085
H         0.02381175380947    7.23153016448876    0.47126388712361
C        -1.97829809042543    7.04656641640291   -0.29324479799402
H        -1.67682765521640    7.08547329717545   -1.32928847639341
C        -3.31718360784925    6.92463276667415    0.03797182636419
H        -4.06304309242263    6.86216125860601   -0.74068505682275
C        -3.70652877324558    6.89744964849182    1.36875452748479
H        -4.75366462141231    6.81832776503808    1.62288142322836
C        -2.75906103186640    6.97613274390007    2.37212094573025
H        -3.05829149186034    6.97411304637744    3.41161624227523
C        -0.15828305232173    5.56638422250694    4.16943342991900
C         0.91049820092920    5.34167429096668    5.03708266105371
H         1.64984056387052    6.12695063115010    5.17209126232143
C         1.02128308119629    4.14610888983692    5.71890950884323
H         1.85157289872396    3.97946457260095    6.38931764001216
C         0.06540276782453    3.15894128135215    5.53162556533184
H         0.15095682345504    2.21845293965693    6.05555101961492
C        -0.99603139464331    3.37569989743981    4.66840531628178
H        -1.73720811487057    2.60307266664974    4.52255008089786
C        -1.11212786073756    4.57469484059172    3.98492586927012
H        -1.93088533872749    4.73064427634531    3.29770613796732

