24
CSD_code = AWODOF | q = 0 | S = 0 | Stoichiometry = C9H9Cl2N3Zn | MND = 4
Zn        5.40894490798716    0.88586410222255    9.19007570977927
Cl        5.50502914467707   -0.13676529090893    7.27258190956616
Cl        5.96032338990709    2.92208293841714    9.91407320177783
N         3.31433188472266    0.84317472617140    9.74136023181474
N         4.97156744127915   -0.03647992043089   11.94578184986762
N         5.70771454745930   -0.33359910185074   10.87823661538170
C         2.35055968502575    0.75209469794472    8.83519389621819
H         2.67710056983987    0.55946324337380    7.82288583654948
C         1.01107415091406    0.88822198501622    9.15876432564177
H         0.25700792419679    0.81280639241790    8.39243027092439
C         0.67136646862344    1.12580527929988   10.48104499570704
H        -0.36110775694563    1.24271447265682   10.77385201807003
C         1.68102710855734    1.20394383183325   11.42706613017853
H         1.45146285341296    1.38175233875044   12.46613532417257
C         2.99951950969667    1.05598997883716   11.01768991114849
C         4.15125428833514    1.14597257218543   11.98558491817532
H         4.77261715039890    2.00329077211688   11.67650886137905
H         3.79267454432502    1.28992638077999   13.00513786267523
C         5.10609005240377   -0.97593049690256   12.89289951759440
H         4.59436507700140   -0.91371710204498   13.83218966331709
C         5.97940128054021   -1.92732178265390   12.40941205218707
H         6.31795565158910   -2.81376975755017   12.90326278279907
C         6.32484244841630   -1.47602813922958   11.13678321903495
H         6.97837767763658   -1.91699212045185   10.41074889604003

