34
CSD_code = AWOFIB | q = 0 | S = 0 | Stoichiometry = C13H13Cl2N5Zn | MND = 5
Zn        6.45787729894216    2.59753164366180    8.74440601751684
Cl        4.69402496591568    1.36375997374134    8.20200991964686
Cl        6.69619995804876    3.24630316694143   10.88348068429839
N         6.15886930783121    4.05286447891274    7.23550285023309
N         6.61355324634196    5.29958393347651    7.23854099880832
N         8.61469222649067    3.95803590422700    8.77680264280369
N         9.17478507988944    1.20826197038653    8.22601433093139
N         7.89119866533006    1.28890365902732    7.89903138062593
C         5.69124870512764    3.81141255688637    6.02281929945761
H         5.24861861616068    2.86243542788288    5.79730406961063
C         5.85074980537814    4.93954930233767    5.21752899617275
H         5.56502315381887    5.05821588317875    4.19332492603752
C         6.45015190154077    5.87286029912656    6.03564762496716
H         6.75131030635349    6.88304163352237    5.84240356204238
C         7.18868580141848    5.86690071890094    8.42365251972605
H         6.53603689612058    5.62343901134105    9.27283858929201
H         7.25200213211274    6.95001787011418    8.30899056478940
C         8.53928241906541    5.28011669162973    8.75011749164042
C         9.61155366533557    6.09321376444612    9.09494923837531
H         9.51758704036901    7.16712260784253    9.06180778304662
C        10.79367986140530    5.49526679046598    9.49758466331547
H        11.64914547062277    6.09566996169605    9.76764821145718
C        10.84997906878403    4.11385521555811    9.57231143941937
H        11.74068320142940    3.61402862514406    9.91873630952250
C         9.72677618377714    3.38205689798151    9.20798774179965
C         9.67970983615891    1.88510257055180    9.38538085228894
H        10.66700701185724    1.49054048199699    9.62990917021099
H         8.99037440688743    1.69845437219699   10.21996340020342
C         9.84666934437690    0.44674070537431    7.34802952796863
H        10.89689743310890    0.25783908432363    7.44724301674087
C         8.93798319869770    0.01050023576921    6.40796509858944
H         9.12403286353699   -0.62399696990631    5.56683067344222
C         7.72266374122146    0.57141442904855    6.80155551369792
H         6.74814718654297    0.47485710221235    6.36758089132232

