21
CSD_code = AWOGEY | q = -1 | S = 0 | Stoichiometry = C8H4CuN4S4(1-) | MND = 4
Cu        2.29876110024048   11.43352482353994    5.11458066683516
S         3.28229741603423   11.46272752570672    3.13840427918066
S         2.02873308869364    9.24312685085806    5.07946235250388
S         0.82603607874112   11.55366391193366    6.75463972520586
S         3.04308212006300   13.48019009202966    5.47447412972782
N         3.83318502473443    9.44287095975256    1.54731519395679
N         2.58453009444940    7.55261968236532    3.14254885090277
N         0.35789685211666   13.55143125892228    8.39922337182313
N         2.13776195420104   15.27971011301135    7.16594521057743
C         3.27452630910112    9.78505701596045    2.69198354185841
C         2.66458896510587    8.81327218509577    3.52236178923038
C         1.07674918609857   13.15919442084186    7.36531662985750
C         2.01143314355195   14.03217842957401    6.75684499622672
C         3.76658586222684    8.16346661302111    1.18718269359900
H         4.23483268502341    7.91558294315988    0.24392327981766
C         3.12830307827213    7.22562444873088    1.97282720863163
H         3.04269001769654    6.18520466364172    1.68872201350959
C         0.51331830783754   14.80487311374826    8.81810592650797
H        -0.08997321756673   15.09454370759808    9.66823915735676
C         1.38484853752700   15.67168631644527    8.19088277102521
H         1.50801339585187   16.70165092406289    8.49841621166330

