30
CSD_code = AWOLEE | q = 0 | S = 0 | Stoichiometry = C13H11Cl2N3Zn | MND = 4
Zn        0.15826658554959    8.27670658136688    1.68033522805369
Cl        1.15581788381807    8.02561326078634   -0.25577558472468
Cl        0.25560052237782    9.56185608481681    3.45039317590854
N        -0.65512369641679    6.40572089277906    2.12862680004642
N        -1.47417320286214    4.43938274185004    1.53989890494452
H        -1.97063532904003    3.74508142361073    1.00678676776099
N        -2.03056907882414    8.56394503221962    1.03517736252510
H        -2.37069150861567    9.50279486562017    0.85067934646352
H        -2.43250260106011    8.21091049590769    1.89823045774746
C        -0.27422063121994    5.48788616367287    3.07332670840145
C         0.47777555734835    5.64585026597509    4.23175845614217
H         0.86706808366274    6.61413801113307    4.50355045008485
C         0.69092887197621    4.52042640650965    4.99915088506769
H         1.27116223184679    4.59944154924754    5.90548503404001
C         0.17563737062067    3.27265746318524    4.63621129886723
H         0.37160724288246    2.42122572746428    5.26992534725971
C        -0.57585703877193    3.10070447672473    3.49079554798683
H        -0.97240714062483    2.13660964174960    3.21231537799101
C        -0.79367268465086    4.22730542398987    2.71344733664683
C        -1.36165071624531    5.75717275667988    1.22209575233301
C        -1.92465269396037    6.33934311019859    0.01826092336654
C        -2.11239512010404    5.53792103085610   -1.11088997511610
H        -1.85851120250631    4.48923868887084   -1.06824060990015
C        -2.56311323183582    6.07232481475252   -2.29973851976518
H        -2.68748552585980    5.43771756453588   -3.16296347546756
C        -2.82981602920097    7.42953168096720   -2.38493581630525
H        -3.16494321863410    7.85999983996076   -3.31569120690533
C        -2.66413559198778    8.23562867201596   -1.27594191280170
H        -2.86277160878328    9.29549579795025   -1.34432132754785
C        -2.22013649887810    7.71096953460367   -0.06765273310374

