48
CSD_code = AWOLOO | q = 0 | S = 0 | Stoichiometry = C23H18MnN3O3 | MND = 5
Mn       10.80362355164791    5.89066561570108    7.37141377921351
O        10.21169961366174    5.97531173438900    5.71031193962443
O        11.84593281578747    4.47731696559992    7.30202149798896
O         9.37706305877966    5.02516840231536    8.49852875156095
N         9.73641743783100    7.58989162494471    7.64300296015290
N        11.65827233235110    6.53021227270882    8.91748128831035
N         7.06765690904456    7.32685127335049    9.73172370061471
C         9.07282207425040    6.30608613140959    5.17473242149426
C         8.63369954299802    5.71294131423964    3.97940839205568
H         9.26569577544550    4.96778145207982    3.52024300057681
C         7.41369989213729    6.04593744207413    3.43711516733656
H         7.08257346261077    5.55842387448673    2.53214453301931
C         6.60186283852972    7.00201925783723    4.04235139112502
H         5.64839555014423    7.25462718334918    3.60528859221280
C         7.02221513193759    7.62320702063306    5.19633355976039
H         6.40155384305926    8.36725915994725    5.67446365069642
C         8.24471114418175    7.29009143067880    5.78789465992710
C         8.68500368865549    7.93970109765793    6.98694129227045
H         8.09297304887302    8.79112124383080    7.32814035787439
C        10.11459147448419    8.37593159501278    8.80223831387419
H         9.23146597310062    8.78593572450441    9.30422530569626
H        10.76011431428989    9.19897070454158    8.46991498879274
C        10.89187945281404    7.44769816547732    9.73903927367570
H        11.52792806197619    8.01373925658015   10.42974431632138
H        10.17103440628966    6.84843538550216   10.30929741821790
C        12.83764736890572    6.16467304771183    9.33676400756085
H        13.25128280167694    6.63732597236462   10.22882216987114
C        13.62475192219260    5.15485836410435    8.72406401689331
C        14.93311091915382    4.89334361488624    9.17072613435230
H        15.33140000998529    5.49693284092128    9.97425576612236
C        15.70092952620380    3.91532534775964    8.59542165871583
H        16.70856713712298    3.73894260725272    8.93909485445448
C        15.17451941162622    3.13904234898887    7.55667243222014
H        15.78416095543903    2.37090678150566    7.10401380477805
C        13.89252521341676    3.33692789927701    7.11671282719522
H        13.47421106856038    2.73715408746983    6.32193832854354
C        13.07385937096785    4.34476784881352    7.67716468321198
C         8.29469247935832    4.68071514931579    7.86303122401753
C         8.27568605498943    3.64557840168163    6.90549383106486
H         9.21662892847303    3.15448542558965    6.69268217440976
C         7.11752650702839    3.29848234902370    6.25117343660703
H         7.13352264691238    2.50777620626746    5.51435883633739
C         5.91908629603639    3.95251599459110    6.52666306745427
H         5.01593008066318    3.67073466999689    6.00727571859386
C         5.89246762121087    4.96410797250326    7.46179067340428
H         4.97197988157964    5.48583269373621    7.68355781638577
C         7.05989898023833    5.33987499221255    8.12592086797297
C         7.05572942337866    6.41807005518715    9.02670111743607

