75
CSD_code = AWONEH | q = 1 | S = 0 | Stoichiometry = C35H30N6O2PRu(1+) | MND = 6
C         8.22389471188058    4.20587812879353    1.94351293501411
C         9.29647405881747    3.68689342904959    3.84111109975673
C         9.73349012581457    3.14122931319240    5.03686211193789
H         9.20572496154068    2.31775360938991    5.48804478658136
C        10.86293174310273    3.70252298751145    5.60250183818738
H        11.23830830916159    3.30801907244674    6.53340212441469
C        11.52905676916656    4.76849136153394    5.00106431686833
H        12.40513270362779    5.17818017309381    5.47888484064553
C        11.09592380725908    5.31768213396048    3.80773054644327
H        11.62086248316590    6.14581948808510    3.35771138303359
C         9.96762144597394    4.75961520067839    3.22899181300354
C         9.57900862501668    6.11606822008030    1.14662849392302
H        10.59825825743506    6.45028793509597    1.35920725331755
H         8.90253849747876    6.95502139313289    1.35093885620150
C         9.48387520598671    5.71647118907626   -0.32825059646444
H        10.17820056992560    4.89888833700411   -0.54585230560052
H         9.77294426315211    6.57456070527784   -0.94110797039468
C         5.47342017123341    4.86726593376589    1.08033782085969
C         3.70809029696722    5.55961992400777    2.28553669129518
C         2.70232161490027    5.73729474780514    3.22187184935595
H         2.61721911399973    5.09184632718032    4.08104404543668
C         1.81701183632677    6.77535604276215    3.00206100971013
H         1.01873076726482    6.94852004907662    3.70599347594795
C         1.93125217143375    7.60547868725014    1.88818591699326
H         1.21860612381681    8.40379367850742    1.75423874089804
C         2.93176140934742    7.43227941869655    0.94974345500649
H         3.00051332522917    8.08368872583626    0.09294609827087
C         3.82692086159911    6.39425347463348    1.16150816433345
C         5.37515278088838    6.47530894003231   -0.80828053598059
H         4.82075288735394    7.39819298726687   -0.99135178171471
H         5.15272901058374    5.77115448594023   -1.62237363402155
C         6.87648703709222    6.75314322228097   -0.79519553850063
H         7.13687093982273    7.28855039907058    0.12067542573015
H         7.14428587399818    7.36696484786324   -1.65742385116408
C         8.05749868381765    4.87691557954002   -2.62653185622031
C         7.72966499661106    3.62697769056605   -3.14075520582375
H         7.33204344825209    2.87439952368495   -2.47009743818624
C         7.90955696518401    3.35201248501717   -4.48443226245729
H         7.65280630357509    2.37981687409310   -4.87747143830237
C         8.42040074758169    4.32777183650701   -5.32398507338252
H         8.56014925007307    4.11870481159381   -6.37318357281750
C         8.75145109154199    5.57547535397285   -4.81790684070030
H         9.14970619936234    6.33451791638686   -5.47409045249893
C         8.57350231194805    5.85311267948578   -3.47538384373735
H         8.83771079515379    6.82921298219020   -3.09412424257911
C         9.45238504836449    1.89265821074676    0.45866487948314
H        10.00327527206510    2.80496904036949    0.65003662728734
C        10.08994307331395    0.67050486801887    0.54020242984639
H        11.13297911626140    0.62246642375361    0.80684018094376
C         9.35498161106444   -0.48053111121963    0.29107597285733
H         9.80928368209775   -1.45522043592716    0.36808749333228
C         8.02587380138363   -0.34982340189274   -0.06123176809840
H         7.43733552288031   -1.22880207577285   -0.26274066277361
C         7.44910809500629    0.91892848856920   -0.12866009854143
C         6.05744150563610    1.15731044292608   -0.51945767240280
C         5.18142239075365    0.13540521138305   -0.88654334034950
H         5.49971006917953   -0.89292292885193   -0.85555065636783
C         3.89341722981250    0.44289044111902   -1.27934263265787
H         3.20247938230843   -0.33679830626572   -1.55703779750066
C         3.51513911479441    1.77831695673339   -1.30994239752705
H         2.52453101269982    2.07173266856004   -1.61664378767445
C         4.43289724684465    2.73720076432587   -0.92864517367616
H         4.15883016942640    3.78354159850433   -0.94761140877725
C         7.21776035105259    2.30654455050088    3.13992655418446
N         8.23273105097320    3.38075240889184    3.01291894250450
N         9.27520249600339    5.03783252234136    2.05688203303585
N         4.73609328660379    4.65141980008335    2.18645929334278
H         4.90565874495203    3.87675342215789    2.81542798829057
N         4.92152258217006    5.93100983145009    0.45035230192909
N         8.16335165050370    2.02948506391542    0.15220004153572
N         5.67401553750757    2.45392709654129   -0.53236194364412
O         6.37957605173289    2.33505387416432    2.20558047570889
O         7.29350965188020    1.56813030488149    4.08462082872378
P         7.79633793759392    5.14508597412901   -0.84540859471279
Ru        6.93944376167852    3.59776599344194    0.55026523907432

