67
CSD_code = AWONOR | q = 0 | S = 0 | Stoichiometry = C28H36FeN2 | MND = 6
Fe        2.12284675260897   18.40285806907441    4.47342677302494
N         1.77473902852309   20.18504360900250    4.37753654865814
N         3.65352742654650   19.24909760122353    5.67217631950132
C         4.60657059003374   18.26884515155432    7.68243171092651
C         4.69602732616887   18.59345763085816    6.32280296969787
C         0.78039360197047   20.53826258690253    3.46179350969357
C         5.82007908303144   18.20842981281778    5.57898471892019
C         3.53043238323991   20.55363883694056    5.78223485589263
C         0.92286892618160   20.10665162308328    2.13497633542262
C         2.48835661324335   21.10652560749527    5.01547700366312
C         0.09902060399588   17.83467230629958    4.61967633371233
H        -0.51917920185361   18.69615076905307    4.40161130655192
C         2.98278763163617   16.54620582330188    4.91839643038929
H         4.06046939242639   16.62819934802321    4.86545017971823
C         6.74708916042111   17.17072868068736    7.54227130488479
H         7.54323718200925   16.61655350143018    8.01699523202287
C         0.70077426673675   17.77819576880450    5.85938366448855
H         0.54854859012848   18.62724164180532    6.51946518226087
C         5.63866689874821   17.55728634329403    8.27429292534526
H         5.57064053412509   17.30395131971104    9.32319823471362
C        -0.03303282028075   20.45700648141008    1.19609608963767
H         0.09178411423165   20.13598158890285    0.17192539193551
C        -1.31688455942490   21.56359446174821    2.88072290005323
H        -2.20296431111266   22.10566889793071    3.17902323908904
C         2.27235578899857   16.45748338164719    3.74470438631759
H         2.83689240341241   16.57884044646496    2.82122744083461
C        -0.37284314138508   21.24154285882939    3.84505168343397
C         6.83277600367333   17.49680691051609    6.19979752644136
H         7.69904381932832   17.19769808368579    5.62646634593528
C         3.40614664040865   18.69945841875098    8.47152623057171
H         3.56165966157667   19.69486600943729    8.88955021082378
H         3.21893145966337   18.01391760571727    9.29534587085266
H         2.53543829917369   18.73819588901063    7.82118090865469
C        -0.63734560839833   21.58935642388030    5.28108952286992
H         0.04472276035595   21.05796701967483    5.93940540766888
H        -1.65913706524418   21.31749200104751    5.54182242655248
H        -0.52584804999557   22.65980277427964    5.45163594133654
C        -1.14429525604996   21.19746174088067    1.55891107236755
H        -1.88406615967888   21.46654521830949    0.82008550837132
C         2.07765760208500   19.23234982103766    1.74750408164174
H         2.82238979769862   19.18534216538175    2.55336096556596
H         2.55720789012152   19.59856261469566    0.84178793555301
H         1.71461038591035   18.22548909231887    1.55338937039714
C        -0.22763483739782   16.65126437033036    3.74812855243603
H        -0.51458616561644   17.03453133263558    2.76614829017510
H        -1.09321729987429   16.10938555422786    4.14642431876428
C         5.89822505882210   18.59204773255686    4.13182142685404
H         4.91448224909428   18.48048212716819    3.66924442805312
H         6.62482943771604   17.97900518060713    3.60430475273419
H         6.19113510893146   19.63769737243758    4.03329979733339
C         4.47158704914312   21.43179531483540    6.55665423397164
H         5.19887013031092   20.83164711325281    7.09671539250013
H         3.91995777667755   22.04857108788653    7.26466250531735
H         5.00889999776834   22.09914337569423    5.88244576217265
C         1.05434346614994   16.48548739225004    6.55732676041635
H         0.33054472481941   15.72072632056159    6.26842204095401
H         0.96044610627985   16.62097159567313    7.63655824993777
C         2.35457853289279   22.58719965002294    4.81224099018275
H         3.32032957853602   23.01632589368031    4.54608364534871
H         2.01583482183176   23.07743028906866    5.72511389577507
H         1.65012884623907   22.80498449738859    4.01397743971253
C         2.48381670894626   16.01549584319139    6.23609660404958
H         3.16375980917659   16.36461594359017    7.01162490847519
H         2.53146953284147   14.92000545471240    6.23837680052842
C         0.97211928009328   15.70492813011872    3.59639491994383
H         0.92756000069647   14.91145370305578    4.34338857110704
H         0.93582364095376   15.22577878815024    2.61505371685922

