79
CSD_code = AWOPAD | q = 0 | S = 0 | Stoichiometry = C30H38CdN4O6 | MND = 6
Cd        6.90081878559731    1.36896829800053   -0.01142840167316
N         7.00459355112895    0.09133370272075    1.91798376281231
H         7.35912617225256   -0.80379519131551    1.59660754780714
H         7.67919000001449    0.59021444187200    2.49490651762178
N        -0.11931473150371    4.57962037344105   -0.18217133439146
H        -0.89968115679151    5.14462564620157    0.11058117995171
H        -0.07234382266843    4.40986293918074   -1.17361063610150
O         4.71594636236554    2.27557612550418    0.20568720648796
O         7.73953978915057    3.10393455691592    0.87338357233444
O         9.25765152518234    1.92729367768528    1.97216778330937
C         5.68857282284246    0.05523737933399    2.39340855107323
C         5.18837564765873    1.10261758050014    3.16672229004622
H         5.85346133807895    1.89564506107209    3.48089055523539
C         3.84417549071160    1.15042582210306    3.48145824012324
H         3.45638073973275    1.98319573039962    4.04997013869803
C         2.97213678177343    0.15542261784522    3.05116772759455
C         1.49107764426988    0.32438622774053    3.24413923182724
H         1.26251915668567    0.57934392866259    4.28088784532387
H         0.97427925624650   -0.60748685819462    2.99961316662249
C         1.01223475955114    1.43193973812866    2.33481545929628
C         0.23886825968704    2.48029480540018    2.81148650594584
H        -0.05838129333607    2.49717240996753    3.85094026317438
C        -0.16521894735473    3.50463533628739    1.97727269457010
H        -0.77016851946235    4.31218507346855    2.36537040588537
C         0.20862530115485    3.51526217189876    0.63428063939786
C         0.98518346931334    2.46084917287561    0.15199225873558
H         1.28566226110939    2.45097281311207   -0.88572605263321
C         1.37489320440068    1.43887405813723    0.99174260587828
H         1.97082339292624    0.62833760674463    0.59534147910231
C         3.48944260983140   -0.91775925426861    2.33760615306594
H         2.83047438712181   -1.71186644981912    2.01568007812738
C         4.83264852205815   -0.97640559297806    2.01611986377280
H         5.21948012695897   -1.79901291112180    1.43171883316668
C         9.16673382404435    4.28210204916709    2.36275698366349
H         9.55567930470837    4.06256762347024    3.35300457321700
H         8.35473748642474    5.00086183203136    2.41751824172046
H         9.97027347918994    4.70172327715702    1.76024017287887
C         8.68641861532911    3.00031630865983    1.69280526204771
H         4.09161899279006    1.97628542102784    0.87623982661336
H         4.46956392492073    1.80194719852803   -0.63119044729160
N         6.76816300519379    2.65261304968697   -1.93618637333144
H         6.41252281004416    3.54799925041300   -1.61698881487255
H         6.09417120352501    2.14993704372594   -2.51032810030094
C         8.08395012863346    2.68877840501457   -2.41249728715781
C         8.58566951758402    1.63659962783441   -3.17819327810530
H         7.92173428236729    0.84019092202456   -3.48637685296869
C         9.92981967879406    1.58898511310608   -3.49289250806378
H        10.31899016984150    0.75271472731402   -4.05532926853192
C        10.79990445772034    2.58889917635638   -3.07021206055214
C        12.28119695112543    2.42125195612069   -3.26140985855425
H        12.50956239329569    2.14991399503533   -4.29404798103817
H        12.79545009412073    3.35867716195407   -3.03296748062161
C        12.76631042122088    1.33074470760637   -2.33476566921340
C        13.55721358294999    0.28728067544142   -2.79324546511934
H        13.86027761200230    0.26091128508104   -3.83081337189856
C        13.97163188196908   -0.71973682660202   -1.94318842385621
H        14.59045218255486   -1.52337328376035   -2.31726504225596
C        13.59108011537839   -0.71774394840575   -0.60200737173089
N        13.93165903674785   -1.76523614170509    0.23075784135764
H        14.72225396717563   -2.32194210751421   -0.05019049288350
H        13.87582616926938   -1.58333470036589    1.21955565812577
C        12.79556304261832    0.33087308028090   -0.13828890254942
H        12.48890898458418    0.34995828409293    0.89751973570536
C        12.39572863397934    1.33583329344524   -0.99385713764199
H        11.78614184640476    2.14293459900793   -0.61135559860736
C        10.28076797762112    3.66675088308723   -2.36503424405308
H        10.93839175749803    4.46445877003433   -2.04922893873547
C         8.93755123247878    3.72532058844017   -2.04363359236461
H         8.54949965522252    4.55154188253813   -1.46518002099948
O         9.08409200150599    0.45398869915367   -0.21273380785460
H         9.71719988989198    0.75152248763863   -0.87588524592907
H         9.32555644851127    0.92207612658980    0.62851062648962
O         6.07775374180548   -0.37177015674684   -0.90084901094718
C         5.11227502994331   -0.27676893531103   -1.69930019106183
O         4.52789852030242    0.79148042209110   -1.96920860502822
C         4.62504653148237   -1.56385677417694   -2.35396758791406
H         4.20567884634000   -1.34968914104823   -3.33289334440552
H         5.44165207873620   -2.27528520377079   -2.43083300937797
H         3.84335560439004   -1.98980374011189   -1.72756966748500

