31
CSD_code = AWOQIN | q = 0 | S = 0 | Stoichiometry = C12H12Cl3N2ORh | MND = 6
C         8.24902033071079    3.95455363683102    8.15046310134810
C         8.23798320916289    4.98493198646529    9.07991589305074
H         8.63799918407352    4.81895872959451   10.06827243420082
C         7.72882358784168    6.22070334547623    8.71583868156873
H         7.71886012500399    7.03734012504783    9.42098184499917
C         7.24355920210688    6.38412542354769    7.42709124238187
H         6.85178653122678    7.33120115057251    7.09402201586377
C         7.27106826850865    5.30700375595295    6.56086429348737
H         6.90523298566043    5.37534026323469    5.54372935550988
C         8.89800895615256    2.62833311600797    8.47141456766636
H         9.95429420577552    2.70699766664823    8.17626573565552
H         8.84251652267233    2.41997639690313    9.54807328702707
C         7.29444066716685    0.83383463042993    8.25732332131606
H         7.35873252152038    0.78258708435804    9.35238358117606
H         7.38556944698934   -0.18218208860336    7.84672599781456
C         5.94664682122587    1.36533908767675    7.82758473151555
C         4.81364665991525    1.12685013445134    8.59280605774600
H         4.90401098223220    0.61292408490801    9.53735224702780
C         3.57782382533757    1.53682520079907    8.12034542957516
H         2.68388537995189    1.35328145218885    8.69604914552917
C         3.51705256347818    2.17706247297548    6.89165380388654
H         2.57670169210146    2.50130972293706    6.47695126667991
C         4.68973077302847    2.39441093210407    6.19259664417109
H         4.70347862144913    2.88889701477330    5.22906592585945
N         7.75762972893542    4.12058064811469    6.91718071680948
N         5.87519230610270    2.00171660837263    6.65305026838236
O         8.41084947227874    1.52538319383795    7.73078871585648
Cl        9.77896247649299    2.85601085842637    5.06795228614258
Cl        6.81890127193138    3.41098222332955    3.97469377423106
Cl        7.59588671547830    0.40384285511131    4.76237999529924
Rh        7.68560496548844    2.41567828752705    5.77028363822058

