63
CSD_code = AWORUZ | q = 0 | S = 0 | Stoichiometry = C31H24Cl2NO2PPdS | MND = 4
Pd       -1.20789311946728   -2.48355182489147   -3.12955382332519
Cl       -0.12769763835545   -1.98211517184878   -5.06933968709291
Cl       -2.53743140833432   -0.67071198980832   -3.13953836187903
S        -0.04030694379237   -4.35108873156715   -3.02603231472414
P        -2.15899475140202   -3.08976880074999   -1.21186463539316
O         1.28708312249508   -4.32071337975880   -2.44548849291984
O        -2.29121915875678   -4.46676840933371   -4.55163079386636
N        -1.94974209836036   -4.79209467413564   -1.11985832848339
C         1.69157083299265   -7.63822626978124   -6.81674817342199
C         0.89398538717067   -6.19599340910297   -5.01261614980715
C         0.49313603809626   -1.42220521646981    2.13144819994930
C        -2.31772348758383   -8.18888607546719   -0.04019448655063
C        -3.28451603643218   -8.10625234567536    0.93602467334013
C        -3.86376724423992   -6.88206211802594    1.27613606573649
C        -6.61524259126250   -2.44244411663867   -0.48248069475823
C        -0.51958702530148   -2.30666654232537    2.46976351273769
C         2.10900591215694   -6.43523052481849   -4.33730102235969
C        -0.97233794852396   -6.74395425133293   -1.71481532758596
C         0.68235048983443   -1.04642911427946    0.81082496362985
C         2.85731788878002   -7.85253093733159   -6.13687128102428
C        -1.01773324728295   -5.40704447593892   -1.94587459579549
C        -2.51459225236271   -5.78108305991375   -0.33078279681410
C        -6.17761406706909   -3.38966273589346   -1.39666955520868
C        -1.16903041022384   -2.43620737675134    0.16473463023467
C        -1.50864533903134   -5.79450878865529   -6.44253079106744
C        -3.49141682782163   -5.70870600613763    0.65315404962775
C        -5.70118805779047   -1.69503195912200    0.24175021042592
C         0.68370704152187   -6.81144953691130   -6.27964946164737
C        -0.52067583941552   -6.57508269596845   -6.97184386647509
C        -0.14286356013033   -1.55471552845695   -0.17643359854314
C        -4.82465493487772   -3.59493623928048   -1.58065722952726
C        -1.32416998635563   -5.20064848540548   -5.18073598507511
C        -3.20561597392323   -3.72835898212775   -5.36988365302085
C        -3.90656454012778   -2.86393426921905   -0.82922814196696
C        -1.35342454986232   -2.81649871002901    1.49124716484957
C        -1.92239300657121   -7.01753320738980   -0.68476324150589
C        -4.34310691251318   -1.89661338147666    0.06712130062038
C         3.06418372866648   -7.24339267204667   -4.89049816051926
C        -0.13644598753963   -5.38244646609165   -4.49413950996799
H        -0.34095920159816   -7.45328503491393   -2.21252152988879
H        -1.86827518067906   -9.13309256671356   -0.30649926493701
H        -3.60517323457604   -8.99917808427160    1.45100185210059
H        -4.62084478235379   -6.85296051560587    2.04510770141924
H        -3.95408670742416   -4.77099409539712    0.91989033229150
H        -2.42472058837120   -5.63042767223926   -6.98658388687338
H        -0.65608819754414   -7.03009890135030   -7.94225557902055
H         1.52109484134993   -8.09891427142738   -7.77916776649698
H         3.62521038038847   -8.48657244611858   -6.55452578995937
H         3.99103002698435   -7.41676618789050   -4.36423831409059
H         2.28034260925394   -5.96278713733630   -3.38484678134429
H        -2.13957667773695   -3.51056419427900    1.75150587051282
H        -0.65916048002494   -2.60087086872891    3.49949712329107
H         1.13961068852936   -1.02778983186600    2.90110250938899
H         1.47498427961619   -0.36153043985857    0.55085586204494
H         0.00255040012767   -1.25940502352699   -1.22526167539747
H        -4.46392193885028   -4.31924481228019   -2.30102938105514
H        -6.89404361294141   -3.95825440597803   -1.97054455495386
H        -7.67341578371900   -2.27851171818894   -0.34428260514936
H        -6.04672560882293   -0.94670167780996    0.93904631402124
H        -3.62240086609357   -1.30702691185323    0.61561899704986
H        -2.67241195410876   -3.23315760532122   -6.18649425410346
H        -3.64361574649643   -2.96829748530716   -4.71126796300999
H        -3.99134816190919   -4.38161963157437   -5.76088782665012

