41
CSD_code = AWOTOV | q = 0 | S = 0 | Stoichiometry = C19H13Cl2N3O3Ru | MND = 6
Ru        1.84138933941214    3.39953576663451    2.15120310185852
Cl        3.16431076527690    3.75190932719409    4.08596744845281
Cl        4.56402622749844    1.51850276350071    1.09251130367942
O         0.39537708195661    2.90810422552482    3.40420237805415
O         0.47106066811336    2.76040041482914    0.76007785759601
N         0.77183965256789    5.15510123084908    1.99144723809858
N         2.38798591594710    1.42738580858002    2.49479936236951
N         2.99094125215068    3.91811462556809    1.05565442948273
C         0.97676677207431    6.34279218775611    2.52641270042940
C        -0.40599374460328    4.86868471617682    1.37455148008488
O         3.71171833234707    4.39416764364083    0.28520400857872
C        -1.47153859360371    5.80373036706992    1.32133162868509
C        -1.72596093436337    3.29532229457709    0.09645976652336
C         1.47591017762663    0.83428531307574    3.30085017854179
C         0.41003989283389    1.66873615098374    3.76623614616351
C        -0.54863323772345    1.08867036510626    4.59773384416413
C        -0.52743800396632    3.59147460093284    0.74271867887624
C         3.59771520250233   -0.63106482321946    2.40254450756389
C        -0.04695606507569    7.31363870979365    2.52534043517634
C        -2.66034048512845    5.44894801534570    0.66316839229281
C         2.30504516712513    6.66217522590078    3.11843886443268
C         1.57000959609833   -0.52743314537345    3.69060837521967
C         0.57567873561834   -1.05512880375534    4.52849087968554
C         2.67821045726036   -1.25166380353850    3.20219896393861
C        -1.25576219407140    7.04836669745248    1.94895220673407
C         3.41197711700408    0.72182583341810    2.07325286529640
C        -0.45453219527248   -0.25080879767011    4.96040061285770
C        -2.76956915565976    4.21547081997584    0.06838386192005
H        -1.35966662516974    1.70249253017598    4.95769652677068
H         4.46297210037822   -1.14463440514845    2.01782584613880
H         0.63580592996774   -2.08921749827265    4.82875959528258
H         2.79422156217924   -2.29073303910801    3.47186500462215
H        -2.04820832230092    7.78242135600254    1.95404593674802
H         0.14841825450919    8.26575900232742    2.99320680922023
H        -1.21443863796140   -0.66493833479333    5.60672568139600
H        -3.47393608784686    6.15661596618889    0.63300686444779
H        -1.82488300314921    2.33443432654177   -0.38376712818474
H        -3.68439355464536    3.94517483298658   -0.43821598874399
H         2.43533229934221    7.73673131715315    3.21193585432224
H         3.11065726810421    6.24996953184843    2.50971158039615
H         2.39224107264753    6.20918068376687    4.10696190083104

