30
CSD_code = AWOVAL | q = 0 | S = 0 | Stoichiometry = C15H6ClN4O3Re | MND = 6
Re        0.05611377322385    6.45184393245979    5.46963934345208
N        -1.13145768537154    8.19199361283511    5.27797754968723
O        -1.48320567959757    5.36875148286213    7.92305379292292
C         1.45772162433567    5.11257114925201    5.72335961388839
O         2.34760430401674    4.42359104049391    5.91271167100623
C        -0.90391774704198    5.41523811177124    4.13144274739437
C        -2.31005157844041    8.39424191599094    5.86411256869388
H        -2.80322401516068    7.51807212079120    6.26507385982570
O        -1.47269767426264    4.83426443961434    3.32273472077643
C         0.78387062261421    8.93510725176664    4.07539520155620
C        -1.00880815238872   10.53502680180557    4.81141170117319
H        -0.48337374160132   11.37893297188738    4.39520144786629
C         1.57056453408542    9.89808742815775    3.45128840023601
H         1.29278037369307   10.93943307015845    3.45465098866042
C        -2.77431285240112   12.04276755204491    5.54303138380442
C        -0.48451090211609    9.24810878464047    4.74328858154905
C        -2.90145265574076    9.63547687908056    5.97863284679398
H        -3.85153127612063    9.75124523728038    6.47458478013153
C        -2.22897145301208   10.73911248990809    5.44760829847826
C        -0.93219219805059    5.70157653617267    6.98055779315265
Cl        1.20817969325590    7.88322130676192    6.99034555781746
N         1.13585553263923    7.63286757510371    4.08566671737616
N        -3.21742237779173   13.09624669211841    5.61059587435743
C         2.25585974605897    7.26851953251593    3.46424648354602
H         2.49358126364065    6.21268140447387    3.48335046753024
C         3.09618176049178    8.15640369348581    2.82463281776895
H         4.00010769290313    7.81520889589392    2.34663940359244
C         2.75083849805963    9.51022852338544    2.82530742032467
N         4.23446085895433   11.25797347540293    1.68349378548979
C         3.57530971112454   10.47480609188885    2.19606418114323

