35
CSD_code = AWOVEP | q = 1 | S = 0 | Stoichiometry = C17H9N5O3Re(1+) | MND = 6
Re        4.57072620730042    6.20436923602453    2.92440044072578
N         4.13055923116798    4.21614359502172    2.21918810873585
O         6.71484891688240    6.53115120630424    0.71537471809971
O         5.40381422784097    8.86446635698345    4.28453597771350
N         5.89841057611527    4.93471808048142    4.05055704114489
C         5.92094198076066    6.43894187321831    1.52220637029537
C         3.22531254291040    7.15138764337840    1.85067595513504
O         2.42707248334535    7.65817780158759    1.21812265233443
C         5.08334075441723    7.90437073575277    3.76520034438045
N         3.19932556128947    5.82404632780043    4.40203776005076
C         3.24295830655251    3.92682769379315    1.26861477502852
H         2.71795716271781    4.76261043470233    0.82546011029478
N         8.94448368815282    1.47854125382049    6.75116426113238
N         3.28072509006408   -0.84466214252302    0.74132232705173
C         1.42610488264012    5.50847764365023    6.23394576759049
H         0.44855309919131    5.35118398222335    5.77630560214163
H         1.38772331191693    6.40826540706300    6.84970443329423
H         1.66885455722574    4.65342116795350    6.86554825334779
C         2.98103142449844    2.64014300222291    0.83868862780580
H         2.25439249913133    2.45502421216109    0.06429524902516
C         6.78313841285306    5.36730531509546    4.94792305178540
H         6.84094610568585    6.43771450243719    5.09425579472109
C         4.81877963858497    3.20956613495707    2.79574960971994
C         7.60593057879826    4.52577193117162    5.67173187007207
H         8.30847321368904    4.92262413171724    6.38650940228456
C         3.68378278524528    1.59068325332160    1.43120440096457
C         8.30787686377032    2.22968752878908    6.17026564718417
C         5.79797175154232    3.60927548676111    3.82154222863559
C         7.50240136317339    3.15204119249117    5.45156117804778
C         2.40840038456945    5.67439253494248    5.22157547309960
C         3.45922603602904    0.24374538151143    1.04211486199306
C         4.61632064339758    1.88492833773009    2.42335904224237
H         5.16635562850513    1.07923467929792    2.88089420621437
C         6.58472831153252    2.69191312783991    4.50987760106091
H         6.50323177850334    1.63231095031667    4.33198685664549

