70
CSD_code = AWOXAN | q = -1 | S = 0 | Stoichiometry = C29H32BFeN4O3(1-) | MND = 5
Fe       -1.79921488743966   -5.07390072334015    7.47601788186879
O         0.67678094254658   -4.84944663199635    5.95353838349301
O         0.31596842218552   -6.42494086709341    8.93066720864889
O        -3.38850810079642   -7.51352303496715    7.02171854971876
N        -2.92155818225692   -3.37799368179970    4.95804842858264
N        -2.05737894278495   -2.24864995129939    6.59519213433817
N        -2.93974529142657   -3.99202854192051   10.38932467491839
N        -1.99932754060690   -2.52649505402594    9.10594091361755
C        -2.41806481332889   -3.49757678661255    6.22994447221180
C        -2.84434183035151   -2.06691646143227    4.55482956936437
C        -2.30193028606856   -1.37507554753546    5.57927830750524
C        -3.52696619756349   -4.43672903361241    4.15109658487745
C        -4.74918320277790   -4.97590959180891    4.90021837923061
C        -2.50073445267416   -5.54156409803763    3.89248732661501
C        -3.99647398727536   -3.89983318214031    2.79210221605199
C        -2.39699611153136   -3.81187461806693    9.14239194377212
C        -2.83113002497959   -2.82809181171761   11.11204666978036
C        -2.23949534860502   -1.92188325556933   10.30387775442397
C        -3.65231295531464   -5.17977616348211   10.85592090603247
C        -4.81365598621767   -5.45321476122827    9.89533510011500
C        -2.70255982347208   -6.37794537793379   10.90255214692523
C        -4.22474528676404   -4.96348664006342   12.26278786977149
C        -1.70358128211098   -0.19739206807163    8.10710611268358
C        -3.03007273502511    0.23479665250864    8.15490770805809
C        -3.36069924727440    1.56482278663923    8.33781325047038
C        -2.36154796522758    2.51332503034495    8.48230682741809
C        -1.03794089782867    2.11196582760096    8.44213399434909
C        -0.72042944402313    0.77621299673896    8.25797563943838
C         0.22504584931672   -2.05427690947612    7.81920127716198
C         0.94066770132886   -1.72927334568407    6.66817473175120
C         2.30805098699975   -1.91454549195796    6.58079386371014
C         3.00712550984404   -2.43291364947475    7.65650628376215
C         2.32205539280802   -2.76026953009022    8.81341334937679
C         0.95453743206373   -2.56800263774359    8.88840972033203
C        -0.30876408749063   -4.88135436645607    6.58475416581255
C        -0.58708843990618   -5.90756111570967    8.39499019837508
C        -2.90338261320030   -6.45395029276445    7.16842063991727
B        -1.36848608373109   -1.78103971669564    7.90885130628367
H        -3.15958575364771   -1.71280641172225    3.59671294147077
H        -2.07826795248447   -0.32947164870544    5.64974986003721
H        -5.19119768066338   -5.80868173908353    4.35907346261466
H        -4.44473766854894   -5.31388817996349    5.88718508868204
H        -5.49588886943029   -4.19157847266303    5.01561182661026
H        -2.94333850181665   -6.33552848625205    3.29560892444875
H        -2.15408578759387   -5.95407408514545    4.83860821902454
H        -1.64047447906259   -5.13682084344901    3.36343788225200
H        -4.43780940307006   -4.72084917882610    2.23069236149454
H        -4.75399219727964   -3.12683543872795    2.90703525599287
H        -3.16342182060194   -3.50643930711135    2.21337010506412
H        -3.15745938241011   -2.71551867742558   12.12416593743092
H        -1.97350709102059   -0.90282561338882   10.50109403286461
H        -5.33858951330866   -6.36118294043817   10.18170654455452
H        -5.51515568974751   -4.62047872583313    9.90261318607058
H        -4.41995957992161   -5.56976655501274    8.88751026104117
H        -3.21411029317085   -7.24866500897995   11.30679151788744
H        -1.84010995713037   -6.15388380719657   11.52693364375901
H        -2.35059661584631   -6.60648457767781    9.89998463960847
H        -4.76718026716406   -5.85899175594819   12.55918690989059
H        -3.43319321947907   -4.79366750305890   12.98988223776903
H        -4.92014506199908   -4.12651559525033   12.28439114556075
H        -3.82176563319708   -0.49561975427783    8.04492262636547
H        -4.40038928610452    1.86780409086433    8.36959877247754
H        -2.61408091464043    3.55646833681786    8.62644544035018
H        -0.24906228153087    2.84542962562495    8.55622377418476
H         0.31879573865591    0.47764850638376    8.23020379954319
H         0.40945076609738   -1.32839804920719    5.81355340940709
H         2.83296246322902   -1.66017445075115    5.66772281260980
H         4.07702138176322   -2.58772166876515    7.59088739399126
H         2.85769145316833   -3.17518054497489    9.65853300129380
H         0.43786690892789   -2.83648989389761    9.80058649489501

