76
CSD_code = AWOXOB | q = 0 | S = 0 | Stoichiometry = C25H41IrNO7P | MND = 4
Ir        7.81013278653498    2.55449948119065    3.33527002096206
P         6.57722592520588    1.82082145403474    1.57743193457686
C         9.44831406557446    1.74223171454095    2.99704575437147
O        10.42806412499479    1.15135432544868    2.77260740166264
C         7.03152118674012    2.30720474900987   -0.16130481664749
H         7.93507700742007    1.74888363600380   -0.42353260966418
C         5.91760737203756    2.01872949820342   -1.15930445190893
H         5.78221693877265    0.94960309475686   -1.30371302087955
H         6.15503562080277    2.46408124097223   -2.12462338031804
H         4.98187799101876    2.44437156010966   -0.80356259196632
C         7.36716170906714    3.79425458266176   -0.10741731730286
H         6.47491677059672    4.36618768272428    0.14114989463844
H         7.74929484660672    4.14602615694706   -1.06419466316958
H         8.11848725208522    3.97330757920160    0.66377952222378
C         6.06907812749388    0.03697039203322    1.46091692742305
H         5.22039547807280   -0.04095866259670    0.77284181957904
C         7.23608385466867   -0.81510923523792    0.98476005370922
H         7.48882074982291   -0.59782349197099   -0.05026654158351
H         6.99160989092784   -1.87334380968218    1.06165442028180
H         8.10996424961915   -0.61479692312328    1.60225899359683
C         5.62547921342697   -0.36617797387792    2.86288899372260
H         6.44808897067352   -0.20954468598149    3.56275160415162
H         5.32754022477572   -1.41294403604603    2.89489126467549
H         4.78330835688094    0.24419465627724    3.18406551332193
O         5.12262502071713    2.53049781965365    1.68748569392841
C         6.01068248562438    3.34717093897100    3.73962658248018
C         4.93885182402617    3.26513650231783    2.86322382911418
C         3.70494134205909    3.86483199189103    3.11765393247729
O         2.72794141851530    3.70783299515438    2.16385882629285
C         1.46794576192221    4.27064531309363    2.41152882729941
H         0.85284406893382    4.00992117228254    1.55101460097145
H         1.52061967801671    5.36204607092868    2.49845390076095
H         1.01144994817959    3.85915795239559    3.31889393302641
C         3.56083065459127    4.57073742786722    4.30744701635489
H         2.62734398609247    5.05640753116715    4.54471996814969
C         4.61044092538383    4.65304205091202    5.21329237662533
H         4.46527739462123    5.19549442279665    6.13872270522333
C         5.81969860939233    4.04268593866828    4.93724156328670
C         6.98837442004264    4.01281290499699    5.88498920736167
H         7.00866519045610    4.89749432986373    6.54074435384267
H         6.89866218382728    3.12582061583810    6.51722839612071
N         8.25578171151906    3.90756508132858    5.12465990644185
C         8.55267245646286    5.25487414999664    4.61203560826777
H         7.65973831245860    5.60750845211162    4.08935198271266
H         8.75779011517318    5.92932400794657    5.45672775224185
C         9.73843285207137    5.31818529122924    3.64391511256741
H         9.57995427717836    6.14420984234952    2.93663676115892
H         9.79553883245875    4.38063765460717    3.07700172662427
O        10.99714967074276    5.46047598455232    4.26694539473753
C        11.28216236430889    6.73653573871880    4.79790113160962
H        10.42863513914550    7.41244011306130    4.68758395577263
H        12.13531218790996    7.15433481574285    4.24553981357483
C        11.67043585274995    6.66063491416971    6.27514423111904
H        12.37396444543686    5.82859591776065    6.41643529891586
H        12.16966300056766    7.59886781387888    6.56288065539889
O        10.52290422986335    6.46418480235754    7.07164225817327
C        10.81213434985389    6.40370891637525    8.44968726802455
H        10.96672573274001    7.41755020192939    8.84867235821416
H        11.72106894292286    5.81243075231810    8.62178106151257
C         9.65777119121717    5.72267164686423    9.17698175788135
H         9.70298421107467    5.95130242064913   10.25249332569864
H         8.70325398630889    6.09719376557041    8.77934867585865
O         9.77680330764800    4.33823925608743    8.96261351182354
C         8.67656587293310    3.57539539673451    9.40240482823178
H         7.73530861682561    3.98958164667022    9.01359656898674
H         8.63128244220820    3.58731410187172   10.50207667576733
C         8.83700550238247    2.12957413122477    8.90964013286673
H         9.90150120327134    1.86713556762082    8.94838361944523
H         8.27913433977563    1.47333935317671    9.58486686877074
O         8.30637085768612    1.88523496960127    7.63230091655211
C         9.17167236010980    2.04355306335021    6.52161547429186
H         8.72225730783732    1.43644557345427    5.72192857048227
H        10.15753352885908    1.62936658438842    6.76763685172803
C         9.35056141251519    3.47350632428707    6.00523259813878
H         9.45817606558007    4.16074413615129    6.84932220119258
H        10.27425569399966    3.50807864749434    5.42519470645200

