39
CSD_code = AWOYOA | q = 0 | S = 0 | Stoichiometry = C23H12CrO3 | MND = 9
Cr        6.12471093950120   13.36870792729006    0.29618871472831
C         7.07723914588815   14.50504773842312   -0.77497732233865
O         7.66670758259684   15.27561666029398   -1.39760282524924
C         4.70484580172482   14.48251489064263    0.00996666793595
O         3.82736866291804   15.21934923016510   -0.11440224335881
C         6.51079143271389   14.61929768255112    1.55940006300021
O         6.72684637656871   15.46608302468285    2.31424687534214
C         4.78384325128717   11.64000069502877    0.85159126128892
C         5.88786967237531   11.66075775207371    1.72402333364777
H         5.73615889330184   11.63212734065230    2.79546305494570
C         7.20704575748048   11.60265275976528    1.23660385939671
H         8.03404632207960   11.56139820805577    1.93690217268198
C         7.44084909310898   11.58294075696906   -0.12969248394922
H         8.45221574219438   11.50934178969674   -0.51389016342925
C         6.35343696494306   11.40678278343232   -1.04535706293210
C         5.01167678435192   11.40694450890454   -0.55011857109119
C         6.58357137481281   11.21660585109144   -2.41874244296580
H         7.60041404332717   11.20762455472461   -2.78466957645555
C         5.52601615986733   11.04269809776338   -3.27724888681418
H         5.70388914971031   10.91339888170556   -4.33404417022364
C         4.22144984330296   11.01613833953224   -2.79672562134608
H         3.42445234408573   10.87206521610502   -3.50689368143105
C         3.93554303860297   11.17065710690774   -1.44567263960059
C         2.57872397912778   11.09545534654091   -0.91671654368305
C         1.50042274535969   10.74291904834502   -1.71102610977100
H         1.64628330461284   10.47784117726068   -2.74558205065847
C         0.20004770864632   10.71509899697952   -1.20921104215197
H        -0.61164006838180   10.43337822905517   -1.86352082272364
C        -0.04528158789803   11.05399993224494    0.09283917393854
H        -1.05161507839797   11.05601296703358    0.48481681796689
C         1.01666776534147   11.40606255552057    0.94876129703626
C         0.77384554614112   11.76512515951584    2.28902711619863
H        -0.24392839591790   11.76555530893446    2.65007211974640
C         1.80906160678930   12.12251060891890    3.10935799920839
H         1.62031620734902   12.42457009405843    4.12878639384445
C         3.12042336215588   12.09460244757541    2.63920282416115
H         3.90772039250803   12.40016418669345    3.31071807360179
C         3.41387254627610   11.71488531103379    1.33882108686370
C         2.34779158954405   11.40296683383302    0.45190535463958

