33
CSD_code = AWOYIU | q = 0 | S = 0 | Stoichiometry = C19H10CrO3 | MND = 9
Cr       10.41327438440532    1.31535001588781    2.05533005884822
C        10.67239822955913   -0.13584163630367    3.12962922798464
O        10.80344543898561   -1.09600939597450    3.75585044766962
C        10.57739530200154    0.04462214254708    0.76226550819351
O        10.63974370772296   -0.80791847053573   -0.01394787013171
C         8.67622432173853    0.75327377645595    2.03404825770158
O         7.59675815485352    0.34918065920992    1.99591705716545
C        10.14452591415184    3.42008518635156    1.15393839478508
C        11.42229060515851    2.90580268063177    0.83041863523956
H        11.74634453401885    2.92050658006188   -0.20492537518062
C        12.33072603388882    2.55057429038342    1.83795475632223
H        13.34234061656582    2.26284862070710    1.57523375105460
C        11.93171461607110    2.56263479151923    3.17411599694053
H        12.64324567075095    2.31014529217464    3.95329468370689
C        10.66304234629362    3.08075134156698    3.55367259976378
C         9.76670112291580    3.51330697575201    2.53211605088881
C        10.26757605726920    3.21683775881491    4.91376199443397
H        10.95850577205104    2.89718920586421    5.68184034712493
C         9.05957179965383    3.73925110768152    5.24500355223233
H         8.77048906632215    3.83479769170967    6.28102750037519
C         8.14125911639004    4.17836478027728    4.24848013459623
C         8.50913562852051    4.07226738804551    2.88479780151410
C         6.89087295406526    4.71605837583562    4.57012603666252
H         6.60369785896270    4.79203170965898    5.60847812933229
C         6.03043774084353    5.14045227640325    3.57667796394483
H         5.06687340539276    5.54937173453543    3.84307632051049
C         6.38821778907386    5.04904519135007    2.24245690590595
H         5.70794279790621    5.38486364539192    1.47382655067551
C         7.62465519916970    4.51916345340320    1.87222368205203
C         8.03158089059958    4.41565226002703    0.50745689866348
H         7.34998969863275    4.76796648691628   -0.25240545894225
C         9.23382683578213    3.89443643972360    0.16397585262741
H         9.53109639028175    3.83093764392625   -0.87391639266106

