46
CSD_code = AWOYIV | q = 0 | S = 0 | Stoichiometry = C16H23Cl2N2O2Re | MND = 6
Re        6.91881763344460    2.54215624496130    2.50877994525046
Cl        7.55343289318148    0.23054509372542    2.63786185436403
Cl        6.30548395766714    4.85742451094326    2.61213967810168
O         6.50058195162706    2.41452791106673    0.91578590771944
O         7.36711874098907    2.65778725900913    4.20520216082896
N         4.89787545442938    1.99209050752955    3.10124682856435
N         8.96359206547221    3.08490704731955    1.93036312095873
C         7.69021777372477    2.73334569886601    5.52687862862017
H         8.41130951409264    1.93318817645676    5.76898783919556
H         6.77921935325548    2.55409778737702    6.12553295950285
C         8.27706555725785    4.10212334169097    5.89010658445279
H         9.25602977876169    4.22478098173130    5.43116093813410
H         8.37750550632296    4.18817746029725    6.96858117167226
H         7.61778827478625    4.88694204166750    5.52313815178228
C         4.30863169669174    0.93875404464125    2.54650276188980
H         4.88431598514553    0.39817411749052    1.80747865860653
C         3.02542895110446    0.53042167569917    2.89292056007844
C         2.34937337185436    1.27063377604904    3.85299032328242
H         1.34867814408202    0.98964101978141    4.14981197814896
C         2.95557190914622    2.38211048545546    4.42866963542845
C         4.24161809408876    2.70056382206766    4.01642163237477
H         4.74709638593976    3.57255225695427    4.40981214786655
C         2.42157272118560   -0.66723051851127    2.23462150163836
H         3.06487144467469   -1.53402210137420    2.37373313890973
H         2.32682830127523   -0.49579256089840    1.16370009210814
H         1.43902747802026   -0.88431973277623    2.64528707565428
C         2.26311013362427    3.20446690417565    5.46754675949731
H         1.19489761654819    3.25247683079342    5.27026768071366
H         2.66748398047366    4.21278926378376    5.49091534718419
H         2.40388379690244    2.75593136791149    6.45138912681406
C         9.50902669044239    4.22061728476419    2.35472018683015
H         8.88107188853052    4.86323038457892    2.95744572262866
C        10.80024210527527    4.60294586944355    2.01682401893446
C        11.53427263289803    3.74843609053345    1.20265317448301
H        12.54415400178327    4.00936479323317    0.91834797251304
C        10.96712310336962    2.56461607965974    0.74802037405962
C         9.66599809764918    2.27734881704736    1.14255745930318
H         9.17689159813276    1.36559313250727    0.82794322101602
C        11.37216943917777    5.88462110831483    2.53193858790463
H        11.96538131032783    5.69515166323130    3.42691893666564
H        10.57918760532964    6.58131308081177    2.78943885706216
H        12.02233639580706    6.34125319523209    1.78969457272688
C        11.70572683063537    1.62957717716492   -0.15309430272065
H        11.37433464893873    0.60698339035376    0.00407955672650
H        12.77787812262595    1.69208300681178    0.01523629946879
H        11.50887706335141    1.89052021242465   -1.19265882691886

