37
CSD_code = AWOZAN | q = 0 | S = 0 | Stoichiometry = C21H12CrO3 | MND = 9
Cr        2.03796187199218   14.00731290200481    3.61584466896137
C         2.17340454786019   13.42297588069196    5.33803014559955
O         2.32609940450780   13.06412902930042    6.42436417218099
C         3.28738681692779   15.20796058637030    4.18223719642792
O         4.11093088136105   15.91407829599826    4.57766187464909
C         3.49800120340505   12.93540941154527    3.39961768475706
O         4.44195449817331   12.27624983035320    3.32216187064342
C        -0.17905929796110   14.43784644835282    3.70918566537053
H        -0.85123794472333   14.60259169910711    4.54428467844308
C         0.42256995993256   15.51461785281993    3.07411086675082
H         0.23588320359769   16.52732663722550    3.41094513438351
C         1.21752494867727   15.28919973481930    1.92818441099270
H         1.63030596261587   16.13422838969788    1.38930044340086
C         1.40108043535949   14.00086503584412    1.44149661401641
H         1.95526266388009   13.86982980297061    0.52168537860940
C         0.77430362074110   12.87877921740133    2.05718445213967
C        -0.04569164376249   13.11460120695445    3.19769737213549
C         0.89631978803371   11.53102145009698    1.53921995050214
C         0.16523388797689   10.47962358904037    2.17936660815859
C        -0.65966010299262   10.77697929680367    3.30554312625992
H        -1.20579101752806    9.96422782621673    3.76075937561430
C        -0.75684829990298   12.03198116717970    3.79711625336552
H        -1.38336390473696   12.24521422323247    4.65220702487754
C         1.69880107140867   11.20774806271310    0.45637602061778
H         2.28567576331079   11.96391303847701   -0.04286066920545
C         1.80532260975347    9.89909032433329   -0.02674716339723
C         1.06739108698092    8.85855688419907    0.60730786419870
C         0.26414193075864    9.18213834073353    1.70267298368415
H        -0.29158768376601    8.39725005198247    2.19660255198846
C         2.62813606409798    9.57441582570474   -1.13063442013234
H         3.19066733269501   10.36453627489851   -1.60724541730155
C         2.71165171150485    8.29097709603238   -1.58410350147228
H         3.34186019445844    8.05026057961761   -2.42753716895613
C         1.97889820514469    7.26364041272044   -0.95905898897614
H         2.06024823645090    6.25453102810508   -1.33530385864059
C         1.17802352695177    7.53899531066239    0.10959106147296
H         0.61509846681540    6.75509725579303    0.59563573787994

