43
CSD_code = AWUBAX | q = 0 | S = 0 | Stoichiometry = C17H23AuIP | MND = 4
Au        8.44783470958537   -0.77766622815340    4.15359148208619
I         7.81539540547693   -1.86740489320258    1.83682830331809
P         7.56560994425125    1.20000689969968    3.38603103088535
C         8.97000020431358    0.26697003548602    5.81976763987894
C         8.56541333424186    1.62890088651843    5.87617015700948
C         7.84338068305043    2.24975986113476    4.82422003803729
C         7.41005137516473    3.55200191214799    4.91993216214872
H         6.83833099671043    4.00440659488943    4.12261100102147
C         7.70345089528321    4.30937392269450    6.05831277191819
H         7.35914603623126    5.33116536155114    6.11897499673581
C         8.42686543302564    3.75574889164748    7.07799031178602
H         8.66689610949847    4.33667729911374    7.95699809570938
C         8.87001660651437    2.41908324975238    7.02052269182515
C         9.60428272901455    1.84688413342908    8.07812328680204
H         9.83486659597134    2.45331400567137    8.94191051681631
C        10.00926228895058    0.54790688405954    7.99815448389598
H        10.57752736705760    0.09735831936977    8.79866102315498
C         9.68639106227767   -0.23217644927915    6.87543685207649
H        10.02568710695469   -1.25473497802465    6.87640962425346
C         8.51469025226968    1.93880239523788    1.98030916833628
H         8.23175118224937    1.33217321945331    1.10779584817221
C         9.23256264379720   -2.51013783389616    4.90723286990000
H         9.04395531865547   -3.34713908846583    4.24128187255024
H         8.79364011310247   -2.76044638477774    5.86866889181766
H        10.30967805549203   -2.43512175630460    5.02886564446611
C         9.99682854812008    1.72381784535491    2.28057730507272
H        10.60755850412224    2.12632408680134    1.47455652027691
H        10.22680689009796    0.66216154741973    2.37897653048566
H        10.27818980006751    2.22319255396333    3.20947464452904
C         8.21351629285324    3.40813128486401    1.70766842460274
H         8.71144497352083    3.71103281089299    0.78784703752455
H         8.58965449809131    4.03269335942056    2.51620767187871
H         7.14658734406726    3.58746007658142    1.58798303825824
C         5.75980365148382    1.41573099271033    3.02475414434358
H         5.53024179754729    2.46979324333400    3.23885475750146
C         5.03356795680183    0.53062664113687    4.03734630571096
H         3.95923944601236    0.69937854961777    3.99434981598242
H         5.37614559661685    0.74242870936985    5.05293704603799
H         5.21943528299763   -0.52161074662334    3.82195922147473
C         5.35258831515039    1.08615554531260    1.59421019424757
H         5.84838687194826    1.73356299808968    0.87407111008563
H         4.27743552133013    1.22470246504622    1.49028935025800
H         5.58348226003310    0.05371177695431    1.34513611713137

