77
CSD_code = AWUTER | q = 0 | S = 0 | Stoichiometry = C36H36N2NiO2 | MND = 4
Ni       11.67631378270313    5.63810617245737   -0.00000049675391
O        12.10507252089857    5.64627023706324    1.77923797569997
N        13.56846443884040    5.69684332689741   -0.47907934636841
C        13.86874087553677    5.51112322862708   -1.85139595545369
C        14.04448448443399    4.21177736584759   -2.33971057475973
C        14.39483617201363    4.03735082383538   -3.66981578950486
H        14.54243641121053    3.03689017247930   -4.05212210207737
C        14.54434479687888    5.12789337886148   -4.50869397332883
H        14.82424038811067    4.98074420230750   -5.54138118241788
C        14.30236290365742    6.40408466259221   -4.03308893130369
H        14.37554823165528    7.25040974294020   -4.70097275070593
C        13.95936726823423    6.61409158333912   -2.70631592854749
C        13.80672640177860    3.04765358753119   -1.42595833284678
H        13.69311774412651    2.12581893817348   -1.99130065046108
H        12.89577366293594    3.22879466384940   -0.84398594781963
H        14.62746362500785    2.92201436919872   -0.71871656545974
C        13.65758311284303    7.98490070762378   -2.18243206121700
H        12.79260774963036    7.93700812928084   -1.51623916257785
H        13.44152154949887    8.66929745951365   -2.99915463560481
H        14.49515356758029    8.38434180162773   -1.60868076381614
C        14.58203014665059    5.84261540350041    0.34380573556869
C        14.43769139489433    5.98024160583939    1.73150986949802
H        15.32280862031373    6.12202875358232    2.32825999029706
C        13.20994900807126    5.87311612585641    2.36686204627032
C        15.98557634929280    5.85390413459567   -0.20666801594354
H        16.20798331082902    4.90362971871974   -0.68973207199548
H        16.70898520785727    6.02209983275686    0.58585739297635
H        16.09546433085899    6.63266275742261   -0.95895786896441
C        13.14392031626673    5.99087455365067    3.84633754954025
C        13.93314564303476    6.89897959829957    4.54545262268476
H        14.61481835790308    7.54394675624581    4.01111786946429
C        13.82418350376165    6.99889092106903    5.92035451051480
H        14.43514368468360    7.71073340250753    6.45672198915864
C        12.93201252645205    6.19456588391276    6.61056061084264
H        12.85178912868733    6.27555976300472    7.68487097992940
C        12.14060342175027    5.29255195888875    5.91913275346629
H        11.43996492211332    4.66639487365448    6.45150013579482
C        12.24140283428336    5.19468312499277    4.54473387943741
H        11.62550437136085    4.50105044416680    3.99430070237710
O        11.24754605289726    5.64597777297942   -1.77922909134140
C        10.14270628767495    5.87296136839624   -2.36687555178346
C         8.91495393498398    5.98014704135442   -1.73155935602880
C         8.77058481994027    5.84252888384235   -0.34385358860704
N         9.78414692060037    5.69688174391433    0.47905849008699
C         9.48388185267152    5.51122631297778    1.85138658185334
C         9.30824490866845    4.21189065663991    2.33977547234436
C         8.95780572865318    4.03750346486773    3.66985992433096
H         8.81031994094661    3.03704967105806    4.05222375826925
C         8.80812848798960    5.12807963559426    4.50866564819263
H         8.52819130332839    4.98096390148794    5.54134605573473
C         9.05003753036818    6.40426029323452    4.03300519583718
H         8.97676051704194    7.25062147774547    4.70083785176959
C         9.39312360614639    6.61422857230329    2.70624411217552
C         9.69475725291316    7.98507185164423    2.18235237783189
H        10.55895726718830    7.93711696225252    1.51517630239448
H         9.91194282935060    8.66917227438860    2.99900849905694
H         8.85664008150751    8.38493814000702    1.60970386634642
C         9.54625029361547    3.04774503081508    1.42611525387213
H         9.65993260932293    2.12595813873553    1.99152492274879
H        10.45724599977647    3.22898185255294    0.84422534216759
H         8.72560666509356    2.92194789260834    0.71879111906140
C         7.36702054863268    5.85368401370295    0.20657252732410
H         7.14457474530878    4.90321096170429    0.68923220015150
H         6.64364443208191    6.02220421487570   -0.58591471424765
H         7.25712583436934    6.63213356878850    0.95917634382132
H         8.02985940122515    6.12197308189803   -2.32833542688270
C        10.20883043830484    5.99081764933064   -3.84633941324840
C         9.41985305347654    6.89917350369110   -4.54540523648609
H         8.73825078138186    7.54419644954955   -4.01104631868809
C         9.52898770153705    6.99926506579909   -5.92028091541946
H         8.91823766471368    7.71131578833354   -6.45661126890961
C        10.42106760703234    6.19485661245173   -6.61050749727778
H        10.50144025065219    6.27600575242920   -7.68479515445229
C        11.21221439747405    5.29257563956805   -5.91912743971834
H        11.91277734116417    4.66634858385566   -6.45151168997090
C        11.11125534761731    5.19453638270279   -4.54475278072351
H        11.72695879758439    4.50070562521992   -3.99434990719494

