63
CSD_code = AWUTAN | q = 0 | S = 0 | Stoichiometry = C26H26F6N2NiO2 | MND = 4
Ni       -0.00010792377938   -0.00003308440699   -0.00004181274863
F         1.11705995680751   -3.42907184999521    2.73163685133022
F         1.01071329205373   -4.96922788158448    1.23840484769234
F        -0.79237914882287   -4.04322985323947    1.94968393674828
O         0.13919609494990   -1.58353000535856    0.91499813513254
N         0.79616657702835   -0.82546531989707   -1.57737273458725
C         0.97561466310643    0.06360237596723   -2.67001179761507
C         2.14729188728400    0.82302241993783   -2.74439152406815
C         2.30979797062705    1.68950949927690   -3.81372014607694
H         3.20743888445585    2.28634078294009   -3.87923334683445
C         1.32443854367094    1.81303562054149   -4.77707801122728
H         1.46150274210191    2.49521770110018   -5.60237896525734
C         0.14684759351393    1.09574040133024   -4.66394003669992
H        -0.63941956799294    1.23039863393183   -5.39171539955898
C        -0.04984279590228    0.22099352075022   -3.60687150076614
C         3.16042938488574    0.72229063493048   -1.64451848890167
H         3.84807505820065    1.56297121160844   -1.67840134093617
H         3.73657083210934   -0.20126816857827   -1.71472810188053
H         2.64665322326661    0.72084146985578   -0.67583308497676
C        -1.34356039557122   -0.51059715891863   -3.41504950743249
H        -1.25021486983615   -1.56540039107540   -3.67632259854574
H        -2.12605183840548   -0.07065414299784   -4.02718617435438
H        -1.64005055803663   -0.45359063271623   -2.36261842356882
C         1.19063537764020   -2.06023722327254   -1.72517523246185
C         1.08547275279916   -3.03216939058239   -0.70036275681967
H         1.42273676853315   -4.03477308259235   -0.89523425824417
C         0.57309696956351   -2.71058560813044    0.52855310361187
C         1.79669261325373   -2.50114482711114   -3.02829654586553
H         1.10469661505835   -2.31800551935926   -3.84822285863572
H         2.04708357108685   -3.55717647369720   -3.00235680937234
H         2.69842474581872   -1.92683564287775   -3.23474541458265
C         0.48119927298251   -3.79298887254310    1.60999098194312
O        -0.13953449787642    1.58342716692826   -0.91512765486810
C        -0.57350961259328    2.71046398032390   -0.52871242194165
C        -1.08581014752061    3.03207147019606    0.70022864977508
C        -1.19079483528997    2.06018976210640    1.72510683376181
N        -0.79628260505160    0.82542929637154    1.57732273037335
C        -0.97550754698686   -0.06357349081092    2.67005127234270
C        -2.14715101141295   -0.82301540066985    2.74471960327795
C        -2.30941760363424   -1.68943274060690    3.81414269877238
H        -3.20703007654802   -2.28628305654358    3.87987695665631
C        -1.32386171427626   -1.81286734115044    4.77731074523831
H        -1.46074268290389   -2.49499445114627    5.60268756880751
C        -0.14631046620246   -1.09555057731040    4.66388629190586
H         0.64010479396760   -1.23013638802628    5.39151493893602
C         0.05014318342135   -0.22087485768713    3.60671614531880
C         1.34380018305520    0.51073945600844    3.41457261097347
H         1.25045716993331    1.56557498812985    3.67571562177883
H         2.12641767693252    0.07091136004880    4.02663023571783
H         1.64010604729655    0.45360173644381    2.36209350301301
C        -3.16051800404401   -0.72238913600060    1.64504868808110
H        -3.84810421290459   -1.56311174151159    1.67910825416956
H        -3.73670485554865    0.20113509984548    1.71534098261739
H        -2.64694423001965   -0.72094735146407    0.67625975440644
C        -1.79669361558183    2.50114318396766    3.02828635494081
H        -1.10459442383648    2.31803616100187    3.84813333778187
H        -2.04709247299941    3.55717270513493    3.00233736469785
H        -2.69839844140135    1.92683983883306    3.23486939818588
H        -1.42313608283017    4.03465903531426    0.89507544518309
C        -0.48178435413671    3.79282066442990   -1.61021157004675
F        -1.11757440837973    3.42873435039398   -2.73184212609043
F        -1.01149677935621    4.96899253523201   -1.23869506541401
F         0.79175733427479    4.04325459898357   -1.94990813279133

