69
CSD_code = AXACUX | q = 0 | S = 0 | Stoichiometry = C27H30BCl2LaN8 | MND = 7
La        6.77952971813996    7.79672145251443   12.98476263921654
Cl        9.04928797104764    6.53183821671855   12.92710569329184
Cl        7.67716015659464   10.19554514997325   12.56446692220988
N         8.07165184044059    8.26545136498825   15.26648331966517
N         5.71247233734880    6.93920156932765   15.43302581116908
N         4.96188915422354    7.39296838621999   10.19579715570728
N         6.20135799317006    7.70042805937099   10.63911699170902
N         3.59820855391102    8.30934331439028   12.09618805460423
N         4.51500805751818    8.65047094059734   13.02656813707380
N         4.18775978076340    5.86486384223413   12.02670075854048
N         5.41111463100420    5.72371302687965   12.58082423096029
C         9.21595505381546    8.91351681392312   15.18138485069022
H         9.27435405032000    9.67666561578093   14.41218108294635
C        10.30959939161285    8.65023288777964   16.01529304725687
H        11.22612436976462    9.20265862566498   15.88279719355112
C        10.19648998710449    7.67971237455705   16.97829138005511
H        11.02006053512200    7.43858622012153   17.63518267895017
C         8.98131081404432    6.98566393776948   17.10968581964232
C         7.94169518583618    7.31581617533876   16.21303023770040
C         6.68356060681535    6.62204255236506   16.31044534636169
C         6.50516142495726    5.64995042670890   17.32236735479544
C         5.25227268341643    5.01940008188717   17.40195759197799
H         5.08345013089394    4.26510443743796   18.15737370535455
C         4.26256447135332    5.37901732069346   16.52010996946334
H         3.28574003956145    4.92370444641817   16.55865683792462
C         4.54337161522017    6.34605304956596   15.54971928453519
H         3.77922146819896    6.65159316120400   14.84615779287267
C         7.58098001863683    5.34235138550438   18.20286505398428
H         7.42170374706999    4.58493083317086   18.95634742175966
C         8.77102994679009    5.97958490265050   18.09556258172917
H         9.58821577619628    5.74073745646104   18.76027511071277
C         6.98086345508711    7.89610674389362    9.57523491230215
C         6.22465881037231    7.71233583392861    8.41477323445154
H         6.55950473236924    7.79894627053216    7.40088887500350
C         4.95031238372351    7.39377765975606    8.84877468967136
C         3.75186512736130    7.09186366713712    8.02138972962338
H         3.38670545536795    6.08683822983421    8.22535322477336
H         4.01296389719190    7.16399964273900    6.96909619985816
H         2.94778726995784    7.79433947946841    8.23278573552969
C         8.41807405281871    8.25728370610249    9.71320708743433
H         8.92478636191536    7.55658003026320   10.38168778959683
H         8.51397205373289    9.25768568463678   10.14115183342645
H         8.90703156533228    8.24060461927327    8.74215765527091
C         4.07333162601193    9.74335042333330   13.65023944108624
C         2.83937058703246   10.11359654126982   13.11257553543630
H         2.22924997267582   10.94730485657837   13.39574171663872
C         2.57334695600908    9.18140102928960   12.12357126922246
C         1.39350088258782    9.11523586795155   11.22138028542866
H         1.70139246581776    9.22869828756776   10.18356355817791
H         0.70179859617160    9.91532693230724   11.47077564105091
H         0.87981346029483    8.16054604799222   11.31870201813430
C         4.86433032858354   10.40151349847257   14.72621453539646
H         5.76355705654380   10.84858409568884   14.29617901616146
H         5.17251497348314    9.67270875118634   15.47869062873021
H         4.27605242170256   11.18403483336433   15.19965318100183
C         5.45443925153536    4.52520805785165   13.16045981149737
C         4.22436130939029    3.88272974350456   12.99186999821470
H         3.94565626377364    2.90909868374872   13.34158431179540
C         3.44713711409107    4.76566800681425   12.26453026718967
C         2.04089355280297    4.58979254397854   11.81380256986184
H         1.41682160345352    5.40744550067672   12.16976379289931
H         1.65115369320229    3.65185214566922   12.20060861674868
H         1.98374736341338    4.57014282763462   10.72698169788674
C         6.67117636529732    4.00690933822424   13.84461991592777
H         7.50756307693804    4.69150061987615   13.70463837510887
H         6.94380556831741    3.03795430830226   13.42858828919561
H         6.48925105924617    3.87248502765073   14.91173685228704
B         3.80436910493782    7.09245779478078   11.16675628888341
H         2.81483867031815    6.86862464063249   10.56684736264665

