59
CSD_code = AXALEQ | q = 0 | S = 0 | Stoichiometry = C23H25N5NiO5 | MND = 6
Ni        5.20583135979599    5.56473943659933    3.34008879874721
C         6.94483834716820   10.42240253702833    2.35005928918094
C         5.88449280457073    9.76240416121303    2.99654816569376
C         4.89953528966705   10.51990379578713    3.63265503422322
H         4.09668228308355    9.98816980125488    4.12125879628621
C         4.94835355188907   11.89633737990842    3.63854154952834
H         4.17864122288994   12.46720829164777    4.13516334272073
C         5.99767367259278   12.54406997831743    2.99925392532584
H         6.04608648847034   13.62308506740746    2.99764011294942
C         6.98209989062489   11.81760558165802    2.36388824889425
H         7.80290603976167   12.30692656882731    1.86298572373446
C         5.76238696291311    8.29388636728007    3.03588124030331
C         7.50374293932366    5.50566239934299    1.97084311810352
C         7.25796327256611    4.08827784231466    2.07903294434558
C         8.20509929693424    3.06284127563580    1.53917244588305
H         8.33849950358562    3.19491502466666    0.46688214881774
H         9.17733560770644    3.14667163309066    2.02226338452478
H         7.79961603457025    2.07205828300033    1.72836607255934
C         8.70760918275731    6.08884800542904    1.29888846335418
H         9.40224346706350    5.31736471840726    0.98635951316528
H         8.40000629545803    6.66716241083886    0.42747595927703
H         9.21184334352424    6.77362381323041    1.98055605703183
N         6.73519309659434    7.59117309114515    2.42952989513280
N         6.59420218338093    6.28251854324353    2.49435066908609
N         6.14709451929829    3.79387372202180    2.67147583231053
O         7.93077750213239    9.77006331490772    1.71495044009206
H         7.74494021406666    8.80211627948045    1.80345399777515
O         4.80171287669927    7.73972057323300    3.61120392820603
O         5.81094326739432    2.48276606857766    2.81719967810209
H         4.86491383955816    2.51043840885936    3.22116731411402
N         3.82100477730974    5.59687839605394    1.54007407899989
C         2.74489252593729    6.35361372752341    1.75103056596464
H         2.89618403341354    7.23217940744980    2.36414261951341
C         1.49516468609645    6.04779638660910    1.23773553486443
H         0.65362208250824    6.69031021165112    1.44528467161083
C         1.34885339688501    4.90502640968709    0.46911332665941
H         0.38613559051387    4.62814839744098    0.06453540743748
C         2.46905056515915    4.12634536667097    0.22940358042834
H         2.40820487889666    3.22989901901110   -0.36740408341151
C         3.67859073323306    4.51173550078305    0.78205180364098
H         4.56959588024064    3.92441435990412    0.60495649451983
N         6.30823666515643    5.62888725363747    5.31283628415836
C         7.22362167634830    4.74604106882046    5.69980587248140
H         7.73901726653637    4.20691057480253    4.91553192953701
C         7.52791668315532    4.50800624572422    7.02982729303949
H         8.27692976537811    3.77728799231106    7.29230017367695
C         6.85046533841305    5.22151849725067    8.00535005944750
H         7.05841350579484    5.05902950145695    9.05289457760298
C         5.90229472374754    6.14816427321167    7.60474531221445
H         5.35298721680110    6.72943423571983    8.32873172158747
C         5.66281478640322    6.31831735648549    6.25062919437510
H         4.92952946083930    7.02847567927198    5.89241982103979
C         1.78835002065599    3.85170697447966    5.11708170359299
H         1.52847014438979    4.87479992476668    5.37121716545306
H         1.91299622574750    3.26604870102540    6.02515559975396
H         1.00240304205493    3.39606256538297    4.52038221365188
C         3.09853862733306    3.82128727198067    4.33019030837063
O         3.71948996840462    4.91441323473305    4.28693088207861
O         3.45056137661141    2.75212709180061    3.81150979824085

