73
CSD_code = AXAVUQ | q = 0 | S = 0 | Stoichiometry = C30H34ClF5P2Pt | MND = 4
Pt        1.21027806854327  -10.06210831724968    4.08348846761620
P        -0.57583798986745   -8.61898708369131    4.13023413352660
Cl        2.36309970333648   -8.34365783528764    5.16445733546132
P         3.17264979768260  -11.24134650721129    4.00205266960903
C         0.10363030885099  -11.51194257011154    3.20853062522272
F        -1.22199389101667  -11.55384689531899    5.14723268367171
C        -1.00519207972526  -12.00462230035431    3.88866437164794
F        -2.97136075219684  -13.32657179559823    4.03828816175866
C        -1.90421611272056  -12.90592080758548    3.34190127569139
F        -2.55851188185384  -14.22461381209571    1.48568609956363
C        -1.69599567436504  -13.36440836594453    2.04575360503024
F        -0.37533078582779  -13.36050762053155    0.08558447414012
C        -0.58764784373997  -12.91902405573969    1.33533648804016
F         1.35358588089267  -11.59422993142735    1.21333289954334
C         0.28280534051801  -12.01185000253210    1.92549659368217
C        -0.15314138254556   -7.09134240830735    3.19066314644996
H         0.90104649973367   -6.89070075865405    3.40551181680296
H        -0.22985546905248   -7.34666293986142    2.12953623978220
C        -0.96686573097853   -5.83369830318960    3.48876163343637
H        -0.67515433258877   -5.08122947969741    2.75146997495327
H        -2.03325656526574   -6.01948031020123    3.34922218338503
C        -0.68822644343725   -5.29467189415088    4.89590595473234
H        -0.60759151512199   -4.20625655649966    4.86313274954543
H         0.27966324824915   -5.67414850067160    5.22742400574747
C        -1.75823258326846   -5.65097975699519    5.92877788270265
H        -2.63024039724823   -5.00810416412326    5.78419030904787
H        -1.35714213317669   -5.43861461384064    6.92230155684481
C        -2.22867548483502   -7.10333844695759    5.87267491661906
H        -2.88082907786106   -7.23677472663190    5.00703176893360
H        -2.83472115915209   -7.29685953073624    6.76131495821481
C        -1.08236487378527   -8.11579068086177    5.81900894087181
H        -1.35451847873988   -9.04638528777885    6.32725561728325
H        -0.18992195155521   -7.73172475695679    6.31865999818273
C        -2.08505534095211   -9.23737992368627    3.31670410143271
C        -3.21407925074898   -9.65902331336789    4.01120474021110
H        -3.27304826232641   -9.54083947561342    5.08190617946922
C        -4.26290293313944  -10.26392745559711    3.34006434541247
H        -5.13095572049179  -10.59128772947295    3.89245426451657
C        -4.19448245018296  -10.46881868246020    1.97304171306600
H        -5.00961559960978  -10.95126268996579    1.45539895303638
C        -3.06568847381958  -10.07031127737979    1.27472435477902
H        -2.99739911968277  -10.24290175538678    0.21078175193855
C        -2.01855802289480   -9.46663675052065    1.94314715441337
H        -1.12563548990497   -9.19086910867859    1.39745336027616
C         3.18663517558326  -13.07020700857876    3.78001868728660
H         2.95912534436875  -13.28609548135377    2.73377085789907
H         4.20781087508932  -13.41100139984815    3.97287751377884
C         2.19537980504245  -13.78811678646598    4.70100183366435
H         1.23204360106032  -13.87569758637594    4.19357957272207
H         2.55609530158527  -14.80222337698518    4.89248472318209
C         1.96032629661968  -13.07051503886412    6.03056888655707
H         1.25845026766742  -13.67258891283810    6.61125558635838
H         1.46381156333370  -12.10871198463347    5.83298715904095
C         3.22743431195636  -12.81765209338968    6.85682788066808
H         3.01062367057840  -13.01813699895328    7.90803415011219
H         4.01708240415929  -13.50868110622862    6.55398149738885
C         3.73369405438027  -11.37884865819969    6.75565948927636
H         4.48982272259227  -11.20936856133422    7.52683672681176
H         2.90397529917352  -10.69442594295084    6.95257320891321
C         4.34350974423484  -11.03074219184530    5.40263528574318
H         5.22870818192660  -11.64382087975372    5.20287485046446
H         4.64385043017286   -9.97914110705692    5.40203184146065
C         4.13752071538692  -10.62738407947930    2.59482793221557
C         5.37564852695438  -11.14580399571829    2.23223617341093
H         5.80529538720494  -11.97033226818926    2.78338209807012
C         6.06077817392546  -10.60768821687748    1.15825681080918
H         7.02214085639536  -11.01229254925545    0.87692475413094
C         5.51847378555578   -9.55189374101709    0.44319632468507
H         6.05934374643363   -9.13532022571924   -0.39364257457314
C         4.28469244061475   -9.03284734532245    0.79921622884526
H         3.86188951496056   -8.21146121897931    0.24011424849115
C         3.59703452809521   -9.57003302748770    1.87089677492113
H         2.62438968085414   -9.17680903737278    2.16332702139206

