37
CSD_code = AXAZII | q = 0 | S = 0 | Stoichiometry = C15H15MoNO5 | MND = 6
Mo        2.42677973733859    3.05540542798904    9.14715075430094
O         1.81698757101700    4.58009771833978    9.28138797346567
O         2.58393901627335    2.58710566718129   10.96427181085410
O         1.37393602359671    1.83818317871447    8.79096200450141
O         3.87631921701475    0.85150419856965    9.04303886831088
H         3.01896242263076    0.63521843857793    8.63741048796257
O         3.25369297235550    3.11928838546790    7.49677013109230
N         4.47137084813520    3.75749165489593    9.73227300561354
C         3.55465214958832    3.02767975238987   11.73913989428946
C         4.65286408398622    3.65178626875088   11.10437817853601
C         5.06857459483534    4.65270155120891    7.58007298946907
C         5.22771090632231    4.49741287695642    8.98877106870727
H         6.04095163019515    5.06998857098264    9.44119369019663
C         3.94201344641944    4.13485211999538    5.48818678166877
H         3.16317326081418    3.59224329643723    4.97120738661486
C         4.65408702154213    3.31586454994397   13.85370498231176
H         4.66052796773520    3.19520476023329   14.92700595826364
C         3.56438765277152    2.88015797581871   13.12913299319607
H         2.71537208956856    2.41942106245499   13.61119070712616
C         5.75265238858424    4.06383315520923   11.85891682897505
H         6.61390120464343    4.50530698929654   11.37831111826664
C         5.76086322411465    3.89927030691753   13.23301925209748
C         4.05883722330622    3.94519997679770    6.87435580941702
C         4.78653485445854    4.99457783872395    4.82269733794900
H         4.67866058479750    5.13292472087905    3.75733597360230
C         5.91835836093685    5.51676912968216    6.86763740114265
H         6.68527503113393    6.05289708011349    7.40834210634320
C         6.92949225459738    4.34910347056077   14.05776162102319
H         6.64967580327867    5.20763157361616   14.66788618802842
H         7.76735543738341    4.63468086280982   13.42742752419164
H         7.25138541100090    3.55556949645044   14.72978846115191
C         5.78141814334112    5.68839930063996    5.51177016865525
H         6.43838806584663    6.35818693837404    4.97923956131985
C         4.01759419362913    0.02754469734159   10.19060039265525
H         4.92957511446554    0.33590512902096   10.70406853071106
H         4.11297874710775   -1.02147590162658    9.89017220545290
H         3.16525134523246    0.13726778028832   10.86811985253469

