31
CSD_code = AXBOCU | q = 0 | S = 0 | Stoichiometry = C12H10Cl4N2O2W | MND = 6
Cl       -0.22963921456262    3.48336340829604   -5.92803413398162
Cl       -1.94324626544620    5.97542598513810   -7.02806157126816
Cl       -3.27126547709476    6.43220468896411   -4.03788660908920
Cl       -1.52877748403112    3.91883997662727   -2.89158881745327
C        -4.31996441699460    4.02418088585731   -7.31965683024692
C        -2.39039162856247    1.24157978554873   -6.14181904880714
C        -1.76810009256646    0.25650480433833   -6.92529186514165
C        -0.93738574270109   -0.66995007641604   -6.33593350572343
C        -4.98622725510918    5.13176050049295   -6.80057753814793
C        -5.79874950043740    5.87605073374397   -7.63468035223297
C        -5.94352606059628    5.52143689960969   -8.96687705893891
C        -5.28060750909294    4.41167570722235   -9.47290893192590
C        -4.46599605868334    3.65528918200407   -8.65469683232522
C        -0.74090378416342   -0.65401554246652   -4.96111202727028
C        -1.39270662210366    0.28457249867111   -4.17464261621343
C        -2.21175339629754    1.23421121786834   -4.74974706433782
H        -1.92387650851427    0.27361754320995   -7.99178150754447
H        -0.43876995044128   -1.40899628821543   -6.94423081147935
H        -4.87080667363592    5.40237538955014   -5.75884747702474
H        -6.31510107198146    6.73691441905511   -7.24085873211196
H        -6.57143792200766    6.11294742199493   -9.61535854878454
H        -5.39148286259723    4.14395163456870  -10.51215602261148
H        -3.92584258696434    2.80211063332717   -9.03058451909964
H        -0.08535863457146   -1.37855535139669   -4.50240897131425
H        -1.25536530939350    0.28910124907207   -3.10458628934418
H        -2.73525018049281    1.93586599225544   -4.11608883306737
N        -3.47496151711067    3.26879035505775   -6.47727514516695
N        -3.17155212219334    2.12062116901308   -6.83980190837929
O        -3.08482699161329    3.84404221606504   -5.36260028463175
O        -0.28222284217523    6.16222974307319   -4.47824759602223
W        -1.52080431786421    5.13725321786952   -4.87015855031363

