30
CSD_code = AXEDAK | q = 0 | S = 0 | Stoichiometry = C11H14Cl2N2Zn | MND = 4
Zn        1.87615401158270    1.50712772211615    0.15460517697841
Cl        3.31577882551960    3.15121440741051    0.01177493844713
Cl        0.78271226380848    0.21669077331558   -1.27245994398673
N         2.62744624866685   -0.01457324700307    1.48044291435759
N         0.52158789348995    1.68221521094545    1.81032730842142
C         3.62924287463688   -0.85420972021024    1.29986772793757
H         4.29846323348594   -0.62717477783898    0.48163937204743
C         3.82689117908699   -1.96746903494140    2.10673892766680
H         4.65872196807834   -2.62854210807889    1.92455269114633
C         2.93380760986690   -2.20549861406783    3.13914374464403
H         3.05119500937441   -3.06326561283541    3.78427210382208
C         1.88425516495975   -1.32184240625272    3.32945995547745
H         1.16628020255513   -1.47269918917078    4.12094250435269
C         1.76036645435619   -0.22919854649690    2.47335536304109
C         0.67326271174803    0.72755716429275    2.62474234086735
H        -0.00108904950766    0.57590030919564    3.47267806889405
C        -0.54068365635862    2.62737288765396    1.94363906069439
H        -1.14188123111891    2.39553205578185    2.83520445417436
C        -1.40803122567177    2.60392556992543    0.66587276992993
H        -2.45173620781467    2.75384064776975    0.94477678784603
H        -1.31990441142149    1.65410112803665    0.14067146892057
C        -0.90577315659437    3.78034137249755   -0.16399669261122
H         0.02389935810636    3.50655587924699   -0.67165224723936
H        -1.62966377647443    4.09624828326721   -0.91268008728564
C        -0.62502137112806    4.84394971119244    0.88950430160760
H        -1.56368210919396    5.27475057277971    1.24388853470769
H         0.00914623033439    5.64619524477472    0.51938411110819
C         0.05514914066549    4.05401229551271    2.00802758575928
H        -0.09158100202301    4.50017558465304    2.99034759546812
H         1.12688681698815    3.99686643652816    1.81282916280588

