66
CSD_code = AXEGUF | q = 0 | S = 0 | Stoichiometry = C31H28MoN4O2 | MND = 8
Mo        5.18237841246666    7.35950131878803    5.20026125811198
O         4.35472963560223    9.31937619385573    2.96889093208319
O         2.88871356851238    8.89137442323199    6.57933859717055
N         6.17220185144268    6.02398986063017    6.62647537403738
N         6.98661591816988    6.29710669089772    4.61315462769775
N         6.62046673875517    8.69183651397969    6.07927741031001
N         7.80889050283870    9.54438859518304    7.91101410992778
C         7.17388906490617    5.79592804560469    5.80752936752291
C         6.14651092033688    5.66103106844993    7.95315458870465
C         5.10673119849618    6.18001893985593    8.73826181793323
C         5.01520595488408    5.88578831152072   10.08272579956880
C         5.95459096772351    5.06281517594262   10.68537293173338
C         6.97497489476420    4.52578889286174    9.91875105594853
C         7.07450073018949    4.81279089200391    8.57145064762094
C         7.88917397638528    6.20963858919688    3.57731343305406
C         7.73723914183201    7.10698242256599    2.51451399752424
C         8.60658348247886    7.08687091773633    1.44537048856113
C         9.64219586747086    6.16576841797920    1.40124822789212
C         9.78783832717111    5.25605003626630    2.43459099309110
C         8.92374147536887    5.26955506081330    3.51211363701033
C         4.70450339240793    8.60359213615859    3.80500574468769
C         3.76690102585967    8.32490768464734    6.08648804195099
C         6.79661199989921    8.85174545846917    7.34572427775267
C         7.58748192053437    9.22040911045872    5.19072344770473
C         8.88314221832251    8.70447811505996    5.15770526809165
C         9.79683031628945    9.18191162445580    4.23531643145483
C         9.43941664044526   10.19442145233742    3.36204092017312
C         8.16618884979744   10.73838420171768    3.42095667423976
C         7.24210901933678   10.26038066319150    4.33179223203945
C         8.06179923416092    9.68637840934141    9.27480576865997
C         7.49461511520338    8.84763764053746   10.23209005448869
C         7.79220007433178    9.03312960071183   11.56953613903320
C         8.65640789033366   10.03816597037146   11.97036005960935
C         9.23488917476240   10.86177588396937   11.01821774274767
C         8.94295019382736   10.68829289064031    9.67952630791060
C         4.21736627279671    6.31150636684309    3.35337735534957
C         4.16260408436777    5.51689945275265    4.51536007933153
C         3.32982455697061    6.01460262066806    5.54103887705360
H         8.10689358826197    5.30167267320355    6.11243605812860
H         4.37186217796935    6.81726816483084    8.26331360986070
H         4.20671111416080    6.30247446199848   10.66624938243940
H         5.88647233580336    4.83498561693310   11.73829474300577
H         7.70387158025345    3.87114709625284   10.37512624645077
H         7.87245196241243    4.36259703825706    7.99947070217716
H         6.92845568981005    7.82345366580243    2.55869775167756
H         8.47655063946473    7.79351958380411    0.63870262521948
H        10.32354434046099    6.14979041480117    0.56384794441371
H        10.58160572079750    4.52296287868288    2.40052446109846
H         9.04360240025601    4.53338104018523    4.29431768769632
H         6.06468485356858    8.43206457206165    8.02314614118688
H         9.16002276420857    7.90921073169382    5.83828811139482
H        10.78870160740402    8.75725285787567    4.19889288424973
H        10.15231953552677   10.56008256299608    2.63925631153348
H         7.88757707853273   11.53720555665760    2.75076172584467
H         6.24787684427773   10.68025930376899    4.38674553353687
H         6.83883124566265    8.04132368774767    9.94418321451974
H         7.34701588771629    8.37723411176774   12.30221056010724
H         8.88359737239202   10.17492847654470   13.01613144818586
H         9.91635724921452   11.64333151918123   11.31860243654343
H         9.39372418805447   11.33119930427370    8.93636012186268
H         3.29039638346223    6.75914789929502    3.00305681987387
H         4.87323324407149    5.98838613448997    2.54948711680365
H         4.72008502225207    4.58539169381553    4.61513866995555
H         3.27475318696748    5.44041364165898    6.46086003435429
H         2.37804020465632    6.45143452534130    5.24935218398252
H         8.42454717311538   10.05436113632831    7.28637075597533

