51
CSD_code = AXEHEQ | q = 0 | S = 0 | Stoichiometry = C26H16Cl4N2NiS2 | MND = 4
Ni       10.40697733793721    4.15252667674848    0.82575025461806
Cl       15.98359640718157    2.24553819478245    0.89728825731719
Cl       13.74029278378882   -2.25139364592461    2.73987216572711
Cl       15.66647551834249    4.98217049152335    3.35409170980982
Cl       15.37706386773032    9.72813677193561    0.89603180160208
S         9.33965920333367    3.74358341259709   -0.96183520449623
S         8.74768419261572    4.83465773386576    1.95867258356290
N        11.94846180631097    3.55479852631773    0.01355814892513
N        11.50036257226039    4.48912592972137    2.26941755417137
C        10.66294135011064    3.15331899926671   -1.89293120847414
C        11.92598670882670    3.07650521370865   -1.23789954519970
C        13.01228299646809    2.51561520046527   -1.94778886262612
C        12.83747059814932    2.09963513569919   -3.24101289048636
C        11.59557582523550    2.21034656360836   -3.88302546919002
C        10.51474563731097    2.72996868465311   -3.21387651709311
C        13.13238024947818    3.42726915103489    0.83877079152830
C        13.30834830083430    1.99922710696750    1.30787192480794
C        14.55682580417088    1.38752762287314    1.36724819310867
C        14.69616492697632    0.08007854120681    1.80527014513512
C        13.56999263525992   -0.62403721184180    2.19907655928385
C        12.31511151699778   -0.03381146788646    2.16313400394698
C        12.19955316241769    1.26791354156475    1.71871882804013
C        12.92931668617394    4.35609297622196    2.07100783690577
C        13.56068172732134    5.70345836569445    1.79473041714784
C        14.79216231288814    6.06837601750563    2.33015243193358
C        15.35536373955715    7.30527863935711    2.05889498022635
C        14.68060596284522    8.18793511528018    1.23139896795942
C        13.45793421720443    7.84432134744670    0.67338310789498
C        12.91368861593959    6.60891585559010    0.96130798760752
C         9.59600324124193    5.21226075147663    3.40925135447476
C        11.00802486858246    5.02186746902986    3.39603694714376
C        11.74319979466923    5.40433342175903    4.54138350049434
C        11.08756258979139    5.90706861952371    5.63382276409319
C         9.69355059812499    6.05994810433898    5.64340264130746
C         8.95253581233829    5.71853243835898    4.53873331267946
H        13.97524219913301    2.41283887322945   -1.47376253945766
H        13.67159013850811    1.67481594505811   -3.77938659761988
H        11.49183586012040    1.87530835403202   -4.90338723808975
H         9.54610329591065    2.80942367083747   -3.68258427639415
H        14.02460996569853    3.74620356428685    0.28489087482524
H        15.67009693788242   -0.38115372153984    1.83905053870046
H        11.44519769956324   -0.58784645894317    2.47665807163958
H        11.22027383410135    1.74215634358541    1.68259674209179
H        13.40020153559286    3.90155184346070    2.95205390069847
H        16.30745964136885    7.57485630652766    2.48698379051098
H        12.94273698937549    8.53567318524796    0.02638542870387
H        11.95342575070263    6.32773015479873    0.53236073957030
H        12.81658568897638    5.30346986954919    4.55591102154904
H        11.65403369990842    6.19488595546574    6.50694647046130
H         9.20739972686637    6.45713368249422    6.52092933898404
H         7.88092346787787    5.84296213743895    4.51794425993924

