51
CSD_code = AXEHOA | q = 0 | S = 0 | Stoichiometry = C26H16Cl4N2NiS2 | MND = 4
Ni       10.11183988779906    1.84973712171540    4.50647172611029
Cl       14.62930493172769    1.82294586018466    7.35203763798664
Cl       15.89195529613991    1.12094178057302    2.19525376623312
Cl       12.22448613574229   -0.15035342427237    8.98468267557943
Cl        7.31548324448261    1.66797313173611   10.11402733270974
S         8.42417689638563    3.22076545797236    4.40714555574042
S         9.88410866641743    1.06338113030886    2.48972169629753
N        10.77457361187435    2.98532241855222    6.00910957641898
N        11.15716638849426    0.19255501544018    4.89122868857310
C         8.55338310267297    3.74173064243332    6.05580228675249
C         9.76482020218572    3.55900042774242    6.75692139494663
C         9.86514554104969    3.97177185863638    8.08840273457806
C         8.78563207698606    4.55823518791628    8.70898387565605
C         7.59795912779866    4.76309976000019    8.00789477412309
C         7.48052896896394    4.36535504173786    6.69580119009371
C        12.02759686015201    3.03217130455696    6.30113127823366
C        12.99694345014102    2.57922374769059    5.32671757952133
C        14.22818089835838    2.01817619401253    5.68571057051566
C        15.11763870740503    1.56628872567656    4.72820030267244
C        14.79078985156690    1.69148393609864    3.38460404114200
C        13.59179813736545    2.27153851910154    2.99309719118724
C        12.70328539372157    2.70105285570326    3.95790311932302
C        11.25361116093446   -0.26674351182840    6.09008387640536
C        10.31170556246456    0.17807039558006    7.09464968676563
C        10.63611485902018    0.26329983950801    8.45373335832855
C         9.72098543472233    0.72320067119821    9.38278293387947
C         8.44925302725146    1.08717248107410    8.96082406782424
C         8.08437728372071    0.98540943299907    7.62522281595698
C         9.01230252972297    0.54365301325668    6.70402684789337
C        11.30349185670169    0.06952256588427    2.55203578377465
C        11.85685800217180   -0.28655753982885    3.80085263002745
C        13.00581805697773   -1.08073574044606    3.84973881696588
C        13.59022427869008   -1.51606029264516    2.68208062183905
C        13.02780784207879   -1.18664992900801    1.44954179682020
C        11.89566967150931   -0.40739306514055    1.38100755234802
H        10.77679499293359    3.79953712859137    8.64071665593210
H         8.85693590716299    4.85704081927462    9.74346606361165
H         6.75969338764659    5.22805895193226    8.50450086725477
H         6.56212177567799    4.51064595098826    6.14834483068796
H        12.39516475839228    3.43166072308338    7.24328161717602
H        16.05247141960457    1.11690994957374    5.02270754589748
H        13.35832277098582    2.37693166093113    1.94581790783722
H        11.77506573242678    3.20002198596591    3.65105622093495
H        11.99771925140079   -1.00626133512193    6.37608472369465
H         9.99436038687140    0.80297012135636   10.42273196096999
H         7.08819816039865    1.25635982822951    7.31434537588315
H         8.71317405283093    0.42023915510508    5.65521141628194
H        13.45499029273036   -1.32395339052166    4.80100643149332
H        14.48959908099728   -2.11120916168637    2.72009572289807
H        13.49307667595862   -1.53768004736020    0.54079466102886
H        11.45929441057856   -0.13915735446462    0.43130821520325

