47
CSD_code = AXENOI | q = 0 | S = 0 | Stoichiometry = C18H20NO6PW | MND = 6
W         4.36181026773018    9.45060622056199    8.31432634608443
N         4.62707402916230    4.61647678841307    8.79194961593845
C         5.14652384442978    5.82137634552983    8.18076236769932
H         5.52692573937764    5.63576009664749    7.17126415660075
H         5.97378995652726    6.23675906031198    8.77942371632129
P         3.78021224887475    7.08391221191326    8.14667766412869
C         2.91231415259494    6.09915169471771    9.38962099937579
C         1.77998832029210    6.46629306505758   10.09197623614616
H         1.34941203299011    7.44503971544728    9.93558622217357
C         1.21522894478520    5.57131321341082   10.98409506228613
H         0.33262391872844    5.84137258610196   11.54213269575957
C         1.79356157515559    4.32113496796080   11.15308571777881
H         1.35096889264268    3.62078433877450   11.84618174523880
C         2.92810553410989    3.94571711389388   10.45790975672129
H         3.34521057769576    2.96434014643333   10.61630956751286
C         3.51874764989254    4.84143762909689    9.56631214726917
C         5.55166936512247    3.53161431359483    9.02827386215178
H         5.37719835211672    3.12243295146338   10.02718297377675
H         6.57044339434456    3.93533906339906    9.01408454842610
C         5.46477619904562    2.38151503815514    7.99863294910938
C         4.05458602346877    1.79050075290096    7.97814770715311
H         3.31507402991968    2.56354663887890    7.78307680933970
H         3.81905234544833    1.31935624268122    8.92924379638111
H         3.97601660879501    1.03515636033022    7.19964480523171
C         5.82421544808183    2.88235132771857    6.59856991307019
H         6.79395491178108    3.37581261991150    6.59956803430580
H         5.07479994207950    3.57915690482753    6.23156968310315
H         5.87042478847006    2.04657935572792    5.90382140509097
C         6.46785562408132    1.30351714042505    8.41694113878724
H         6.42335417098496    0.46100800648632    7.73132487680434
H         6.24985824757619    0.93921566398936    9.41850167862813
H         7.48184179800848    1.69726898631256    8.40916332497833
C         2.39936734377120    5.56316820645066    6.41029240047062
H         3.16940137442838    4.84490943626795    6.12093178310381
H         1.74915820001520    5.75738956430491    5.55786960995063
H         1.81148191536088    5.14695769125946    7.23205326619164
C         4.86819566449311   11.36390317026635    8.46005064424295
C         6.14948259485783    9.01797761629289    7.53882069977108
C         5.04870338213983    9.06716670874791   10.15110554863651
C         2.56193679164930    9.89264604470775    9.06237488899625
C         3.64243199245386    9.74832969394610    6.47079763337107
O         2.97446694874900    6.81369609928108    6.76958496627252
O         5.16314608886011   12.46416774912070    8.54495131176427
O         7.16672045650696    8.75425372092554    7.09009342106299
O         5.43591096690694    8.81110607595936   11.19493281022735
O         1.53823498023955   10.18235969462286    9.47527895103410
O         3.22114236530677    9.89102196676784    5.42250054149865

