51
CSD_code = AXEQUP | q = 0 | S = 0 | Stoichiometry = C23H23NO2PRe | MND = 8
Re        6.71550499977485    0.94435953772209    2.82590801105764
P         6.59810275327971    1.17764275084098    5.20607370728202
N         9.28397488276001    0.94989225319997    5.62589368847989
O         3.67981278750838    1.16801964483151    2.35807239164630
O         7.18945030517436    3.91370980450122    2.16504836800769
C         9.86570372889804    1.57737234406063    4.44404516322458
C        10.16514036406904    0.53950628363818    3.35203690474046
C         8.90838479410060   -0.02696416450696    2.76140956037846
C         8.04494542921375   -0.96436053818222    3.38620912828762
C         7.04433398777127   -1.34337870042463    2.47079469271860
C         7.27500309961950   -0.64113751518283    1.25836066585197
C         8.44342544779170    0.15996877894291    1.44160317965145
C         8.13427262874004    1.66150500981511    6.14100526455967
C        10.28728174762485    0.67581664959112    6.63377291233984
C         4.81995534188153    1.12482337029786    2.54723239367840
C         6.96112732360936    2.81152649043597    2.43661706670103
C         5.41690029685442    2.35715575376617    5.93689649004696
C         4.83208762102252    3.33710009019245    5.14394995115943
C         3.95447408396895    4.24697167561536    5.70738907956915
C         3.65638024240743    4.18152101655643    7.05882649312140
C         4.23387915781750    3.20163684788191    7.85045787492203
C         5.11281167486924    2.29109082959076    7.29358609701867
C         6.04567616969645   -0.37625580618739    5.97020468198294
C         4.72742480834858   -0.74436259020928    5.70832682642313
C         4.22811773352674   -1.93322649408412    6.20335268315704
C         5.04362973695881   -2.76885116357279    6.95208969058665
C         6.35875489317129   -2.41369930831980    7.19967196037156
C         6.86365372634298   -1.22138821021271    6.70832077786977
H         9.15695903944251    2.30841087174150    4.03830079562230
H        10.78841540788290    2.11568768663886    4.70844037715976
H        10.76724702989384   -0.26802784419691    3.78079710883174
H        10.75125357259656    1.02346651426996    2.56590994902486
H         8.21155696801118   -1.40801398600001    4.35694107121016
H         6.32204384262837   -2.13422048951448    2.61610972907308
H         6.78718449078530   -0.83429888394193    0.31332422621864
H         8.94794760561543    0.72043453430295    0.66664821314881
H         7.96627926881596    1.40412310303979    7.19227050414303
H         8.23030912015031    2.75871652834574    6.07204741836163
H         9.84740252886785    0.11704914554282    7.46007068813309
H        10.74317303236200    1.59258288246301    7.03878855827182
H        11.07470341944239    0.06540115161351    6.19255035525516
H         5.06950110576177    3.35831541794555    4.08688056145244
H         3.49934963497472    5.00554496736175    5.08915056501603
H         2.96916192427152    4.89016104698688    7.49660155949232
H         3.99597961553284    3.14571733355084    8.90266896097816
H         5.55219498351324    1.51711159302315    7.90887852400595
H         4.11363098008211   -0.08615497710297    5.10652153206960
H         3.20554582144408   -2.21485512499016    6.00038998498342
H         4.65652647406048   -3.70165528926022    7.33488917130092
H         6.99729453347976   -3.07078792705216    7.77295760051725
H         7.89592983358243   -0.95860289536460    6.88600684089395

