102
CSD_code = AXERUR | q = 0 | S = 0 | Stoichiometry = C53H37CuF6N2OP2 | MND = 4
Cu        5.33718193357716    3.69485067204781    4.42447731494379
P         3.92609980965595    2.56490172836309    5.75923875281550
P         5.88966145017052    2.37979700239115    2.42641078887561
O         5.33283242612729    0.75228709169550    4.45039790582687
N         7.13552762614449    4.33148692300813    4.95520038356038
N         5.31660190691414    5.54645413051924    3.44601288144597
C         8.16171614371786    3.97297388166778    5.74436476108773
C         9.24971754944249    4.81275559017985    5.55680319231855
H        10.19596010015960    4.76958741499380    6.05705734322042
C         8.84939576525405    5.73377261300924    4.58247542091385
C         7.52900257318422    5.39978365171746    4.23018082463708
C         6.58342406413840    5.96064503675318    3.28901510505907
C         6.92439193140903    6.84350707765258    2.26060257711084
H         7.94428460620390    7.14552977817121    2.10502693098224
C         5.92965730496310    7.31343691445184    1.42606740206485
H         6.17260833392650    7.99139054187619    0.62128375908795
C         4.61747831474434    6.92343127799588    1.63988788228874
H         3.81743499997001    7.31956014349740    1.03545659356519
C         4.34741183710006    6.02870966622608    2.67174756311148
C         2.96954185261292    5.61973530925572    2.98918822413657
C         2.59741581431425    5.43197832763429    4.31962245400788
H         3.32858481492604    5.59358745175825    5.09862312808347
C         1.30061789151683    5.07530025629480    4.63893146632852
H         1.01802753671503    4.95650944962187    5.67402238022697
C         0.36516126040380    4.87594487170705    3.63713940968400
H        -0.64448270469562    4.58609572363570    3.88754005507684
C         0.72604475196881    5.05882218273852    2.31294472130606
H        -0.00170894726705    4.90912056472432    1.52863412731022
C         2.01518929810862    5.44097369029132    1.99010214709116
H         2.28702772112956    5.58527756087708    0.95489076381335
C         8.04961228370698    2.82081068415434    6.66404212369870
C         9.70458019261704    6.82955257881134    4.08726861758409
C         4.65646207692090    1.13565098852478    6.62523470418155
C         4.65912995603487    0.85262001395069    7.98040203262953
H         4.18318807461404    1.52709228690037    8.67668323792294
C         5.28090078784311   -0.30287545279260    8.42738026122363
H         5.28400480646166   -0.53326866369894    9.48210426817162
C         5.90510229352002   -1.15860315603833    7.53534188421132
H         6.39269135957950   -2.05100675528948    7.89779461591452
C         5.93092993898528   -0.87404324637004    6.17795694736173
H         6.44862668956862   -1.52030781781178    5.48521075210936
C         5.30670029981725    0.27637453091576    5.73476720587239
C         4.96537083403819    0.02559541523352    3.36189606877067
C         4.35781374118599   -1.21669759994772    3.36963196161663
H         4.16656755558688   -1.72835335274049    4.30110983881311
C         3.97708978808292   -1.77796653202036    2.16001803756592
H         3.50267171063721   -2.74769869967033    2.15500894684431
C         4.18943312531831   -1.10599675106724    0.96921987438390
H         3.88468953433030   -1.55531894628731    0.03625156178000
C         4.78590035681926    0.14571781617755    0.96644857054182
H         4.93977439558736    0.67596385354183    0.03815102455116
C         5.18773189351518    0.71487906776669    2.16192785917364
C         3.04429186330476    3.36911826560769    7.13389573245243
C         1.70897666592151    3.16057908097426    7.45655223986257
H         1.10875500180629    2.47896843306311    6.87059368700931
C         1.14734675157367    3.83580986348234    8.52699662477058
H         0.10933565570995    3.67163770697714    8.77893857036065
C         1.90827131033554    4.72112219385088    9.27277858088710
H         1.46314950919742    5.24430601150580   10.10618094683474
C         3.23754384214212    4.94039458281283    8.94590378786385
H         3.82933452335990    5.63532047716494    9.52297559894154
C         3.80210271202643    4.27233151416915    7.87585809451744
H         4.83635927383353    4.43391528616063    7.60155060326086
C         2.64015997915251    1.66358577603467    4.82615864836006
C         1.96199438623896    0.56362245281209    5.34253236673512
H         2.14699069567235    0.24278948364682    6.35934144934246
C         1.06396552094079   -0.12636461449972    4.54821843856415
H         0.53717076613083   -0.97932094927816    4.95133257379732
C         0.84599017001223    0.26473899556367    3.23681970344267
H         0.15091419110879   -0.28508105920528    2.61983273196490
C         1.52592641571358    1.35286245917582    2.71616425613925
H         1.36685024860754    1.65321589181598    1.69112312480513
C         2.41953534123566    2.04695435972520    3.50945210848801
H         2.97304156762591    2.89162066489628    3.12040643157315
C         7.66648101180331    2.02994633051083    2.61469744993678
C         8.17298577036860    0.81168134595385    3.04950953198530
H         7.51676503917519   -0.03362551048900    3.19233061694899
C         9.52720220916906    0.67347162213932    3.29765635128548
H         9.91228973046069   -0.27591972819538    3.64004235740500
C        10.38563684996037    1.74426030219608    3.11893995096340
H        11.43959634432587    1.63403533222172    3.32627659054431
C         9.88971347012329    2.95867403121144    2.67175725364621
H        10.55288157970376    3.79777900592085    2.52248048561329
C         8.53911587340936    3.10105142769140    2.42376508650491
H         8.15073223252586    4.04914543505259    2.07720107039248
C         5.80054943625071    3.03514620274490    0.71980718643900
C         6.84029716747031    3.01413038035663   -0.20302020218350
H         7.78512606268001    2.55761001554942    0.05368992641205
C         6.66528544930796    3.57283726649103   -1.45675203118753
H         7.47877727258811    3.55442724986143   -2.16737657954304
C         5.45590132177921    4.15090386736234   -1.80520577708690
H         5.32785740058110    4.58970140332562   -2.78372231030065
C         4.41009899286923    4.15914087095866   -0.89698102923284
H         3.46099658235515    4.59744824198416   -1.17124894181860
C         4.58410116603192    3.60817090151611    0.35806220367097
H         3.77306607499933    3.60833650230234    1.07340425840689
F         6.96983705017816    2.89704533472028    7.47730727595385
F         7.92983146094273    1.62850308961433    6.03643137328818
F         9.11258102851409    2.69767877659730    7.47430153381281
F        10.12660193709214    6.65028116536542    2.80576875743769
F        10.82642442491805    6.97741577829408    4.80803473412505
F         9.10258100748057    8.04006969530017    4.08763992172128

