92
CSD_code = AXESAY | q = 0 | S = 0 | Stoichiometry = C47H33AgF6N2OP2 | MND = 4
Ag        5.00612072699003    1.18925140573356    7.75837123063043
P         4.37819531854275    3.38388114632996    6.89136309989848
P         3.27485736076241    0.42206375880644    9.55343854017220
O         3.65743402453352    3.21897111928821    9.51316116646675
N         6.79729803606852    1.24087103993311    9.46586755499770
N         6.01052279546592   -0.80861369165188    7.80193156905893
C         7.27068213324769    2.29593222262355   10.11175782687423
H         6.64135915526225    3.17742150917468   10.09477580065183
C         8.47868268904375    2.30122145757827   10.78451112583016
H         8.81224559889073    3.18442559134215   11.30634709603702
C         9.24646143951149    1.14398596954207   10.75655748006763
H        10.20804413381997    1.10932506846517   11.24756178822922
C         8.76519696627244    0.03754097879358   10.08824970265549
H         9.35517872604671   -0.86090491763599   10.03128562705661
C         7.51555461658620    0.10542015302913    9.46177451384215
C         6.91311650377167   -1.02350589338055    8.78120297230117
C         7.03957645173668   -2.40654495559012    9.00694284493932
C         6.15546980981513   -3.04010529371189    8.12710899565246
H         5.97462452178927   -4.09195744954693    8.03470419124360
C         5.55471092680528   -2.01466365183209    7.41368290260421
C         7.84624539366609   -3.10934270349400   10.02210224200336
C         4.52888811080315   -2.11596007115702    6.35616139329307
C         5.46827491369915    4.69253007641730    7.53550507027563
C         6.83559431333440    4.43607586538546    7.49849018272849
H         7.18290864725758    3.48857228106084    7.10189528449738
C         7.73431924317115    5.37226672127128    7.97349084378888
H         8.79425469476692    5.16720527493900    7.94406781729475
C         7.27139108221492    6.56936746520761    8.49675370311114
H         7.97059576579522    7.30051078375895    8.87478226232406
C         5.91099137484197    6.82738829768296    8.53945391559345
H         5.55121306874969    7.76061965313022    8.94864727049841
C         5.00772052428053    5.89502509044128    8.05937640395598
H         3.94584916824925    6.09871872340483    8.09618487028859
C         4.27061704833162    3.80720269978303    5.12324462929450
C         4.35929580518563    5.11228843883355    4.64980551879981
H         4.51548998341652    5.92786571520548    5.34233986448413
C         4.25056553612296    5.35879210764278    3.29333187443161
H         4.32058336576096    6.37176585437706    2.92441849569082
C         4.05310846920254    4.31109252761981    2.40721488908889
H         3.96989283734139    4.51034770067764    1.34909241932148
C         3.96956202693280    3.00970830126621    2.87544441618013
H         3.82250004938454    2.19337148505560    2.18412553424935
C         4.08314615206665    2.75702604519739    4.23039429786413
H         4.03351742317284    1.74262990240068    4.61140066805080
C         2.74950311986245    3.91450128333367    7.49479457826258
C         1.69316881988841    4.37229097536450    6.72291161805835
H         1.82699160561397    4.50824362484476    5.65954372906983
C         0.47302701925597    4.64952653205398    7.31696995258055
H        -0.34686814612363    5.01105409626274    6.71560814814254
C         0.30170891779537    4.45692787606844    8.67677018581582
H        -0.65159219467880    4.66790785484062    9.13673449335962
C         1.34124523173104    3.98495749233667    9.46162419347158
H         1.19978713089094    3.81612084213459   10.51897943921240
C         2.56147705024214    3.70894067879313    8.86801042631169
C         3.30966159147238   -1.27604448000643   10.18172922064435
C         4.39530001054500   -1.66689637543821   10.96417410738605
H         5.13219564439769   -0.93172903722161   11.26157689873656
C         4.53287565941048   -2.98728895161049   11.34554531194186
H         5.36624479510755   -3.28414787474157   11.96391260102076
C         3.61299000836981   -3.93219987830952   10.91871240671257
H         3.73350515615781   -4.96641014127329   11.20403059284455
C         2.55176331801661   -3.55324469642115   10.11364533912253
H         1.84524222756008   -4.29194173632637    9.76534012549980
C         2.39790533548546   -2.23002064398202    9.74219858373584
H         1.57569996552740   -1.93555500214321    9.10451533835805
C         1.51533555603035    0.68291314564953    9.13452328413997
C         1.19003364704952    0.91346284399410    7.80296875170222
H         1.97662575852030    0.89397551794949    7.05611132118734
C        -0.12044273507748    1.16511470441940    7.44048601621496
H        -0.36861013494647    1.34615680307649    6.40530067088250
C        -1.11122371604814    1.18826567288207    8.40765079217548
H        -2.13464294336161    1.38982730780111    8.12771338598856
C        -0.79259019615883    0.94981159664170    9.73536297448834
H        -1.56829568715812    0.96202662133851   10.48734666331061
C         0.51616776285558    0.69800551323592   10.10233910523634
H         0.76753033036835    0.51331965352752   11.13787215602603
C         3.35538467087890    1.44199155310255   11.06571952564691
C         3.28228259062920    0.99466985607813   12.37852853494426
H         3.14227821672434   -0.05761424914930   12.57947556039423
C         3.38985613856770    1.89430500453625   13.42533843713654
H         3.32721034979807    1.53915179598547   14.44307206120512
C         3.58029828770020    3.24366808440900   13.17699169163764
H         3.66993051999016    3.93864456848263   13.99801061749493
C         3.65522849590721    3.70745966494885   11.87360831948656
H         3.80556723839244    4.75580443495744   11.66015100115924
C         3.53713543428520    2.80686018590257   10.82935887459960
F         9.16919886840850   -3.18554616249626    9.72698868738613
F         7.45319109780796   -4.38033025212636   10.21005778571057
F         7.80012686978658   -2.53123608164751   11.24746896280243
F         5.01632219912134   -2.42663025087196    5.13365092610313
F         3.59064436765130   -3.04732948466681    6.61103758373560
F         3.85356781271341   -0.95392429094293    6.17771912299776

