70
CSD_code = AXIBEO | q = 0 | S = 0 | Stoichiometry = C28H37FeO2PSi | MND = 8
Fe        4.96878215725236    8.09407770651126    9.88620557430826
P         6.61566474218260    9.30358975925975    9.26559987102068
Si        6.17226060663171    7.86418659563766   11.74610926217563
O         5.83939148497544    5.54918547559931    8.89075050820790
O         7.71461016413604    8.44886502874632   11.48657941014343
C         5.63167525876697    6.60560615118821    9.31369899564434
C         5.79075070324210    8.80783511514861   13.37790090891436
C         6.33040844867444    6.04219690276679   12.32989799188956
C         3.38671348191175    9.45235382689439   10.33329998088844
C         3.40868029465319    9.19337819354093    8.92189141071786
C         3.21135478870531    7.80531257028830    8.72440480589756
C         3.07832633422005    7.19578009255480   10.01386094992382
C         3.13124085778643    8.22222140671828   11.00005900946895
C         3.30778908354281   10.80531491834586   10.96649261729265
C         3.44281988133453   10.22091680951771    7.83585319998624
C         3.00417932359859    7.11156153926528    7.41515999154979
C         2.70824473705359    5.77112729231162   10.27291832070971
C         2.73677870252621    8.03694171154889   12.42780763430343
C         7.14590431508974    9.27677397392356    7.51910410073860
C         8.11798441744928   10.11715950379394    6.98135818385729
C         8.47022160688640   10.00399472545879    5.64871194665016
C         7.85600406451259    9.06009889937706    4.84037848558628
C         6.88364629103342    8.22592196759215    5.36700398048044
C         6.53244873692644    8.33555160919691    6.70011684589074
C         6.53052740228579   11.08855469820145    9.62055922934394
C         6.26604013480037   12.04076628379457    8.64005001426039
C         6.09458344808081   13.36990714286393    8.98718648808335
C         6.17809691381145   13.76247074540925   10.31254304223599
C         6.42329920406984   12.81714684354982   11.29656260644290
C         6.58555520840167   11.48782336770496   10.95545762383660
C         8.17383294201009    8.74496814727350   10.20813738370150
C         9.29445756469294    9.78097281848935   10.30596260494196
C         8.70878052376929    7.48136340198030    9.53359422723237
H         6.72119603723738    9.01610266215644   13.89510781698594
H         5.27379237735791    9.74866835822298   13.23273669767266
H         5.18401884747529    8.18971011179062   14.02527305242244
H         5.36573734291919    5.68291996903298   12.66706133824382
H         6.67401737465463    5.37581001351497   11.54851029618505
H         7.01906821028322    5.96625071412409   13.16367561382443
H         3.77509857969166   10.80323670795595   11.94780128413121
H         3.80566352980722   11.55706397372035   10.35986939073772
H         2.26383404564704   11.10194976340739   11.08749319118108
H         3.79896349506466   11.17522776086700    8.21405403381812
H         4.09445602783828    9.91025755355314    7.01998973008506
H         2.43912846571520   10.36709669259419    7.43209875277160
H         1.94037732726875    6.92481837573124    7.25691289308881
H         3.36962982906078    7.71852536656180    6.59057409338315
H         3.51812134081030    6.15258194692752    7.39502591545875
H         1.62293951774893    5.66421245736974   10.32382078775035
H         3.07784619992970    5.12400954936386    9.48191950690059
H         3.13082876663514    5.43482729942230   11.21636557344222
H         2.99935354223643    8.90306318772183   13.02460489307341
H         1.65572558396537    7.89382492731133   12.48700016880740
H         3.21765229591205    7.16196768231326   12.85623832945799
H         8.58990779270040   10.86456526409297    7.60340737698394
H         9.22668765889031   10.65624323342057    5.23632346073536
H         8.13513555678042    8.97800318446840    3.80022334509927
H         6.40193123665191    7.49135830528183    4.73817217710680
H         5.77899684567638    7.69504727541580    7.13702827824276
H         6.19610433360295   11.74405477210728    7.60302581480999
H         5.89157162809494   14.10203805858793    8.21847912776551
H         6.04517930631981   14.80083311270045   10.57845734921054
H         6.47960376387316   13.11865738604387   12.33253234495586
H         6.75780986457770   10.74272859239553   11.71644174507596
H        10.06876644734261    9.38840186297041   10.96295404981894
H         9.72992070931527    9.96593011770519    9.32773411049602
H         8.93564075491257   10.71713935028584   10.72531419686784
H         7.90374808702804    6.76195949883884    9.42415051667694
H         9.12688035379118    7.70714011671963    8.55513333758587
H         9.48011309817527    7.03984957084684   10.16137220282480

