79
CSD_code = AXIBIS | q = 0 | S = 0 | Stoichiometry = C32H41FeN2OPSi | MND = 8
Fe        9.60876975543291    2.72625944763271   12.09534121366777
P         7.54483028230232    3.22106539330626   12.34996121639923
Si        9.31188566387321    1.66198187579499   14.00539589755367
O        10.56938242059767    4.89137280226204   13.72751814047299
N         7.99693429675824    2.49049716054684   14.87614452778530
N         4.09682957550654    3.44122207782744   16.18913902475330
C        10.09994403014227    4.03398202534775   13.11253462908614
C         8.70778429952760   -0.16913921265506   13.91593256771544
C        10.78363578304188    1.65305058488848   15.23596511909426
C        10.82787015924058    3.31338481213899   10.46217867195822
C         9.68212191720130    2.64875725044842    9.96618833375073
C         9.66706735422934    1.31923470338310   10.51032236234307
C        10.83703793443849    1.15336165231407   11.29790614568119
C        11.52230812477878    2.40432878957950   11.32339484514953
C        11.31724765638732    4.66703343610028   10.05497426113473
C         8.77128830782802    3.17254808117039    8.90095044671289
C         8.72905699049042    0.23448886483942   10.08353886717593
C        11.39301267761318   -0.12690777164726   11.82845435007303
C        12.85709912951950    2.65518894095476   11.94684755900642
C         6.96345495695384    4.79490993619682   11.63535449982593
C         7.95011468782362    5.73559874532581   11.35381323316217
C         7.61513177294627    6.98158124046529   10.85833152218628
C         6.28484176977244    7.29992951797528   10.63645418043000
C         5.29639019983682    6.36890160862936   10.91205587600101
C         5.62888869381758    5.12100475861532   11.40836382277103
C         6.17967661425104    2.08637968518692   11.95190006507180
C         5.64973720660836    2.06627248498738   10.66266695569644
C         4.66045263011206    1.16171206674570   10.32417684425848
C         4.19335065474849    0.26066396275066   11.26788424030013
C         4.72491394231804    0.26568348791265   12.54706652333189
C         5.71936540397403    1.16502730563519   12.88813288393902
C         7.31468639641820    3.55404726245884   14.17934162634925
C         5.88896660531936    3.74839151204444   14.58662627243086
C         5.38916478586529    3.21016885343909   15.71390707910449
C         6.26697242228042    2.38361587051216   16.52429092797292
C         7.48702502542411    2.06397818987683   16.06171513572790
C         3.30645609434469    4.43836163187998   15.51001244385366
C         3.31287330674797    2.28290477674962   16.55918399978337
H         8.08825331579131   -0.40615298436761   14.77485055793073
H         8.12208154509188   -0.36370284589566   13.02445583713088
H         9.55001757673258   -0.84856368727917   13.92516974232623
H        10.55982293378226    1.07406042836275   16.12448745443715
H        11.65291014592408    1.20584851709087   14.77063749004680
H        11.05496431274738    2.65510607257867   15.54501995730457
H        11.68693030823407    5.22172204786261   10.91495258159719
H        12.13714805247458    4.56909697650900    9.34104729483907
H        10.52184795183709    5.24112915888271    9.58676338728869
H         8.34116662888048    4.13414663130825    9.18025204856326
H         9.33011952709042    3.31046112736396    7.97365905675385
H         7.96405947685397    2.47165008974543    8.70867234333575
H         7.70054445744380    0.59027411476044   10.06540352195364
H         8.98671601732371   -0.11929349248423    9.08334826339771
H         8.77914625920898   -0.60930438963308   10.76587237062965
H        10.63729975750413   -0.90478989620110   11.85117696874897
H        12.20850526526644   -0.46090321671771   11.18368880000816
H        11.78710846920725   -0.00001452547687   12.83281861374471
H        12.98519728954340    2.04444959938585   12.83619592627890
H        13.65747119422143    2.41464750194668   11.24464647549118
H        12.95668520991423    3.69925723879771   12.23207332616584
H         8.98124109354906    5.45982654634784   11.52981395950023
H         8.38833594956187    7.70481717994256   10.64275961263319
H         6.01766843738559    8.27137007608279   10.24713562949836
H         4.25896232719394    6.61728036898112   10.73902407654140
H         4.85114378021570    4.39807352970672   11.61165812905087
H         6.00961854264060    2.77684979236056    9.93081084920347
H         4.25296447344540    1.15725988913772    9.32301932729544
H         3.41867144467054   -0.44457898428651   11.00430302850434
H         4.36453125652283   -0.43828972767384   13.28345902587115
H         6.13265528235091    1.15978032418054   13.88320184071717
H         7.88598504596572    4.50460142760940   14.31398708525982
H         5.30992977105239    4.38386264947019   13.93622114710069
H         5.94580869259820    2.04902747406146   17.49498694619212
H         8.14113340432700    1.40352214319661   16.61193040839487
H         3.88725139907049    5.35344636054176   15.40950660020433
H         2.97077481316213    4.11615488853340   14.51323856977793
H         2.42497468574183    4.64956188209085   16.11663943245100
H         2.53971160717210    2.58467893204053   17.26831336015233
H         2.82375399371245    1.82802918604233   15.68490380615787
H         3.94211877610449    1.53185778348102   17.02672883580712

