47
CSD_code = AXIJAS | q = 1 | S = 0 | Stoichiometry = C16H21N4O5Zn(1+) | MND = 6
Zn       11.71749166748216   -1.42728845536396    3.93279675014013
N        10.35721409826638   -2.88426895878699    4.36130707213008
C         9.15273060739336   -2.70425817362697    4.89675679424386
H         8.83757403276380   -1.67914689107061    5.02464265565375
C         8.34671051539234   -3.75566975661910    5.29071127478610
H         7.37954863030178   -3.56572558465095    5.72616011033753
C         8.81581206849457   -5.05041100412891    5.12022455219237
H         8.21866461999097   -5.89785424875254    5.41859395336215
C        10.06979818086532   -5.23494542425001    4.56328814483843
H        10.47245492042069   -6.22559978364277    4.42198133744653
C        10.81887353780294   -4.12389416080826    4.19692101728369
C        12.21730073370328   -4.26185764243156    3.65895677059550
H        12.88380029604422   -4.24506669764881    4.52593426327545
H        12.34043234929410   -5.22190604077324    3.14270696012698
N        12.54629510179822   -3.12975561937030    2.79813401107815
C        13.97243693185446   -2.83934586754397    2.72011064193434
H        14.45039209225948   -3.36367874129541    1.88263041578729
H        14.44576065565726   -3.17696612340135    3.64733552874617
C        14.25857049940342   -1.36378110400756    2.63670057657318
C        15.45133978289794   -0.89946445949575    2.09452078134043
H        16.15631486050148   -1.59637506801156    1.66912341716252
C        15.72366114684380    0.45732567514229    2.12252117573106
H        16.64596941680737    0.83950321071768    1.71369025024389
C        14.79037054156708    1.31199359761679    2.69232495206220
H        14.96575671784632    2.37381736794689    2.74553072322102
C        13.62357672770315    0.77289576201693    3.20060555987008
H        12.86401831408766    1.39263499117994    3.65323022645040
N        13.36435952298485   -0.53259226005050    3.16903477846025
C        11.94141969231154   -3.31197210240838    1.47874126008470
H        11.00179907917082   -3.85155095079575    1.60918372085342
H        12.59417260316343   -3.89260390321699    0.81478659377323
C        11.60344976201995   -1.97448636488084    0.83381158178012
H        12.50767377797714   -1.38206081188467    0.63775368941178
H        11.08249681006671   -2.14067437718914   -0.11829280609206
O        10.75820167114677   -1.30660040323353    1.74386551071753
C        10.36062591208243   -0.01151730261192    1.34477029879745
H         9.69780898442583   -0.06252901047890    0.47247959501520
H        11.24143730687896    0.59539067919784    1.09665020330992
C         9.63535032568737    0.59654761321365    2.53802222163528
H         9.37159510766957    1.63818850076411    2.32504129042304
H         8.72665153877010    0.01925919989483    2.74078998405561
O        10.53596940195368    0.52131971215066    3.62721685196188
H        10.11719521684210    0.82554280021672    4.44124232893906
N        12.43028778916312   -1.31617173703931    6.30357762634910
O        11.52754008484008   -0.60416896336303    5.80417164033552
O        12.97208182156407   -2.12823289397060    5.53118845372026
O        12.73861454383822   -1.22169822325401    7.44802525985491

