50
CSD_code = AXIJEW | q = 0 | S = 0 | Stoichiometry = C17H31PZr | MND = 11
Zr        2.89511006507968    2.95683114118960   11.31323088383512
P         4.37314574853158    5.23705706375010   11.53955351302476
C         1.66633973931207    4.38872539269738    9.94926034172739
C         0.88726002044392    3.18421435521008   10.04949221421188
C         0.46330280682468    2.56029872152753   11.24795426695262
C         0.87813212731887    2.81578265359729   12.58029979425095
C         1.65492930119633    3.93730918953123   13.02146852347268
C         0.41464369355642    2.55171277321108    8.75687038164197
C         0.38991527042628    1.84086298346719   13.63135413382684
C         4.52761227672366    2.53947439334579    9.70672408071628
C         3.77035900368746    1.32242057473249    9.82239373703457
C         3.53317091486059    0.59480825602408   11.01451442591574
C         3.76015793365062    0.98792316248272   12.35810907908475
C         4.50130194302752    2.13729259555117   12.78639209397543
C         3.22644330402268    0.71426691768296    8.54607607022406
C         3.21947159709390    0.06335405305635   13.42864844320439
C         6.07768651294017    5.21832492409751   12.26239013948388
C         4.77976778216739    6.07651575320930    9.94061011624632
C         3.72936396337622    6.71402139485804   12.45143927622191
H         1.85168177391296    4.71182351844350    8.92322692476484
H         1.37798137087671    5.22568609185637   10.58545084506791
H        -0.18050038188600    1.68850889357157   11.11897130595665
H         1.84382347546741    3.96491265754361   14.09576028524308
H         1.38823552255454    4.91806876009895   12.63252081838284
H         0.28018609418064    1.47306440401281    8.84416074385681
H        -0.55210313508012    2.98227878777552    8.47868463528256
H         1.10808595871411    2.75787061244477    7.94169667065114
H         0.28024809149268    0.82778907684851   13.24285048979610
H        -0.59243720020210    2.16327984838341   13.98968651118559
H         1.05869003938958    1.82125848562756   14.49123832524526
H         4.61477918282838    2.91173201181181    8.68434841340616
H         5.48153247390907    2.58781570412123   10.23212562775910
H         2.99637475880710   -0.34698752411682   10.88836470318007
H         4.58272280712942    2.24891954118538   13.86865136646095
H         5.44551627961369    2.34240105656618   12.28606561346459
H         2.30966812966230    0.14712520814132    8.71193261534476
H         3.03845211282406    1.48026416465895    7.79406698288625
H         3.96856331894163    0.02539936741877    8.13118857078950
H         3.96933276401373   -0.70155243780062   13.65215259532305
H         2.30982134268796   -0.45088416826657   13.11720874429791
H         3.02273623280244    0.60482187215885   14.35351753826768
H         6.52458018963929    6.21165521618726   12.23953850793081
H         6.01988535722622    4.86636793269591   13.29089836173777
H         6.70112848184630    4.53136224353519   11.69311799125581
H         3.85076912903613    6.33771742586607    9.43772585303953
H         5.37524148729792    6.97451517191798   10.10377269306259
H         5.33010335017508    5.37988285492531    9.31121539302036
H         4.43664158195767    7.54150064542235   12.40702715896085
H         3.55371521031527    6.43744690968853   13.48955203957126
H         2.78483019568762    7.02505936786890   12.00900015957461

