50
CSD_code = AXIJIA | q = 0 | S = 0 | Stoichiometry = C17H31HfP | MND = 11
Hf        2.88115138750949    2.91713735908069   11.32369037064000
P         4.39399301699795    5.24463920495724   11.58907756645734
C         1.71527178695314    4.30350893725415    9.98394811767760
H         1.97126590586429    4.61866678888927    8.97765379932475
H         1.53343438541854    5.13549987060994   10.64887280955607
C         0.89020800969107    3.15730349214044   10.06998485075513
C         0.44769518276877    2.54794400197779   11.25785493542401
H        -0.22585640002288    1.70412314341471   11.13141515915296
C         0.88153736661993    2.78853065408389   12.57728029299080
C         1.69416047656779    3.86432903964873   12.99203064722278
H         1.52512211274830    4.84425803785000   12.57427937588229
H         1.95163819269759    3.88944329546440   14.04547574107791
C         0.41131119184795    2.53909084681137    8.77962193184598
H         0.26809126131333    1.46322270405628    8.86090680513158
H        -0.55338311620581    2.98151690909680    8.51799609546166
H         1.09801644758204    2.74668518507414    7.96222657905600
C         0.39409134814118    1.82047282498121   13.62653919675210
H         0.28708868202044    0.80794474814903   13.24183246804721
H        -0.59093121181688    2.14781098632865   13.96966455772538
H         1.05352150990239    1.80708357274710   14.49095772704003
C         4.44744308458896    2.53963100553337    9.74645742290351
H         4.49956501820158    2.97512936418618    8.75396158635404
H         5.35673849114470    2.67821382563148   10.31327594447868
C         3.75689166729635    1.30874477322238    9.83760393683726
C         3.54323460456917    0.56742279651682   11.01490671566311
H         3.04295398623300   -0.38877645466774   10.88414005786621
C         3.75175451023131    0.96819454030566   12.34928506657138
C         4.43428023707274    2.13257403287048   12.75980313239461
H         4.48537309911574    2.30386494310281   13.82979938982643
H         5.33403237164915    2.42496078187776   12.24201981967416
C         3.22037053080553    0.70523174389494    8.56282385522848
H         2.29902775948811    0.14820225292475    8.72252607137225
H         3.05057838499322    1.46636855834805    7.80494040046012
H         3.96340638732827    0.00764906363061    8.16786498528488
C         3.22123188846824    0.04442257304545   13.41749777127603
H         3.97675441253804   -0.71863430004089   13.62187996894946
H         2.31121945358675   -0.46821596527820   13.11175740708965
H         3.03629127089099    0.57881743267533   14.34628220387700
C         6.09671915276515    5.20691428821773   12.29993249006897
H         6.54505331409185    6.19936170133048   12.28077391844890
H         6.04314664832080    4.84863856607237   13.32545213249350
H         6.71327283874640    4.52193847934537   11.72264479368786
C         4.77481882638059    6.08225975155191    9.99424861051780
H         3.84141789229794    6.34846531583800    9.50504108471761
H         5.37102860330768    6.97870923813421   10.16220461683671
H         5.31964819027626    5.39213459380765    9.35543166711364
C         3.75179673400331    6.69903418107589   12.52563150334464
H         4.45784068465552    7.52738192168322   12.48402076313472
H         3.58934478560968    6.40729701289521   13.56077401834433
H         2.80243763468146    7.01395237953777   12.09850963817351

