45
CSD_code = AXIKEZ | q = 0 | S = 0 | Stoichiometry = C10H26Cl2N4P2Pt | MND = 4
Pt        3.04960983021472    0.07803344338336    0.33574245976228
P         3.86229379794641    1.41940127400873    2.01529844906523
N         2.61914781561292    2.26840072144229    2.79830846687090
N         4.42811681715359    0.71862361753608    3.46906965530539
C         5.00734592120787    2.81067326409066    1.65579699892326
H         4.50368436271197    3.50814108733994    0.99349145932732
H         5.90012324274260    2.44439308328550    1.15389447700499
H         5.26387765113575    3.30442347942452    2.59271527289100
C         2.38528096475213    1.68766046571879    4.11269722249648
H         1.76844296765340    0.78363234789024    4.05422081282506
H         1.89245389865406    2.42352911697424    4.75382915002844
C         3.77697007469596    1.33834912950594    4.61263472597514
H         4.30459687857556    2.24593457653025    4.93958979482644
H         3.74885775151401    0.63443090753431    5.44986368105805
C         1.43063834934235    2.51625740371940    2.00466897135076
H         0.83957056926550    1.60519764187441    1.83914251894739
H         1.73907453665747    2.91482999050535    1.03765679362337
H         0.80719168920527    3.25600374684905    2.50969084561999
C         5.85141338918988    0.49738794080107    3.61152080081330
H         6.39162124739211    1.40097586239205    3.91991815484392
H         6.25307076530524    0.16478068862795    2.65441486511070
H         6.03130694819391   -0.27791005766123    4.36118056030779
P         2.30107556721840   -1.73747325990693    1.50521345366750
N         3.44457608914568   -2.69826394498276    2.30690015727002
N         1.43760750289707   -1.41069678366771    2.93709430519878
C         1.36928315811198   -3.06063479672257    0.63521333595752
H         2.01555847076586   -3.49750802343983   -0.12097432703158
H         0.49914009918587   -2.64149891924456    0.13608652801012
H         1.07936605117691   -3.82092138921648    1.36036389714607
C         3.34345799377875   -2.52146896223213    3.74639073807561
H         3.90799812697794   -1.64611528389748    4.08647148323421
H         3.72243038214335   -3.41436318767753    4.25171432912043
C         1.85725824584726   -2.31606873312352    3.99466870342052
H         1.32390173541642   -3.27642290992631    3.94961285467003
H         1.66382027572073   -1.85941866270254    4.96982724246312
C         4.78459342391675   -2.72286422688945    1.75849520281410
H         5.38392168637061   -1.86535055170006    2.08158771847289
H         4.71070663788976   -2.70892359600542    0.67001476580875
H         5.28710339374761   -3.64196967300495    2.06741476313623
C         0.01279357629761   -1.17773502811299    2.82947030450691
H        -0.56452658020003   -2.10747220434408    2.75951847983959
H        -0.17361559013146   -0.58503852441716    1.93326275689438
H        -0.33748411887617   -0.62170152469271    3.70293619504461
Cl        2.18589191916861   -0.97192042833565   -1.49827989748349
Cl        3.73035248431006    1.80118088246894   -1.00234912720908

