65
CSD_code = AXIKID | q = 0 | S = 0 | Stoichiometry = C22H34Cl2N4P2Pt | MND = 4
Pt        5.22204205596249   10.93272998953974   10.04706151573929
Cl        2.97643639490159   11.13688047078627   10.61189598179058
Cl        5.80580923552222   13.08427259923778   10.70421494391387
P         4.38190513333301    9.00965877531253    9.20389514755417
P         7.47448335108928   10.85200312164734    9.85772015730327
N         3.71495502358498    7.69751449201439   10.01811824314859
N         5.47270311972670    8.02562171591129    8.35056277255648
N         8.13413230613356    9.34927406437008    9.41872837462213
N         8.48531028256964   11.68926985539295    8.80610195928062
C         4.42482250274068    6.45898497589756    9.73496661326023
H         3.71951942744575    5.62265055808580    9.76554199231310
H         5.21729190372992    6.26965069172623   10.47253952221843
C         5.02130486283296    6.64856916398496    8.34769069076347
H         5.86970171898694    5.98002002675944    8.17429611063496
H         4.26562652161886    6.46125076170827    7.57078714722535
C         3.17673108853234    7.81757452396068   11.35736943271421
H         2.36271536062764    7.10006036173175   11.48456777752455
H         2.78409864427784    8.82586217950647   11.48273464474996
H         3.93347072951989    7.62608163709798   12.12665940404147
C         6.03548235018877    8.53536771510195    7.12471311627398
H         6.94599629687413    7.98247819103613    6.88600074342626
H         6.29002668825038    9.58410620973440    7.28909449874941
H         5.34362078677882    8.46434999293501    6.27557370824672
C         3.11624812644406    9.46563485065977    7.97493708789016
C         3.28775603384159   10.68216490396984    7.32360546742355
H         4.10484202012608   11.33456790378490    7.63240987445962
C         2.41137754678590   11.06786347259962    6.33112839646911
H         2.53899525404620   12.01969017163095    5.83539215584630
C         1.34813815891681   10.24470372144191    5.96811506218538
C         1.18592608311590    9.03069533411414    6.62357823256451
H         0.35771259802029    8.38884311722326    6.35668292168628
C         2.06258454046658    8.63781780501816    7.61935919618462
H         1.92003706672677    7.70214017723779    8.14108312822479
C         0.40596997574345   10.66840923387025    4.88320630604780
H         0.88265686078381   10.55710897061687    3.90859253701689
H         0.13200174834209   11.71475273899595    5.00170982688828
H        -0.49787674131475   10.06446520779428    4.89277399412190
C         9.43514703654944    9.52391047432704    8.80477748264092
H         9.67088769721712    8.65710490388875    8.18047891655398
H        10.23363138220042    9.64301206232415    9.55175997937993
C         9.27850936039160   10.79249789028931    7.97881621946950
H        10.24362060819267   11.26023413920577    7.76073480119923
H         8.77792866531085   10.57220081823857    7.02555946742200
C         7.98128336191045    8.24455516510313   10.33278881110174
H         8.11646030819492    7.30542580189081    9.79289632652753
H         6.96501139923981    8.28244472168779   10.72962794739854
H         8.69255664721639    8.28018842801848   11.16793038186153
C         8.08563250327520   12.93203040033179    8.17917476929161
H         8.96810885807866   13.55666252323525    8.02162604714646
H         7.39842362197515   13.45022204297111    8.84683942428058
H         7.59636622697454   12.76964700232847    7.21213446141861
C         8.16422201761061   11.19399643286973   11.50933704383325
C         9.43580175147350   11.70693499179093   11.71561824258451
H        10.03699902231733   11.99969369595236   10.86656329314217
C         9.91133801287561   11.86651320491301   13.00484739309570
H        10.89897935940697   12.27687240826810   13.16405538680914
C         9.13355943899386   11.51478976395876   14.10122453105966
C         7.85898408563203   10.99820991445345   13.88321445984503
H         7.24214724734365   10.73122881310827   14.72952481351847
C         7.37913576329227   10.83772456931482   12.60009486790755
H         6.37236143111264   10.45823139198597   12.42332765828411
C         9.63748583205925   11.71566743917918   15.49738416722007
H        10.72207193068714   11.79141498349669   15.51508460351520
H         9.32811693241916   10.89595406771083   16.14260226227397
H         9.22557444079434   12.63754226665854   15.90866755628826

