39
CSD_code = AXIQOP | q = 0 | S = 0 | Stoichiometry = C12H16I2N6O2Ru | MND = 6
C         3.31523656138920    7.00941276498004    0.44548821893696
C         4.02548658723087    9.07861433752531    0.84129974754728
H         4.61122265969688    9.89550917523482    1.20624583536464
C         5.19827220074432    5.73383583935773    1.74860738851193
C         6.29560293638280    7.51317266808347    2.50586075890811
H         6.57277636076914    8.52993212072968    2.68752453976671
C         1.37530878397092    7.70893002379505   -0.95469040908241
H         1.02074312436642    6.69611575296516   -0.73293451944188
C         0.29687408232652    8.72321825483554   -0.60055155154507
H         0.01715092427244    8.63383488606649    0.44675517314584
H        -0.58338168005179    8.54510112631436   -1.21070829381773
H         0.65852846257351    9.73140513164663   -0.78352675280304
C         1.80082373299787    7.80140214300001   -2.41768596601371
H         2.17333649340384    8.79970727755928   -2.63544599120868
H         0.95146302695881    7.59427662070383   -3.06147744465774
H         2.58418739899317    7.07848940585206   -2.63777544486234
C         6.67727123013844    4.07514244479992    2.88217152828435
H         6.15190132132851    3.37518138936113    2.22354505360036
C         6.27018313115939    3.82878882624853    4.33206906566601
H         6.76964264341122    4.54116871870368    4.98452964415627
H         6.55163578263097    2.82256675383687    4.62712938467870
H         5.19359720872536    3.93513049812053    4.45217838312151
C         8.18076127210313    3.95534915093838    2.67219337718654
H         8.43630179809591    4.13464004239830    1.63006938809264
H         8.50777090230352    2.95572640366024    2.94170586766950
H         8.70160443493553    4.67952470042668    3.29296967960487
C         2.13080929445603    4.40468053802256   -0.33436660475273
C         3.96719964533573    3.15535796162611    0.93205381202494
I         5.21934242667077    5.12235654256298   -1.54483998425309
I         2.16219134174954    5.16449530332893    2.99778556255112
N         2.53820225632601    7.93170927625648   -0.11564506243542
N         2.96541173277347    9.18648951519025    0.11404260186448
N         4.27421626172703    7.76047559582498    1.06806910362425
N         5.23840819503471    7.10146627809749    1.75517022303052
N         6.24660006463737    5.40590614867016    2.49789763459084
N         6.91354470595920    6.47765704306128    2.96396079869973
O         1.25902824791148    3.99256435791914   -0.94526735028682
O         4.12672644770892    2.03147356605876    1.05371705270976
Ru        3.60121799885173    4.96599141622012    0.66767555180448

