56
CSD_code = AXITEG | q = 0 | S = 0 | Stoichiometry = C25H17Cl4MnN4O5 | MND = 6
Mn        1.74594430605483    7.89911995401189    3.18430355395928
Cl        4.01618570596124   11.53668765130460    5.30640266412873
Cl        7.12715727786594   11.32887463533726    5.01157495347663
Cl        8.38034220165557    8.97006540259866    3.45819922454406
Cl        6.58061731913446    6.77049376519923    2.17318642305002
O        -0.05642979828495    8.58115309438954    3.88196323705565
O         2.60187067081736    9.24394702822709    3.94356397977737
O         3.64847857154197    7.30032499356378    2.67421554979435
O        -3.90989227184451    5.05984777158815    7.17828703597558
O        -3.49285255887782    3.74566191213771    5.52268998493834
N         0.78642148293543    6.24912313762181    2.24508826442348
N         1.48271506439456    8.59608646061713    1.42631229474895
N         1.68871382840962    6.64985529854358    4.67938890023834
N        -3.39481025425336    4.82201389905718    6.09740443883794
C         1.25499457992445    6.28605788414541    0.85450099391372
H         0.64265893478066    5.65568497744599    0.19603282538369
H         2.29227481850907    5.93554020380204    0.82332758838499
C         1.25132309467236    7.72802770112325    0.41829022752414
C         1.54084901126696    9.90123036515884    1.12388531560108
H         1.70790848744212   10.57407016001817    1.95597926415124
C         1.37946846433190   10.37991513878609   -0.16248760583015
H         1.43707482201761   11.44021113203485   -0.34786684312586
C         1.13970614268171    9.48677858651386   -1.19662473564003
H         1.00540058878782    9.82947596251094   -2.20985790550494
C         1.07355527100776    8.13374406968506   -0.89034272952176
H         0.89067341454143    7.39914491910648   -1.65904332922874
C         1.21571424788214    5.04734962042099    2.97176742113211
H         2.22912104917221    4.78456964666582    2.64929136754381
H         0.54836117913700    4.19641703680283    2.78686013638241
C         1.27981368206096    5.39089247531702    4.43578911306547
C         1.81611557685109    7.03115887337164    5.95489210996567
H         2.14090075210419    8.05129683369968    6.11919945474912
C         1.52802274741549    6.19593884873362    7.01877484193617
H         1.63910819556001    6.55884737670890    8.02745914402758
C         1.08839980425412    4.90585850099189    6.76694484230099
H         0.83834803671765    4.23522088892410    7.57317578575995
C         0.97234820605943    4.49764423868142    5.44614747550162
H         0.63387706322344    3.50355154273807    5.20097365768763
C        -0.69123444015677    6.34339273979197    2.26196354414257
H        -1.12252332761341    5.43825479281708    1.81133984987882
H        -0.96801154613373    7.21000432159298    1.64893824420744
C        -1.24517734699952    6.53745346883263    3.64590987872627
C        -0.91734744963795    7.75097634934403    4.33827091106272
C        -1.58482900791935    7.99064137131512    5.57021192500546
H        -1.38867790896346    8.92850796434697    6.06536982476566
C        -2.40269115949917    7.05240736268289    6.13358523683122
H        -2.87481072258640    7.21958787590811    7.08988928283471
C        -2.62166410533378    5.83163271948986    5.48444169887546
C        -2.06463603944355    5.60340854872633    4.22477369726789
H        -2.30187103955700    4.67619366683178    3.72205726601544
C         3.90256249272726    9.25165123704168    3.87632044280621
C         4.72968299370385   10.23140645495279    4.44684765842980
C         6.10674570427483   10.13454572235696    4.31286741178623
C         6.67501792101127    9.06302664963176    3.60846570427263
C         5.87821922306911    8.08384982863977    3.03678201600290
C         4.47806604314523    8.14827693811695    3.15601648598181

