85
CSD_code = AXIVEI | q = 1 | S = 0 | Stoichiometry = C39H41NO2PRu(1+) | MND = 9
Ru       10.93008303257348    3.67525328077471    5.63757282818767
P        10.33116744005895    1.56365136217748    4.89867301810104
C         8.71114914086839    1.28483469230386    4.11648422518858
O        12.22629792306031    2.61616488885347    6.87682144258258
N         9.65295822003242    3.74931849962543    7.25580400478278
O         9.25908181722563    4.51333727207761    9.30571829222056
C        10.28569485959736    0.34984062528110    7.38572921012796
H         9.98364952426260    1.33097582034690    7.72083648877079
C        11.40683064105745    3.54482084512657    8.95383320868361
C        12.34679326728535    2.84706082893495    8.14118907021353
C        10.97218386560510   -1.08840984647148    5.58305323820653
H        11.20332324183173   -1.24163128768145    4.53789380279295
C        12.85671026609495    1.10776499628504    3.96387811160203
H        13.10925180855081    1.31858263619344    4.99588138783297
C        10.21850847991267    5.54881734006144    4.42108628488276
H         9.25434057045942    5.95357037584952    4.12859244415945
C         8.22505037950880    0.00654409819000    3.86310067779893
H         8.79142144385213   -0.85874684788862    4.17426707960230
C         6.75770598443014    2.23350429459694    3.08079837023336
H         6.18322895634356    3.09619183332653    2.77725521189765
C        14.29337515417452    4.41975906134607    5.33494058808020
H        14.83638044199324    5.29605909580476    5.68535723325936
H        14.79166793825063    4.01390345645458    4.45780420147902
H        14.32709938515358    3.66945915377221    6.12706837888160
C         7.38973353292049    2.77741385970322    7.13840007665593
H         7.91006747735074    2.15365092215074    6.39957764103923
C        10.12239458993784    3.94295429767320    8.45338303653443
C        11.15787241276554    0.86595714003366    2.26915043025078
H        10.11732005268299    0.87105451125540    1.97473030259257
C        10.38064044642390    4.39825107897924    2.16858570923475
H         9.31866277358104    4.61794935776232    2.09414094810403
H        10.54672096184446    3.35291894867839    1.91259074758737
H        10.90718841828232    5.00725744980896    1.43211391138091
C        11.51376088932368    1.13372699645465    3.58592670862057
C        12.87197093185028    4.76812440547975    5.03330234204918
C        12.14281221823720    0.57260561039624    1.33890135170897
H        11.86650633265234    0.36125682546896    0.31691841829272
C        10.54995154268769    0.16014066025071    6.03418225767009
C        12.86071210069286    3.34476910740871   10.88023437729342
H        13.06989810891485    3.54147237480012   11.91900163180951
C        13.51897474104443    2.37514376062622    8.78018750112379
H        14.21711525766284    1.81437586090900    8.17683642590197
C         7.01142431792938   -0.15021725392997    3.21685446398501
H         6.63458255597583   -1.14238199269398    3.02063695506304
C        10.84755195835169   -1.93713027642181    7.82681233733247
H        10.96779290602816   -2.75310033438411    8.52278635662820
C        13.47472029461034    0.54542670295541    1.71662045477971
H        14.23602761101537    0.31372496041382    0.98765147566444
C         6.28096288396147    0.95858586912433    2.82001798638847
H         5.33717673721617    0.82939966760309    2.31329975354079
C         7.96645428062666    2.39468717973638    3.73180042541294
H         8.34807218895199    3.38010275334607    3.97134315349891
C        10.43657185656826   -0.69378839465327    8.27968582140386
H        10.23981135566416   -0.53730810938843    9.32964421116723
C         8.22949528601152    4.07199292939196    7.25198664461965
H         7.99543198735285    4.70907315547292    6.39199578563613
C         7.30207394486043    1.99363306474733    8.44832646254322
H         8.25000184859430    1.98656535517152    8.98049144287634
H         7.03105997701566    0.96302879700028    8.23552385316676
H         6.54017530156368    2.40640024130431    9.10531552112360
C        10.82983148175974    6.00851838754457    5.61686237477097
C        13.83171374979382    0.81057046458330    3.03166410247223
H        14.87064327529740    0.78158892679701    3.32460561944837
C        13.76755687205600    2.61926344048145   10.10510596511677
H        14.67924266071995    2.25074227527773   10.55061475226296
C        12.25177821044639    4.32984784467785    3.85493764492536
H        12.82757907223561    3.77822716087928    3.11926271596861
C         5.99150986162734    3.09642755528612    6.61935995135479
H         5.41202915614457    2.18148472873019    6.53558898657798
H         6.03491535059014    3.56031822312685    5.63745481176948
H         5.47356453925545    3.76948970065018    7.29913588466791
C         8.06931263938520    4.82246546615800    8.58513105279068
H         8.01546964681732    5.90888666913936    8.45587697947443
H         7.21412474268419    4.49263198393823    9.17239020318089
C        10.92212723963734    4.71421377953523    3.52978626326632
C        11.11432244734501   -2.13125075986512    6.48102001411645
H        11.44138452011036   -3.09811617600133    6.12917093803833
C        12.13516204533385    5.59023596847637    5.92515020791454
H        12.62976352763500    5.99365789652055    6.80321421872879
C        11.69788558731177    3.78981829766605   10.30852142191743
H        10.96960298108388    4.33111181851666   10.89209947799943
C        10.15101029648138    7.03650888593103    6.47136258347789
H        10.36111339292138    6.87668670451547    7.52801706816323
H         9.07433536857786    7.04432914921801    6.31334238786935
H        10.53487747141906    8.02309765025156    6.20512865147086

