48
CSD_code = AXIXOU | q = 0 | S = 0 | Stoichiometry = C24H15N4O4Re | MND = 6
Re        1.16053957158467    1.89159943931795    3.59091250785986
O        -1.10539163747007    3.62299669634933    2.34459830620910
O         2.62145880409340    4.29824727052530    4.87171092691473
O         2.93088319076130    1.97477156177757    1.05611132462671
O         5.19457635574309   -2.11635372709005    6.47533609775338
N         2.13250386290190    1.47487159427064    6.75920071047290
N         0.05102026322047    1.70754122528791    5.53625883333721
N         2.47924987377224   -1.01546304054804    2.62880367396605
N         0.28122573492453    0.00235087519405    2.74351823563949
C         2.45652190736476    0.45725883060313    4.56711949793930
C         2.80739950982173    0.54614891244634    5.92530491963541
C         3.70506000780986   -0.31779821846309    6.53443239797268
C         4.29135480231822   -1.34396560013746    5.80317049196607
C         3.88120874077163   -1.55136804566945    4.49729252972365
C         2.97714997496378   -0.66611669073593    3.91219343777759
C         2.54023682770214    1.87272962888389    8.00862616058637
C         1.51601337114746    2.43775890030786    8.70258216646909
C         0.37638601260764    2.39286958044884    7.85694746539642
C        -0.95781115764961    2.76403464444607    7.96927736506866
C        -1.76974616358361    2.53435030563691    6.87483228767093
C        -1.23022421657591    2.03400129540645    5.69434882268987
C         0.81612649119891    1.81849544746973    6.62976790538410
C         3.06574658235535   -1.89017692817969    1.74782837480883
C         2.17508038257640   -2.31903518189490    0.81331090403128
C         0.93731295216263   -1.69132720587853    1.11214440406655
C        -0.34596344166758   -1.72329739885932    0.57984991702871
C        -1.30104405249909   -0.93375797553419    1.19116221958903
C        -0.94622069609454   -0.08602279051180    2.23583228830674
C         1.18179417004733   -0.84719825622678    2.23280152057064
C        -0.26925471952121    2.98666852739685    2.80521145918975
C         2.07017769985136    3.42234487338574    4.36840577137456
C         2.26265805411674    1.97611811225876    1.99347808352870
C         5.83714608448375   -3.15201315833191    5.77565190144673
H         3.95177998928391   -0.24425243439590    7.58065046351776
H         4.22674817132172   -2.40999733362151    3.94589421303263
H         3.55985695685642    1.74572588348016    8.31441059492990
H         1.55590716782051    2.84000797058380    9.69451100563733
H        -1.33981043376963    3.21341619329801    8.87307438781357
H        -2.81941262483014    2.77982340577862    6.90521545635707
H        -1.86541291648598    1.91916487097006    4.82567020246200
H         4.10754184402920   -2.13100986352931    1.82864080240817
H         2.36624302519488   -2.99672386820984    0.00610176690001
H        -0.58210376416178   -2.33749098292765   -0.27557335423905
H        -2.32058475599918   -0.92945333916260    0.83978143365848
H        -1.69031603180104    0.57435927164083    2.66173435290185
H         5.12990028775349   -3.92678557788749    5.45972844876655
H         6.37600402057646   -2.77237713263756    4.90115537497674
H         6.54958392096825   -3.58417056672988    6.47658194187619

