44
CSD_code = AXIXEK | q = 0 | S = 0 | Stoichiometry = C23H12FN4O3Re | MND = 6
Re        2.82361652240278    0.00007377682505    1.53729261202986
F         5.10817681655840    0.00022356646240    7.44161000922494
O         2.09153715019124    0.00085552026067   -1.48648321962771
O         0.81346267787596    2.23896710782310    2.25365512619556
N         3.98502227308396    2.42001635411795    3.51401080307152
N         4.33023691455709    1.63919217138145    1.24387647022448
C         3.69283946766430   -0.00001413487627    3.52355852136564
C         4.01421344178816    1.18445757756874    4.20748873735616
C         4.48552124841379    1.20300153305660    5.51717615981457
C         4.66681950189024    0.00015798117820    6.16383310160901
C         4.00392194883384    3.66541530293926    4.09526722078997
C         4.37506976035060    4.61876088751849    3.20009933428478
C         4.62206813390548    3.95122065582277    1.97076981533362
C         5.05149113285184    4.33027584060647    0.70475788519433
C         5.16956559134057    3.33303735941076   -0.24469541470608
C         4.78530351648469    2.03015078931541    0.05494674356574
C         4.32470489884850    2.57790294817097    2.19841798825273
C         2.35544615820069    0.00070158475433   -0.37057931592615
C         1.53890020472078    1.39408833666878    1.96589283578423
H         4.74062234903469    2.11733743335018    6.02688824971805
H         3.71856539351410    3.79300959720526    5.12080317355093
H         4.46501705059960    5.67053098359557    3.38123296453118
H         5.28024961978022    5.35976356533509    0.47616086170989
H         5.51805078051976    3.55769468161706   -1.24011203603446
H         4.82306797021996    1.27271266989156   -0.71696439922117
N         4.33004661602644   -1.63934292110097    1.24362567513743
C         4.78460720545133   -2.03050067577991    0.05455426009255
C         5.16851728216195   -3.33348215185794   -0.24515649282244
C         5.05074623896209   -4.33059963917915    0.70445311158638
C         4.62208739774655   -3.95131007327681    1.97064894638797
C         4.37575212942197   -4.61872140954054    3.20017188507395
C         4.00498388274255   -3.66529383373553    4.09540172698184
N         3.98575902564979   -2.41995801261233    3.51402108130611
C         4.01468225547736   -1.18437312273210    4.20744894156087
C         4.48604347748708   -1.20273549600983    5.51712783734154
H         4.74155283614266   -2.11696505408660    6.02682215470756
C         4.32486224765437   -2.57794895328688    2.19829053769856
H         3.72013410053759   -3.79279587790582    5.12108811657470
H         4.46587562222716   -5.67046174657021    3.38138961015381
H         5.27925929160623   -5.36015070037145    0.47589189752868
H         5.51650544519528   -3.55830064640765   -1.24071143273141
H         4.82227673053823   -1.27313919249023   -0.71743509809887
C         1.53909899182911   -1.39413987209120    1.96582832377718
O         0.81391869951207   -2.23931471096416    2.25333468965082

