47
CSD_code = AXOFOI | q = 1 | S = 0 | Stoichiometry = C18H19IRhS8(1+) | MND = 8
I         3.53405367454929    6.97769641741612    5.61147419079343
Rh        5.36639716116322    8.83371899437787    5.06206211108389
S         4.61684374336605   10.02822886499973    6.92261013590318
S         4.71487070750348    9.46337561999826    9.84516159585634
S         4.72153651923538    8.92834680799512   13.03688875300481
S         4.55972194412305    8.70482033204333   15.97131926321458
S         6.89976023969496    6.08751298034637   15.53956540741521
S         6.71789289054003    6.80138371305472   12.68448833177832
S         6.71800865794976    7.32444757908079    9.48680630145435
S         6.79448114099499    7.72402308649666    6.53608792665454
C         5.24029753562294    9.15431807275155    8.22172833167157
C         5.72222462038294    8.24457477952920   10.58981457435630
C         5.71956545804013    8.01743638492203   11.93806999677511
C         5.27173524700885    8.10980354416900   14.48893376661891
C         5.65620007204394    7.91965041106606   17.19945420252090
H         6.62027564807839    8.42773601440333   17.17862794294646
H         5.16951939892311    8.10742124553087   18.15646554666528
C         5.80286257479873    6.43467231282512   16.95471023347994
H         4.83915189239059    5.95997204954885   16.77094239039182
H         6.28932671292823    5.94922713860746   17.80085729982703
C         6.17757704915477    7.11745467512658   14.32462441379949
C         6.19068046047319    8.14433383662685    8.05251723260396
C         5.09577747551470   10.46855430563344    3.58950964979424
C         4.48530137986536    9.28648091644184    3.07979013743005
C         5.51800987217284    8.27886880835150    2.92655570212966
C         6.75695319497570    8.85433274066447    3.33429357639238
C         6.49849941073007   10.19814930954128    3.78729652178482
C         4.42883243462679   11.79137001447379    3.75222493561879
H         4.47855639676288   12.32865388642961    2.80355753552475
H         4.91793238628151   12.39733696147055    4.51134486021612
H         3.38055256686808   11.67643655874864    4.01926641801221
C         3.08218544472917    9.17259760021316    2.59458648739999
H         2.39899575357679    9.75116119754947    3.21282250802908
H         2.74592628363781    8.13915115216445    2.58286978827178
H         3.03015923246029    9.56121823800915    1.57599430891945
C         5.34681479549184    6.95975127752746    2.25632009359560
H         5.49208263952301    7.08871580937262    1.18233092699114
H         4.35045140461510    6.55556106745110    2.41764718040339
H         6.07506854056968    6.23510408274338    2.61346927291749
C         8.10040341065397    8.22612851745948    3.18866451873743
H         8.48314774735173    8.44572538413125    2.19041442201439
H         8.04771767272240    7.14519726883078    3.29891422474901
H         8.80787695934431    8.61687577731586    3.91632673264512
C         7.53553771670358   11.20938640669108    4.13986737828674
H         8.39895274986845   10.74732249578200    4.61359281357660
H         7.13784184289830   11.97386541647771    4.80376395013370
H         7.87483933908286   11.69979994560657    3.22546610762313

