51
CSD_code = AXOGOL | q = 1 | S = 0 | Stoichiometry = C22H24AgN4(1+) | MND = 2
Ag        2.43257447480302    3.28458224818757    3.44557804076678
C         1.17979764001629    1.58079217007868    2.94688556473828
N        -0.08799934491582    1.64947693649831    2.49215098077879
C        -0.57084095882728    0.40306601054363    2.21780043172593
C         0.41878400041761   -0.47250509641382    2.51809633422424
N         1.47842992011418    0.26717202672518    2.96028520398265
C         2.72978837087538   -0.30062936490258    3.37839915525809
H         2.57268537004490   -1.00938606111916    4.19238972519020
H         3.38727877723249    0.49983904770075    3.72473342365271
H         3.20836513478631   -0.82179730700068    2.54767730260603
H         0.44764798875078   -1.54040627108746    2.45419789052088
H        -1.55789089417202    0.23714246415321    1.83915013665348
C        -0.81976189211084    2.86704243710927    2.24829886586303
C        -0.84435819471263    3.21877984998044    0.77807373340241
C         0.32214430855732    3.15961981516547    0.02689963157979
C         0.30676866723350    3.48745969636560   -1.31674096433155
C        -0.87560566534575    3.88459820287067   -1.91950537685282
C        -2.04029507333268    3.94955493196429   -1.17458101639260
C        -2.02644564700402    3.61280236706155    0.16804356364696
H        -2.93884975029956    3.66124689812079    0.74416428229795
H        -2.96388506414060    4.25750864895400   -1.63950445795873
H        -0.88815104645939    4.14159058027401   -2.96730995946758
H         1.21782742284437    3.43156615537623   -1.89367485506786
H         1.25177592049101    2.85327627114521    0.49561136347436
H        -0.32693642063934    3.67218617201430    2.81371749651434
H        -1.84003278110647    2.75506153619720    2.62408181250902
C         3.64619215370821    5.01752703393177    3.93637862786639
N         4.98269633229399    5.10782780862746    4.07804606964768
C         5.35832694133569    6.40148398847132    4.30205059618821
C         4.22417014565870    7.14281784716785    4.29891172260393
N         3.19119823564441    6.27901757414015    4.07982853819550
C         1.81026436847841    6.68846840605591    3.96324900043971
C         1.51264351904350    7.17806261436080    2.56515757058811
C         1.43467733403107    6.26751365164239    1.52025667093336
C         1.18419490118287    6.69561338417632    0.23054407700961
C         1.01245472357999    8.04648614463237   -0.02529856026041
C         1.09330829469698    8.96154031716330    1.00995312014640
C         1.34422355993969    8.52999502577491    2.30158147087887
H         1.40098623080056    9.24819574006773    3.10648968964521
H         0.96045150128432   10.01414823421348    0.81376759321879
H         0.81526477167321    8.38344106032443   -1.03097878097386
H         1.11707220525030    5.97657004205789   -0.57125549976588
H         1.57525006628205    5.20533618925756    1.72448749038151
H         1.61481707371370    7.47795429734640    4.69256025662592
H         1.18045491315747    5.82105605426649    4.20032562570361
H         4.07940877170457    8.19419626282535    4.43555112402200
H         6.37905451538708    6.68848340217779    4.44732132793093
C         5.90610944508370    4.00969705545184    4.01671788369848
H         6.48454351000949    3.94836090889918    4.93943445116709
H         5.34888023120863    3.08034505139028    3.88139627325597
H         6.59424099178731    4.13622153962460    3.17960535164605

