49
CSD_code = AXOJEC | q = 1 | S = 0 | Stoichiometry = C21H21CuN3S3(1+) | MND = 4
Cu        7.48654839218691   -5.71264875194990    9.31117687538096
C         8.78310945632600   -7.90130819350688   11.12696533551736
H         8.90900229475005   -8.97931467901736   11.22899648579235
H         9.59791262141450   -7.41431051211156   11.67122276233403
S         9.09531650889498   -7.45581084739751    9.38771532371061
C         8.09172792623197   -8.70626388898884    8.51724158253257
H         8.71610176476378   -9.03666033282514    7.68217265121190
H         7.95918495337035   -9.55284394601098    9.19117219898257
C         6.76916749188497   -8.25925610754456    7.96045966160005
C         5.95768006945316   -9.21143081631317    7.35391496109837
H         6.24662775760340  -10.25008158486905    7.35944127618974
C         4.79047170531428   -8.79951127502578    6.73430784029645
H         4.14336677387476   -9.51706565080378    6.25466784010690
C         4.48314662877614   -7.44977157938961    6.71693569761911
H         3.60751422325461   -7.08550258359340    6.20512143343290
C         5.32752337951599   -6.55829790707720    7.36614813301292
N         6.43473465647992   -6.97265799600223    7.99204395303263
C         5.08176927450902   -5.09221607089156    7.30066935059327
H         5.43537935235904   -4.56966266033534    8.18670415961473
H         4.03383616235617   -4.86535841916529    7.11902925949826
S         5.98972421359515   -4.39850874781578    5.86205246470764
C         7.68916511743550   -4.35972957908672    6.55082942406935
H         7.93945274584207   -5.35639090934824    6.92173186703535
H         8.32084596028921   -4.10569966394307    5.70127984266492
C         7.78728905843989   -3.33390104347299    7.62696743462052
C         7.80148628912117   -1.98334231260314    7.30190445448755
H         7.76147057770350   -1.68596315502196    6.26653750153458
C         7.85686805867505   -1.04414582658795    8.31675393291812
H         7.86703420869394    0.01015488973852    8.09116860202474
C         7.90489323621952   -1.48723557480029    9.62725660752386
H         7.94857081325678   -0.79199082235825   10.44988272138285
C         7.88960101717654   -2.85213913230008    9.88486571398020
N         7.81645665142643   -3.75531434059861    8.89804950259902
C         7.92942070345369   -3.34604444323007   11.29047677704903
H         8.60193900211292   -2.74293946043477   11.89836605822535
H         8.22079707288699   -4.39687339155453   11.33632811771133
S         6.29665810270613   -3.16053981359849   12.10869826751086
C         5.35478203624383   -4.51749062740304   11.30355594262476
H         4.31443693926019   -4.33453312452416   11.56135166458222
H         5.50357037943535   -4.42948906538513   10.22925724097123
C         5.83991200735901   -5.82368085314268   11.82308733544625
C         5.26502678581509   -6.42568443007305   12.93569222187052
H         4.41061590560277   -5.97348697011612   13.41189902410070
C         5.80912189721676   -7.60541059104918   13.41359842355760
H         5.37003461675619   -8.10818582406067   14.26072005972776
C         6.94121136936463   -8.12189023799126   12.80258989788861
H         7.40818647039109   -9.02085087503706   13.17150076466057
C         7.47874407430836   -7.44876994493059   11.71369596805094
N         6.91046329589103   -6.35005032645250   11.22279538491701

