43
CSD_code = AXOKUV | q = 1 | S = 0 | Stoichiometry = C16H22CuN4(1+) | MND = 4
Cu       13.57275650966404   -5.29112119945167    2.81957049525942
N        12.03507428467989   -5.69218072884109    1.67427341021958
N        13.91258171493987   -3.67742390959715    1.37930688446865
C        11.01519707566464   -6.46752100010061    2.03726477099254
H        11.19272733711573   -7.12916600849317    2.87251484137237
C         9.79631338508203   -6.45293918668743    1.38453461693835
H         8.99958182191736   -7.10255075343374    1.70704035619413
C         9.62959244891685   -5.59232995410884    0.30955734577687
H         8.69468365540923   -5.55175486470806   -0.22685691566075
C        10.69108537034547   -4.78454258737165   -0.06659487694532
H        10.59958046804030   -4.10719304040520   -0.90101217823966
C        11.88384383308582   -4.85917873047835    0.63801521081954
C        13.09049210198246   -4.05282359733969    0.23033613767173
H        13.69579455250689   -4.69081895492274   -0.42200450567492
H        12.78106913968852   -3.17766354494502   -0.35691893616238
C        13.37230030048395   -2.51203560379823    2.08038693022538
H        12.28389827602276   -2.54371194498008    2.00589531584951
H        13.71770296315990   -1.57792815021028    1.61706086245890
C        15.29945985511188   -3.47034967281924    0.98652728860845
H        15.39778568110034   -2.66813494836502    0.24557644537231
H        15.70117914440472   -4.38990450705971    0.56585345117948
H        15.89651881906091   -3.20952694447951    1.85693172208123
N        15.11042514925886   -5.69221239616483    3.96487917111367
N        13.23296317466949   -3.67741133634045    4.25983810724251
C        16.13029020443059   -6.46755092930375    3.60185696785374
H        15.95271243644190   -7.12922811284482    2.76664451595108
C        17.34920767424295   -6.45293559716522    4.25452362426633
H        18.14592611423092   -7.10254494723053    3.93198371952791
C        17.51597083680393   -5.59229777855772    5.32947274995450
H        18.45091130898011   -5.55169835569924    5.86582826750053
C        16.45448869442053   -4.78451313303122    5.70565870951921
H        16.54603746177852   -4.10714124399018    6.54005764192880
C        15.26169662579470   -4.85918023815617    5.00110833595712
C        14.05505699500455   -4.05282486754497    5.40880391352773
H        13.44975155275049   -4.69081865961629    6.06115127637507
H        14.36449915320371   -3.17766683798671    5.99606196606085
C        13.77323936037503   -2.51202005633599    3.55875376328350
H        14.86164077050492   -2.54365628097786    3.63326693699636
H        13.42779915076088   -1.57791538358058    4.02205310649915
C        11.84608928752794   -3.47032274321345    4.65263731967895
H        11.74779163137027   -2.66810517692348    5.39359350583151
H        11.44437027920386   -4.38986884165759    5.07331812108403
H        11.24901339986235   -3.20948725108251    3.78224960704218

