42
CSD_code = AXOKED | q = 0 | S = 0 | Stoichiometry = C21H11Cl2N7Zn | MND = 5
Zn        5.06392396195608   -0.06105903711544    3.09497516950033
Cl        4.04569555324974    1.76595440428152    3.85087133935410
Cl        4.65689953091907   -1.93703898779284    1.97762323409123
N         5.85203616212243   -1.05384841727065    4.88752645728807
N         7.18096862647784    0.01996165374444    2.91317694731476
N         5.51543275731363    1.18364295695310    1.23448107546990
N         6.27597055683623    3.30334160696763   -0.29209743371211
N         2.10747194410387    1.31647324938651    0.77539752112445
N         3.41037862481590    3.93849917653929   -2.01170213873485
N         9.22136148741191    2.96664396748082    1.66552386851160
C         5.12496384971492   -1.48615211245061    5.90011786907490
H         4.09780647225336   -1.14963903106043    5.92296035093454
C         5.63545216501501   -2.31981414814827    6.88522301511210
H         5.00804794688245   -2.65509691757646    7.69507527198820
C         6.96277696502824   -2.70454316767744    6.79625374659023
H         7.40132174884032   -3.35087967936101    7.54179272906618
C         7.72564140112871   -2.24666779329012    5.73441438542277
H         8.76334199238336   -2.52665881572358    5.65516268508455
C         7.13274502803176   -1.41840404233895    4.78429507680799
C         7.85176923213699   -0.88635308590810    3.61461852273449
C         9.12511389400009   -1.28953033395816    3.21551541796707
H         9.67341191288923   -2.03569600994724    3.76627966233120
C         9.66906029250491   -0.73806577181897    2.06531641407933
H        10.64193255166461   -1.05644113692084    1.72215482359016
C         8.95709641441011    0.20934618107054    1.35079851076376
H         9.34758777325140    0.63400051812726    0.44087412209256
C         7.69998028752850    0.57324072401493    1.82758129919319
C         6.79577136307322    1.51116760636014    1.15536955016700
C         4.60015611898947    1.86433482418492    0.56605086336265
C         5.02629831932985    2.87383614872611   -0.33092006927525
C         7.16196029425922    2.70720521698670    0.48907630713287
C         3.22797531120853    1.54486293651477    0.72742289434279
C         4.13300635460506    3.46665615054916   -1.25993215890954
C         8.45169937533723    3.37915883121614    0.65993374370189
C         8.81205002946283    4.43429648521454   -0.17985879281145
H         8.15101621681262    4.73005821151772   -0.97805484139891
C        10.01891990895296    5.07286439840481    0.04770064304108
H        10.32991582164668    5.89378023957238   -0.58116958259760
C        10.81639667025576    4.64402675696526    1.09750868441411
H        11.76120365156240    5.11763952043138    1.31197011239821
C        10.36523023298506    3.58405922786064    1.87472429837380
H        10.94591119866428    3.21073749534314    2.70796840501939

