130
CSD_code = AXOSOV | q = 1 | S = 0 | Stoichiometry = C64H58ClN2P4Ru(1+) | MND = 5
Ru        0.25959173538327    0.26342733981609    2.36638764899223
P         1.59567240767545    0.34393188346932    4.20444140586888
P         0.62735201755146   -1.95849580440010    2.05243591972406
P         1.72404483451324    0.02312051910279    0.60288601216502
P        -1.09302785234906    0.36214598672238    4.22989225232590
Cl       -0.95560151411953    1.79551092431515    1.28021936841812
N         0.26299037949874    0.41088876053197    5.28970753533597
N         1.69537235722675   -1.69380466990860    0.73063573504999
C         2.75966719399066   -0.81288975145638    4.97623866848601
C         2.32463639257580   -1.82361319039807    5.82619922257932
H         1.27095978377249   -1.92588309643446    6.03705821198751
C         3.24030818249934   -2.68162240150568    6.40569481139020
H         2.90061977972395   -3.44812814789098    7.08602878170163
C         4.58931784447044   -2.55812712888119    6.11370032642415
H         5.30332494541070   -3.22506878750997    6.57237199171778
C         5.02164378862058   -1.58226969428830    5.22912012514747
H         6.07114965007684   -1.49445048543745    4.99119624416454
C         4.11240884659958   -0.71037391470151    4.66025070328679
H         4.44138348381606    0.06164261856959    3.97770213324396
C         2.45627559900427    1.94491432819165    4.35168494675043
C         3.35244205517648    2.25059618031296    5.37283564309800
H         3.61074834706241    1.50691092481249    6.11335503477052
C         3.91580994764411    3.51206287148657    5.43550236585077
H         4.60836085940930    3.74849608895259    6.22913809320451
C         3.59490033969600    4.47165121927278    4.48770210993719
H         4.04000655350932    5.45322387124926    4.54421973952943
C         2.70536227901935    4.17145193344871    3.46907687453049
H         2.45430355999104    4.91711726702232    2.72961151817949
C         2.14048304671895    2.91163163131419    3.40184930415071
H         1.44825155907050    2.65871159672231    2.60025503969691
C         0.43166741244213    0.77211040414018    6.71028104453025
H         1.49236462065393    0.56730603528878    6.91746913671533
C         0.17966135745419    2.25354570570313    6.98939622690194
H         0.77405780188412    2.87308415653190    6.32135078647926
H         0.46554729811679    2.47337699617533    8.01556962004995
H        -0.86822956910231    2.50833887247161    6.86395040535400
C        -0.40571914436871   -0.10030929902181    7.61203057844920
C         0.20042061177406   -1.03154801652024    8.44716072027731
H         1.27844757346366   -1.11332988070760    8.46552051165588
C        -0.56413823911334   -1.84874503920446    9.26178849962776
H        -0.07940446809239   -2.56544739654879    9.90759911691755
C        -1.94445966988280   -1.74461659561861    9.25223896693181
H        -2.54082906130006   -2.38243384527818    9.88644970614623
C        -2.55531722791382   -0.80930889898400    8.43465373802180
H        -3.63067568947315   -0.71343306911750    8.43089837831328
C        -1.79036689218652    0.00978750125776    7.62434223352773
H        -2.27519656157898    0.74325732485687    6.99876937000376
C        -2.12971474182531    1.81353570464776    4.57514544489657
C        -3.44226399300691    1.76328232275165    5.03351251297373
H        -3.91125086821113    0.81402858083527    5.25232705165750
C        -4.14907203253976    2.93999792844798    5.21295850872076
H        -5.16651559195894    2.90016937734185    5.57198108135967
C        -3.56092484318683    4.16202442877608    4.93049189093157
H        -4.12187932475096    5.07377479228789    5.06730142436185
C        -2.25507557641838    4.21470420366266    4.46710248338219
H        -1.79678338427701    5.16587332664512    4.24184443710150
C        -1.54445087206731    3.04495243584580    4.28515927446891
H        -0.52301884266131    3.07323121257919    3.92114748918025
C        -2.12022399207195   -1.08720778119950    4.58605642172082
C        -1.74273102140468   -2.13949855455684    5.40858742103201
H        -0.82543999464045   -2.08160180647654    5.97330420457769
C        -2.55207976252586   -3.25713053161681    5.51361597673133
H        -2.26340941864124   -4.06423914017208    6.17057173758871
C        -3.72342105067399   -3.34383341077640    4.77971310308555
H        -4.35037168515863   -4.21828866619445    4.86421786943327
C        -4.08722243618243   -2.31106527693070    3.92931193434003
H        -4.99305073319791   -2.38343316357434    3.34641594047918
C        -3.28738763286831   -1.18971065277567    3.82807588541504
H        -3.55819256521178   -0.38080086908450    3.16013041437146
C        -0.83741693173582   -2.79952285985682    1.36489475406365
C        -1.92887393465420   -1.99401952778552    1.05438893602531
H        -1.88096016410632   -0.92952528056789    1.27896776464160
C        -3.06144761409583   -2.53887103692881    0.47900842690610
H        -3.90384849450052   -1.90737374945091    0.23933153712912
C        -3.11063615364598   -3.89749341894148    0.21307310333714
H        -3.99286810982953   -4.32853299610032   -0.23488983406039
C        -2.02780384249983   -4.70596921472575    0.52276812989012
H        -2.06794017466882   -5.76431134266675    0.31377494187261
C        -0.89226561961588   -4.16512784117230    1.09785922445355
H        -0.05413587072816   -4.80306751643787    1.34022247750289
C         1.42149791149080   -3.26318747351236    3.03016274489240
C         0.62656411276353   -4.06514565371022    3.84576114498046
H        -0.44306177049611   -3.90525971826886    3.86756405617699
C         2.57590316110106   -5.26763216926049    4.55886043022932
H         3.02368722629823   -6.06056241328396    5.13830854357349
C         1.20560293262645   -5.06335408300838    4.60658546235323
H         0.58656601273396   -5.69085699902558    5.23013879052760
C         3.37223751743321   -4.45124658527668    3.77166079198835
H         4.44094567038320   -4.60201289031310    3.74150557237442
C         2.80056169736851   -3.44031689766941    3.02223791745834
H         3.41788891543093   -2.79111990549523    2.42009458113691
C         2.10609691927937   -2.78877609587789   -0.16886512840980
H         1.92616898039306   -3.70197615239499    0.41732556930196
C         1.25955734358223   -2.87549715838574   -1.43845201815773
H         0.20116234351712   -2.90628005527967   -1.18873994406316
H         1.51823431171541   -3.78614302532497   -1.97409105300436
H         1.44056436680419   -2.02953984062477   -2.09446680586503
C         3.57592773408750   -2.71972321740286   -0.50093421680929
C         4.45282586968630   -3.67657556820611   -0.00354256283662
H         4.07411805522811   -4.48508736178697    0.60640715621543
C         5.80532376548468   -3.60779300807531   -0.28985118026960
H         6.47426956487557   -4.35982103017247    0.10088532761417
C         6.29790316149885   -2.58169822761726   -1.07768009483440
H         7.35253376413810   -2.52729282020203   -1.30018570625071
C         5.42915381528704   -1.63291102911371   -1.58911771050410
H         5.80408091760085   -0.83659861830844   -2.21433839703552
C         4.07733363220637   -1.70505117323684   -1.30622621796468
H         3.40623350510262   -0.96712574401492   -1.71807255415945
C         1.25080128241056    0.46860067175545   -1.09357302580721
C         2.06905073057209    1.13594485321467   -1.99934613409343
H         3.08378456783089    1.39750732464182   -1.73315789359411
C         1.57761487002104    1.46375489106515   -3.25134937551113
H         2.21449605439255    1.97842234924151   -3.95502289522025
C         0.27690407103996    1.14044203358815   -3.60156767321694
H        -0.09960755996317    1.40606451496325   -4.57744903972877
C        -0.54320385452762    0.48168424742329   -2.69814442642574
H        -1.55880246152336    0.23360564936495   -2.96742374424669
C        -0.05964308243189    0.15178478862745   -1.44770159103812
H        -0.69217790000131   -0.36186244134176   -0.73170556289299
C         3.40985325795086    0.64486882458756    0.83506010552671
C         3.56122820046686    2.02355982355060    0.68150352806296
H         2.71667415161940    2.61558570941375    0.34970454017175
C         4.77511087628424    2.62496882724774    0.95018700121618
H         4.89018830676045    3.69090478189106    0.82340360628923
C         5.84467567557359    1.85703438425833    1.38433216510816
H         6.79554570238493    2.32472503021582    1.58926596853319
C         5.69060762702347    0.49228993871812    1.56304276124575
H         6.52074343610253   -0.10589891933462    1.90858874332383
C         4.47357199993289   -0.11345009777432    1.30393751760060
H         4.35489132849560   -1.17484577580418    1.45594214884373

