40
CSD_code = AXOTAK | q = 0 | S = 0 | Stoichiometry = C15H17N3NiO3S | MND = 4
Ni        1.86385701298602    0.07338572311690    0.62326227553389
S        -0.01384637286517    3.12343884602615   -1.86023270492883
O         2.74925512434816   -1.53265707938774    0.91800165001672
O         1.82888755601164    0.43047037092890    2.43130968864452
O         2.10233455949976    0.35345239675201    5.01873658657435
N         0.97209024240256    1.65914444257592    0.23177459065549
N         1.25305306433282    0.80631621374094   -1.88501729174278
N         1.85573962473235   -0.19307798530686   -1.18677252865805
C         3.83107269722016   -3.61188952856567    0.64966609404013
C         3.14261574975536   -2.39502847841168    0.08207762223328
C         2.97952213603420   -2.28635181007435   -1.30359737336748
C         2.34902154937585   -1.20196370361726   -1.90368921873754
C         2.20445957560983   -1.14060284708272   -3.39417772727833
C         0.80213082355045    1.75247432516879   -1.12950141273473
C         0.07989205264365    2.62155034199538   -3.59717288063136
C         0.54198752370583    2.58764541594874    1.06064164738131
C         0.69021272245611    2.53881495355127    2.45052107409873
C         0.18715619024568    3.59766269997602    3.25140744768664
C         0.32138489491408    3.56839932248170    4.60247262387838
C         0.96419159486242    2.48567272013874    5.23608409970460
C         1.46664974095030    1.44101618688016    4.50967447251215
C         2.27573257409378    0.27053834564765    6.40888152347384
C         1.34996160370374    1.41995914855627    3.06667853177240
H         3.15994938253637   -4.10656629819976    1.34878942526705
H         4.12488877765230   -4.30687794041401   -0.12974100938678
H         4.70918476271125   -3.29585389836718    1.20915558729025
H         3.35461897926834   -3.07277633301865   -1.93673112597164
H         1.15000928579747   -1.07730788764880   -3.65613766420590
H         2.68730094247945   -0.24053202535806   -3.77008936940974
H         2.64538335349514   -2.01414327990596   -3.86302932011250
H        -0.43988143309713    1.67760410959982   -3.72073157049609
H        -0.40241534618334    3.40683790400758   -4.17009001261874
H         1.12187218215156    2.51982142258789   -3.88041732583291
H         0.03654535402495    3.45234802001871    0.63020262452791
H        -0.30328446360235    4.42373819458888    2.75868219218409
H        -0.06099798771352    4.37252197508227    5.21208835991650
H         1.05053548419705    2.50103293049128    6.31137797706165
H         2.80284453324208   -0.66571535961669    6.58496619305393
H         2.87793408495932    1.10243508746474    6.79060991741968
H         1.31484986751337    0.24946335764973    6.93486633118619

