44
CSD_code = AXOTOW | q = 1 | S = 0 | Stoichiometry = C15H22N4ORhS(1+) | MND = 4
Rh        0.98761203368237    1.51862780143053    2.90877350621206
S         3.10187533112080    1.34277863457572    1.85528647273252
N         0.67959047230849    2.92491795704830    0.31217937765197
N         0.18544879992243    1.96002119693320    1.10806399980289
N         2.96981381936172    1.59669075654966    5.10961864204568
N         1.87904897576593    0.96870593179883    4.63621909293486
O        -1.53578794470483    2.23644031634076    4.32951407993634
C        -0.59116794627225    1.91225073667141    3.77871948563324
C        -0.83584172682309    1.39938709287772    0.46880917426114
C        -0.99615834853901    2.02750596541921   -0.77201935696056
H        -1.73405985884999    1.80358260719186   -1.51345064573182
C        -0.01073998723758    2.99029041210195   -0.84900174898101
C        -1.61249120754328    0.28100275152207    1.05919246994451
H        -1.02262932141532   -0.20685132805069    1.83909446517549
H        -1.86962768835860   -0.44544905811851    0.29298601160797
H        -2.53856679423097    0.65249799249328    1.49716303014037
C         0.30028518890549    3.95499928939297   -1.93074584993941
H         0.22407563951426    4.98086710170806   -1.57135685569641
H        -0.40820161089988    3.82416187091960   -2.74287669545161
H         1.30515960874956    3.80065643376972   -2.32291628870944
C         1.87985483037367    3.61149048222756    0.69899148652737
H         1.75965064815761    3.96424621714388    1.73491825701890
H         2.02211347611759    4.47332107083280    0.04403155203775
C         3.08506059920545    2.67306630803218    0.59100740952460
H         4.01878032473096    3.22456675330515    0.67828043351517
H         3.06896919559588    2.16015333361105   -0.37218308158066
C         1.59077919008051   -0.01954602241116    5.47618537055297
C         2.52732082731868   -0.01922137955507    6.51716855837888
H         2.56052029258261   -0.68999124358319    7.34978664833158
C         3.39989904515393    1.01644372459830    6.25306185432802
C         0.44385864909686   -0.93331402621770    5.24913831678394
H        -0.37355044206805   -0.69258049241308    5.92758946875961
H         0.74013147495484   -1.96326135941279    5.43170144020253
H         0.09306430103227   -0.83441509948430    4.21882608076253
C         4.58456563818154    1.48547317351435    7.01079810307731
H         5.49156427598586    1.41756785272390    6.41075000231961
H         4.71189436346631    0.86933804137534    7.89553806764076
H         4.45829077796688    2.52004242415634    7.32892680794126
C         3.57966071561181    2.63221774451093    4.32413107297359
H         4.31257688247398    3.15956708154888    4.93800157172890
H         2.79390408291552    3.33942717134253    4.01514629712672
C         4.26866783071396    2.03058750699251    3.09605429237686
H         4.90010007054835    1.19382822392531    3.39954968603033
H         4.88638551534699    2.77250805066075    2.59464793703446

