29
CSD_code = AXOWUH | q = 0 | S = 0 | Stoichiometry = C8H12N6NiOS | MND = 4
C         1.49295679714794   10.08967096037417    4.58069187478135
C         0.18910784633923   10.68248125546739    4.44629882532638
C        -1.17554398856883   12.74871751653614    2.07199659524686
C         3.25899094043575   12.37146868584196    0.00605882377961
H         2.48760412004109   12.96229939571476   -0.45038284863757
C         4.56211001940220   12.15426529426632   -0.43190762681807
H         5.02388376541105   12.54690176193181   -1.31367425966169
C         5.12455544306440   11.32363668151555    0.51935662559456
H         6.10745614574912   10.90310048153273    0.58614724018529
C         1.86338814590953    9.19979450685210    5.72453001354039
H         1.16609611235851    8.36808853172570    5.80557796396361
H         1.84962084028268    9.75427679061691    6.66193569276816
H         2.86644971794976    8.81447638042422    5.55685824944448
C        -0.89514638046404   10.45159075827756    5.44433597181905
H        -0.55276533089443   10.72153228034557    6.44152453675217
H        -1.17363485550697    9.39877244360395    5.45620450765910
H        -1.76166028447503   11.04990976863770    5.17790456777848
N         2.33013836929196   10.39232492126282    3.62185584893045
N         0.03012434750306   11.43092922253333    3.38911869033056
N        -1.14894706665296   12.03689819420067    3.16289286879408
N         3.05472439386086   11.71169393814765    1.14837720013928
N         4.19354190909602   11.08447664296988    1.44190469270993
H         4.20411104729472   10.50589905540723    2.33065196921672
N        -2.30374147261755   13.38169557262334    1.70123993892976
H        -3.08290014514147   13.41269282440824    2.33433053236062
H        -2.26822946673038   14.01252219742198    0.92110050347883
O         3.53188631673448    9.92704741626946    3.62556914911520
S         0.20214848818682   12.89772930261990    1.02594862995998
Ni        1.52697422499228   11.57330721847075    2.27445322251251

