59
CSD_code = AXUBUS | q = 0 | S = 0 | Stoichiometry = C19H35NNiOP2 | MND = 4
C        -1.60638189588372   11.86643821121030    7.97880670548612
H        -2.15973058819115   11.28555588756357    7.23564380232270
H        -2.11620747207922   12.82714897534441    8.09602865321632
C        -0.16519388594546   12.06892835560897    7.50678094723830
H         0.22305690357612   13.00766953176120    7.91156620557296
H        -0.12259517174429   12.13547926550576    6.41588971197671
C         0.91348447525670    9.47818983993806    6.72341121231708
H         0.81319365541898    9.99263944847905    5.75863941989507
C        -0.32546326735064    8.62020083285304    6.97890739943790
H        -0.29314929458813    8.22469237510256    8.00743179482713
H        -0.36319555264556    7.77394163449043    6.29425241009929
H        -1.23820609959382    9.19893016161790    6.85332621333045
C         2.15597399934684    8.59166867271053    6.71517630138625
H         3.04331921793524    9.13758347964744    6.40342748940423
H         2.01293435758593    7.76303064211105    6.02272654863605
H         2.32611433605500    8.17779088604811    7.70906043867311
C         2.65832035174409   11.52202296670455    7.87962950823643
H         3.36637615316966   10.69562950467308    8.01929527360532
C         2.92297848433344   12.53913108875946    8.98739855635029
H         2.28887994604565   13.41834127427943    8.88043161971294
H         3.95897433445629   12.87218220267074    8.94778071097338
H         2.74539925685474   12.09030794923303    9.96256890845406
C         2.87542018541703   12.14517115445453    6.50388317229803
H         2.67740823826167   11.43672250306314    5.70310739055022
H         3.90970703615301   12.47467861612786    6.41316019458639
H         2.23671061971793   13.01472985599433    6.36333719538435
C        -1.63719494909568   12.21516476175354   10.88693861216637
H        -2.14536843030032   13.12565702954472   10.54271682961353
C        -0.15341770013141   12.50330734118841   11.11647398836806
H         0.37516931408819   11.55849559380001   11.31829466946798
H        -0.00905251764350   13.15858502280464   11.97455430108466
H         0.29473896464544   12.97882888975898   10.24637748361295
C        -2.27043873723210   11.71619381500800   12.18307571533150
H        -3.35380968455914   11.66040603257600   12.10901344964918
H        -2.02529368749932   12.39484157732960   12.99890074426744
H        -1.88262764464047   10.72839903099994   12.43332457594482
C        -3.47611294076957   10.32409383547030    9.59642525528006
H        -3.62274586415206    9.97939141128229   10.62709571987925
C        -3.63199367067303    9.10520613928386    8.69067187828428
H        -3.54025198513789    9.37368954157659    7.63905680723149
H        -4.61104132508778    8.65241420909583    8.83502483147920
H        -2.87283315714702    8.36244559528783    8.93570241279842
C        -4.49788074135596   11.40726553232183    9.26780946672030
H        -4.36217472136554   12.28621265166433    9.89421586140812
H        -5.50339339696557   11.02461934491565    9.43589831819041
H        -4.42698854044531   11.71015515330198    8.22511847729676
C         1.67313478260653    8.80506954424953   10.30663276950407
C         2.24693705478351    7.55989142255409   10.33620181160583
H         1.76551664038346    6.62897907940596   10.10747876257288
C         3.59423288493404    7.73252694749716   10.74508083441492
H         4.32887959699979    6.96288181296305   10.87160009830422
C         3.75762855206761    9.06360235280509   10.95041207022784
H         4.59820627130827    9.64842481144380   11.27009554749002
C        -0.61075901266911    8.63951851687009   11.09263636186854
O         2.61093329178985    9.72308587848149   10.68823103471388
Ni        0.09646327536592    9.70492376032924    9.82376162347661
P         0.98810851363398   10.73047349266453    8.10533229271736
P        -1.71094865667814   10.90242762834725    9.56694845325758
N        -1.17525010237118    8.01841692746935   11.88023115781008

