73
CSD_code = AXUDAA | q = 0 | S = 0 | Stoichiometry = C28H28CdCl2N10O4 | MND = 5
Cd        3.95121479284259    8.32340962891851   12.43230139301164
Cl        3.23546160680648   10.12076651366391   13.75837595248112
Cl        5.59641477550871    6.69498987974645   12.86909597568926
N         4.43847846722338    4.07770868488045   11.31929418893496
C         5.43538141480258    3.28583584088624   12.01226747438275
H         4.91564684869425    2.58286261862497   12.65804917800269
H         6.05941310891961    3.95950882322565   12.59994000793352
H         6.05206291849911    2.76010822416492   11.28564089004913
C         3.11101893345218    3.91447223289962   11.64078472866501
O         2.72293934690197    3.04940300264708   12.38809611127913
N         2.20956283986376    4.76639294711587   11.00682103934137
C         0.81568256127087    4.53115896212672   11.34494247171295
H         0.20418781504638    5.15190256890170   10.69433957221056
H         0.64610958468229    4.78823055778852   12.39028859800557
H         0.58497997516814    3.47654210596004   11.20006949478087
C         2.51462599149595    5.81978762866711   10.17134374962624
O         1.64411014029766    6.52458880382634    9.68886152643871
C         3.94911943039269    5.97037418722619    9.91672316297058
N         4.39773768560435    6.96365310218173    9.15715193632468
C         5.69243805950365    7.06669608812876    8.91707267633913
C         6.58902110582036    6.08924358706769    9.40219154264109
C         8.06005313463016    6.04525506391485    9.14536385546765
H         8.31151155545039    6.25679989196819    8.10990378115259
H         8.55908925591607    6.76739679000072    9.79034692128896
H         8.41825728413132    5.05472734172083    9.41233459407657
N         6.14858040923968    5.10598053166981   10.16329202463070
C         4.85902904051925    5.05823321170831   10.48327544954028
C         6.10689559535916    8.26108649031507    8.05759425061382
C         6.29106498181252    7.80097257922161    6.60705552388140
H         5.36808444972571    7.35884193316718    6.24227456317947
H         6.54809979532735    8.65030472486938    5.97758552169768
H         7.07701957281649    7.05440421033882    6.52552380068439
N        -0.94078855619090    9.44198584347640   10.52049691144985
C        -1.88564041468524   10.15800632859176    9.68570681710824
H        -2.88293132196826    9.98564867113405   10.08358185010076
H        -1.64980579599352   11.22101864394445    9.69956730056005
H        -1.81740493585052    9.79339860655803    8.66177103773234
C        -1.41708889367448    8.70130200748326   11.58685582769405
O        -2.59395665461110    8.63685690759001   11.84500636192287
N        -0.47574760437464    8.02059531013725   12.35504742565870
C        -1.00658423858745    7.26507020321117   13.47892882054668
H        -1.73786854604565    7.87721523378207   14.00382555608890
H        -1.49697507419783    6.35762924377468   13.12559358770404
H        -0.17666933141010    7.01247494127638   14.13467898329061
O         1.63800537848773    7.30550404569607   12.79437953911834
C         1.31157253484865    8.82633898728600   11.01660397927572
C         0.87719627604553    7.99302890081096   12.13281152238066
N         2.59783227412353    8.87527151381983   10.72739127548446
C         3.02110668608546    9.56921455828875    9.68436559205555
C         2.08219946560263   10.30736617393908    8.92016022165655
C         2.46401129171453   11.21516921456688    7.80000887269931
H         3.39556766930680   11.72914772542980    8.01856523979168
H         2.58484026341358   10.64961850018884    6.87756691658174
H         1.66707612101064   11.93813299771741    7.64845789896014
N         0.79406451606938   10.26819059558760    9.20769501821696
C         0.38439240148524    9.51877053334098   10.22990450732143
C         4.48052327124984    9.52916197783965    9.47940276466028
C         5.00193529680703    9.35198608253512    8.08591796136126
H         5.44876616468147   10.27356452770854    7.70776657023309
H         4.18352584177753    9.05202182937852    7.43520730413237
N         5.16756475310491    9.56355254475836   10.56003443280856
N         7.33141753284020    8.85694812071642    8.51662289835236
H         8.16395149264157    8.63883237024074    7.99198860480307
C         6.53147875613405    9.58687442615086   10.73531492330176
C         7.55051627212025    9.29638065807070    9.79608257730717
C         8.88517730844750    9.47223805499421   10.18906750232274
H         9.66157109134507    9.26823893354794    9.46291754832805
C         9.22520737482679    9.88321922757581   11.45578475633437
H        10.26531604372086   10.00044153988032   11.71985934357032
C         8.22921697477031   10.12839436853769   12.39591266936667
H         8.48739662886177   10.43390385711970   13.39704545702647
C         6.91388844727131    9.97957550233476   12.03259272183095
H         6.11825076128443   10.19237153319782   12.73800894371906

