42
CSD_code = AXUDAY | q = -1 | S = 0 | Stoichiometry = C20H8F10NOPdS(1-) | MND = 4
Pd        5.99103836359192   14.15819162952739   14.80975096294624
S         8.03666956144857   13.69906049593920   15.93692470772331
F         6.33495994095552   15.95045229691926   12.68313652774792
F         6.08728818961074   12.52679506022932   11.95878362759644
F         2.63850323979197   13.99893470412061   14.79190394179790
F         4.63856367614567   17.45854274796733   11.06275837213079
F         4.79121597410958   12.17230197281830   16.43548540161218
F         4.30048710736011    8.42523153176347   13.53947439218922
F         0.92562270251468   15.45706514352317   13.20287434505952
F         5.33330521068278    9.90398661308825   11.49867920022548
F         4.00674734624567    9.51563843865451   16.02268738918688
F         1.93812746736550   17.18541398549617   11.35736001038167
C         5.46701853139368   19.85913131332296   15.47858897916860
H         5.11352851551354   20.87775219662273   15.40570189953843
C         5.45474580592373   12.36753198813805   14.21037353227759
C         4.91410338333330   11.57582985477625   15.21957132494829
C         4.51383439663149   14.96995778604802   13.76489011735482
C         7.28623843939654   18.28504523571072   15.47098058361509
H         8.34121949299069   18.07895916753147   15.38048781220243
C         5.58020437509485   11.77380074005764   12.96315175416258
C         6.38537746757558   17.23288691097009   15.64509830438422
C         6.82089140434090   19.58331237321089   15.38566262011277
H         7.52531632507534   20.39077434123502   15.23863974820069
C         4.52173846895884   10.26240443526881   15.02680444833919
C         5.01883251681461   17.51913686105225   15.73847910147358
H         4.33149194175469   16.69182751932839   15.87614754925186
C         4.15300474004057   16.60186253502034   11.98142135130261
C         5.20038338968928   10.46061674421149   12.71975784173506
C         4.56742148584462   18.81910950394428   15.65795852761596
H         3.50874969432229   19.02525666783805   15.73019165686437
C         4.98279169530475   15.84932913198806   12.79492995446410
C         2.77524333894184   16.46384063618067   12.12952029707300
C         4.67106899982940    9.70341939237714   13.75932469556344
C         2.26188271216571   15.58184858740278   13.07371162603398
C         3.13685556031582   14.85272155327224   13.86930598547806
O         8.81455281896734   16.14891063643342   16.67181893641438
N         6.74205805737578   15.89561347344983   15.67522071437737
C         7.86302351574185   15.38626653768590   16.08894517742199
C         9.95341731745311   15.48379390489047   17.16592206580668
H        10.57905448903625   16.25294364869756   17.61581014664316
H        10.49198723622573   14.98156859655191   16.35726346793195
H         9.67393510427457   14.73663310679989   17.91380090168117

