73
CSD_code = AXUFOO | q = 0 | S = 0 | Stoichiometry = C36H30Cl2N2O2Zn | MND = 4
Zn       -4.93722456661730   -5.51256338359842   -1.74364152166356
Cl       -4.20755622953309   -3.49551181691630   -1.29181461990844
Cl       -6.90276665523523   -6.55294648015831   -1.77113813071703
O        -3.69960717913499   -6.92411097669666   -1.08610800944069
O        -4.59276491794679   -5.95967817515407   -3.70497225013214
N        -3.17597353306601   -8.81806046606345   -2.75814804239007
H        -3.82614364450406   -8.10558709271057   -2.40723938106429
N        -6.67826770958209   -6.93224308497005   -4.93104972204523
H        -6.20000808110940   -6.81801537091683   -4.02839597759796
C        -1.61897792287564   -8.03468967603604   -1.10128267130430
C        -2.50150534316494   -6.98122987148098   -0.66745763534984
C        -1.98896589456909   -5.99796845160790    0.23595181775251
H        -2.64635992398213   -5.17955963556708    0.48983628778134
C        -0.73596517229488   -6.08494845545676    0.73485456915370
H        -0.36626018941357   -5.32823027714318    1.41243971099765
C         0.12561496899014   -7.17385272309422    0.41486429091772
C         1.39525137167753   -7.27150915947263    1.00260717920475
H         1.70983078897680   -6.49652301156908    1.68641887780540
C         2.22095977035938   -8.33182656579768    0.72472348082017
H         3.19645175676711   -8.40312609367832    1.18110092850835
C         1.78360640903322   -9.32824921527502   -0.14563990748441
H         2.42072555804662  -10.17585572405532   -0.35144445835901
C         0.54534579058816   -9.24787247939996   -0.73923855440473
H         0.23670945485836  -10.05360988499922   -1.38718700679990
C        -0.31331609448230   -8.16639182732886   -0.49259939844345
C        -2.00154498345132   -8.84299075016852   -2.17121777889706
H        -1.28518966326795   -9.54294373265352   -2.58857496297955
C        -3.47490445945049   -9.48261683965636   -3.99411567927328
H        -4.52345343885777   -9.79100213545781   -3.97516626449954
H        -2.85101338718908  -10.38247580738883   -4.07261430045999
C        -3.22809402089418   -8.62043789481280   -5.21594132196233
C        -2.19599423416659   -7.69447147058748   -5.25263063421642
H        -1.57883057549731   -7.53324868541086   -4.38023734574775
C        -1.94886399808098   -6.96668556930350   -6.40385952892279
H        -1.14402712386756   -6.24748772572130   -6.41930204233094
C        -2.72536893921577   -7.16252423376733   -7.53178686463886
H        -2.52756263521653   -6.59937477312055   -8.43105435745795
C        -3.76289614119641   -8.07859761538372   -7.49721559699678
H        -4.37622509811007   -8.23084824569823   -8.37277680393431
C        -4.01696461448607   -8.79978048128773   -6.34475334571241
H        -4.82661150887048   -9.51523661100682   -6.31848858932906
C        -5.07659115874171   -5.46156571473468   -5.96365457592856
C        -4.32900951501231   -5.28182395235602   -4.75005331019722
C        -3.26559169404371   -4.32534549782147   -4.73986971814379
H        -2.76130750217770   -4.16905751294793   -3.79759062809408
C        -2.92781177804795   -3.63483528038403   -5.85043382946846
H        -2.12705102022635   -2.90888686106443   -5.82002740824651
C        -3.59458338520728   -3.84303065359114   -7.09043078495381
C        -3.18293415271772   -3.14801714074930   -8.23748089511415
H        -2.36062469318378   -2.45206900818293   -8.15257622573652
C        -3.80426577014925   -3.34522231118676   -9.44418926196387
H        -3.48270418858174   -2.80912719166066  -10.32424995062850
C        -4.86003094997754   -4.25177221766651   -9.52442579034080
H        -5.35077586667049   -4.41703755107522  -10.47262646873565
C        -5.28268438152417   -4.93845800729422   -8.41123124359479
H        -6.09742380144563   -5.63519522153193   -8.52923391052512
C        -4.67169536968692   -4.75889643258901   -7.15955532757087
C        -6.21003871254894   -6.28219341006944   -5.96000321956137
H        -6.78883116152598   -6.37963933910890   -6.87199259248475
C        -7.86652698181671   -7.74537931462985   -4.92052901865673
H        -8.41865641988185   -7.60724227468427   -5.85414052339256
H        -8.47680318486362   -7.42292107838221   -4.07212372927481
C        -7.48375544994746   -9.19452337245684   -4.73324812226073
C        -7.11353300674192   -9.64139864582569   -3.47017361087479
H        -7.13276146260579   -8.94780887506311   -2.64223737431982
C        -6.72813054054965  -10.95879117817491   -3.28739903916675
H        -6.44630399514608  -11.30342610683851   -2.30347737201642
C        -6.70697538367495  -11.83556141419817   -4.36103262795838
H        -6.40997903759416  -12.86372890368678   -4.21605165382638
C        -7.07145926818151  -11.39155859935428   -5.62051917389311
H        -7.05821889061800  -12.07158434832186   -6.45966178747922
C        -7.45565178334556  -10.07342710465828   -5.80667814166331
H        -7.74357748357024   -9.73259300912590   -6.79150712245478

