73
CSD_code = AXUFOQ | q = 0 | S = 0 | Stoichiometry = C28H28HgI2N10O4 | MND = 5
Hg        4.57515268950823    1.27242905691374   16.13907873203903
I         3.27814078158665    3.40780410245095   16.94280171690982
I         6.49129821577324   -0.45271923632404   16.52697001960497
N         3.06769979130739   -2.79749349555977   14.58754481231119
C         3.68392358505851   -3.37840107790267   15.76666427279802
H         3.16263457735450   -4.29920234621726   16.01997110210509
H         4.73184341356019   -3.56241714470706   15.54744774649462
H         3.60199989098705   -2.67881688471257   16.59999038551694
C         1.70065656130919   -2.86492175555115   14.47579775110701
O         1.01312652234193   -3.43094511248385   15.29400092003907
N         1.12694369253844   -2.26061793595000   13.36081488854971
C        -0.30026178314186   -2.49080245189202   13.18990396389438
H        -0.47256953461706   -3.55083272101377   13.00401470448252
H        -0.63027204853600   -1.90135882257427   12.33780668701666
H        -0.84849206468604   -2.20747039918096   14.08685520662925
C         1.77080345639631   -1.42472712105798   12.45973476051913
O         1.15691478810789   -0.78780541728484   11.62895627155414
C         3.21828945254385   -1.38871137508108   12.64875977797762
N         3.96125335979468   -0.58433688144688   11.89943120694944
C         5.27046071780086   -0.56374810051790   12.05522046136417
C         5.89343793751987   -1.49977864998302   12.91213909975776
C         7.35626195630106   -1.76787181764303   12.97989056979775
H         7.78713500685855   -1.85998584700913   11.98625218118055
H         7.86293492909874   -0.96514583416304   13.51226056057186
H         7.51030108244241   -2.68566698907338   13.54040869283169
N         5.14913714871783   -2.22615311382055   13.72495941262531
C         3.82539243008531   -2.13741667257630   13.67022878832231
C         5.97139839740953    0.51239770196135   11.22995154408430
C         6.04862389753250    0.02521342815572    9.77884240850928
H         5.05406221775188   -0.23261868470881    9.42609094416216
H         6.46161957817089    0.80424161675867    9.14124927948663
H         6.67683411468450   -0.86100040553801    9.70959637739625
N        -0.57302317488499    0.94074262385669   14.07728619748940
C        -1.65697604969016    1.36827091889572   13.21361333572842
H        -2.57560938821954    0.91096310330436   13.57298086743286
H        -1.74012005796324    2.45395496284202   13.24122835637413
H        -1.44047620211984    1.05418070256462   12.19365652805289
C        -0.86224449883905    0.17100794589986   15.18872808043269
O        -1.99241971192073   -0.15053929180517   15.46233992185537
N         0.21746138294859   -0.22312868875455   15.97723157135838
C        -0.07625558430129   -1.02609647154729   17.15590425409053
H        -1.11943023187894   -0.87969379177932   17.42249796119419
H         0.10786460256594   -2.07966421336780   16.93654925910383
H         0.58000531568644   -0.70717175903565   17.96350636710437
C         1.53183483122216    0.05476306091411   15.72527627818821
O         2.43236998469923   -0.33973673873409   16.45312631996572
C         1.76647252646527    0.83730643760477   14.52054495620218
N         3.01700438689653    1.10087126456996   14.16350996176315
C         3.24279178648510    1.80650652044613   13.06164636649244
C         2.14666024281264    2.36841025516713   12.35602968509528
C         2.30197562062324    3.34564940487045   11.24347556693148
H         3.23309627878864    3.89862288283693   11.32481079314337
H         2.27538033428659    2.82044821582334   10.28916190657523
H         1.45774024877947    4.03055695523090   11.26104104045201
N         0.90708606457090    2.09772851739534   12.70856348937484
C         0.69447016343730    1.29352326150813   13.74722591840120
C         4.66119163735418    1.97627643904027   12.72920171543699
C         5.10462218361213    1.80532119859197   11.31070261561087
H         5.72171655966099    2.64824167552948   10.99050256918886
H         4.24846080702538    1.69311950005173   10.65304229983639
N         5.45605789926509    2.12657465968830   13.72438975485737
N         7.29756429378233    0.81194736688980   11.68148417660857
H         8.04961739451170    0.48323205910006   11.09628306264604
C         6.82812414888602    2.23893792195445   13.65006348630081
C         7.68382348717342    1.65043906586303   12.69039362002738
C         9.06484726427645    1.87100625650039   12.82178631802308
H         9.72209685428462    1.41931691963656   12.09092362606781
C         9.59287469769144    2.62957192311278   13.83669639226264
H        10.66025119384849    2.77529459350177   13.89780027861890
C         8.75194747786276    3.19890105662351   14.78876277481224
H         9.15665477611709    3.79013350325690   15.59413608634013
C         7.40051465502860    2.98960352998450   14.69187469467439
H         6.72469103760950    3.43268663968754   15.41248629929256

