73
CSD_code = AXUGAB | q = 0 | S = 0 | Stoichiometry = C36H30I2N2O2Zn | MND = 4
Zn        5.51309920213547    4.31505215558886   13.27934598550808
I         7.85600656551267    3.37859436033561   13.35336848903983
O         5.76610089987202    5.55296983538514   11.67829633307466
N         7.51778408016290    4.98775353154426    9.86335893435356
H         7.26260045872822    5.03723124562954   10.85618433350661
C         5.42977360493430    6.07974160872291    9.39649621867646
C         5.03036185037823    6.07073019711837   10.77842401526824
C         3.77469505509575    6.65587804075954   11.13030332421074
H         3.50455618098065    6.65095744405621   12.17664914043210
C         2.95436530781108    7.18230214108570   10.19515862344030
H         2.00319750263269    7.60799260214971   10.48278075789432
C         3.30604395089825    7.19632112678466    8.81678212992723
C         2.42935322577234    7.75253798054201    7.87308066905986
H         1.48875122340133    8.15700910596505    8.21825758288235
C         2.75418219768872    7.78389264190258    6.54121847264664
H         2.07607501212790    8.21148702014942    5.81850357182295
C         3.97556656573514    7.25587360148042    6.12665707535727
H         4.23948305290346    7.27773745875055    5.07943892984626
C         4.84904194080960    6.70620016882757    7.03485771981479
H         5.78059359525645    6.31208185633808    6.66025702411731
C         4.54660716408504    6.65288851133227    8.40475103586119
C         6.65922259907365    5.52099911365758    9.03330869049118
H         6.94551698405340    5.49695821025256    7.98846234969506
C         8.82598021889810    4.49249794209841    9.51855765268133
H         9.00593440366951    3.57832855896100   10.08970896817389
H         8.85393772425308    4.26757844152110    8.44843908227973
C         9.87341701798780    5.52647254530930    9.86772211525630
C        10.07799191880572    6.61531252053941    9.02993439592529
H         9.50912047195559    6.70603395975874    8.11488322291385
C        11.00992260480134    7.58348302829054    9.35770787577705
H        11.16568295935384    8.42487900011687    8.69868246485559
C        11.74065324017112    7.47216891828629   10.52883141752105
H        12.46875231857674    8.22781115619576   10.78395238215512
C        11.53494897494905    6.39198595028853   11.36993598165917
H        12.10032384952489    6.30138430711219   12.28494781559030
C        10.60261370289530    5.42199403486014   11.04370055296762
H        10.44050912122539    4.58366149591385   11.70442564375531
I         3.17283277499211    3.37136300198629   13.20632871565446
O         5.25576315898055    5.55740135480263   14.87677613150659
C         5.98940115248429    6.07486809640186   15.77858976460531
C         5.58749516152785    6.08209884162917   17.15980348688024
C         6.46863565886231    6.65434816370453   18.15385163221129
C         7.70965888456792    7.19891385908081   17.74473131108112
C         8.06360174800280    7.18715733311807   16.36691560771386
C         7.24520386086405    6.66147446144523   15.42964395898889
H         7.51716246446002    6.65814978342461   14.38376680728004
H         9.01496449092462    7.61387852798903   16.08149381686371
C         8.58459770870930    7.75388889119193   18.69078694610430
H         9.52562941954209    8.15925091254891   18.34782323155317
C         8.25756062679202    7.78293846366088   20.02215247163982
H         8.93429762470399    8.20964151036199   20.74667899548811
C         7.03560325511466    7.25399921176661   20.43383115707018
H         6.76989050903115    7.27418271921312   21.48063056049676
C         6.16381881162967    6.70551721344625   19.52329846782794
H         5.23175587659803    6.31054192300568   19.89572567622850
C         4.35764007795331    5.52242430922990   17.52017314976552
N         3.50078216299597    4.98993481909966   16.68791434413762
H         3.75787005724513    5.04063942448207   15.69563994307186
C         2.19191830664176    4.49425482080624   17.02944233755930
H         2.01322421994772    3.58060473227020   16.45706354010144
H         2.16164011530563    4.26837517938124   18.09928664311017
C         1.14534917944512    5.52863541465837   16.67888642637017
C         0.94072152757951    6.61792272040508   17.51607039788269
H         1.50872848474444    6.70849497740744   18.43168617584176
C         0.00982419280620    7.58663797230256   17.18705018903290
H        -0.14622184690656    8.42820007501797   17.84580950591134
C        -0.71991398364930    7.47536098883826   16.01531203979268
H        -1.44738551772716    8.23133733337333   15.75932872790800
C        -0.51419292433375    6.39471169186782   15.17482493789622
H        -1.07867391391771    6.30431267002408   14.25921702619369
C         0.41724887499382    5.42424854056148   15.50222470624905
H         0.57976448479835    4.58573029246309   14.84180978587961
H         4.06943656622937    5.49707795109170   18.56446040554415

