49
CSD_code = AXUSAO | q = 0 | S = 0 | Stoichiometry = C22H20N4NiO2 | MND = 4
C         7.62400154353237   20.56137894933677    4.46776387481943
C         8.86486797776863   21.19472664552913    4.48149740541929
H         8.95609909670926   22.18324094274200    4.05850351570690
C         9.96196750147792   20.54866616245524    5.02305181687170
H        10.92482110193474   21.03555041507454    5.05833544288584
C         9.80550051403846   19.24808395728364    5.47131055040043
H        10.62528872451667   18.65253977182181    5.84014264345290
C         8.54450323257052   18.67516216626793    5.42968264296167
C         8.34293129955715   17.20660968700382    5.71203309492884
C         6.54317936980876   15.57988791155412    5.41786650513134
C         7.23829429280186   14.38209230305150    5.46095271226990
H         8.31266332158087   14.39017958553475    5.55008313874112
C         6.53987459189279   13.18206744412745    5.40910870425396
C         7.29610512865255   11.88888369689191    5.46699455245851
H         8.36257548701011   12.07468627907719    5.56160245810237
H         7.12417592049473   11.30268885647288    4.56426844836321
H         6.97099539978079   11.28959160105879    6.31707989614038
C         6.45268079023384   21.20180606057346    3.79335005759411
H         5.57846506099057   20.55448044811976    3.87462049974668
H         6.68041369818026   21.34097500378696    2.73709245590164
H         6.23078724706047   22.17874706606397    4.21673202108829
N         7.45800680597966   19.34761986396858    4.99624277720895
N         7.06694562748903   16.87274707445285    5.45903536165553
Ni        5.84158344473445   18.23784947613228    5.35732227988354
O         9.26553368169138   16.48043854187246    6.05616494218692
C         4.05917503491944   20.56139887177262    6.24685459164188
C         2.81830995937590   21.19474878722806    6.23311982498662
H         2.72708881632214   22.18327634482689    6.65608528218837
C         1.72120198836734   20.54867741855296    5.69159664918320
H         0.75834719943773   21.03556035193134    5.65632056529339
C         1.87766191655987   19.24808603297568    5.24336247283108
H         1.05786640109277   18.65252956167697    4.87456606083693
C         3.13866135554523   18.67516810994001    5.28497654098296
C         3.34022591846932   17.20661139172675    5.00264392514865
C         5.13997759449864   15.57988804873947    5.29679917420482
C         4.44486290455369   14.38209253213847    5.25370612107695
H         3.37049389446612   14.39017597110981    5.16457611030720
C         5.14328283648767   13.18206623785797    5.30554050005674
C         4.38705407106559   11.88888149256894    5.24763054532306
H         3.32058321947351   12.07468567216458    5.15302340521379
H         4.55898066042620   11.30266536520331    6.15034448581011
H         4.71216552115098   11.28960965288767    4.39753096414816
C         5.23050449991658   21.20184041652673    6.92124043864849
H         6.10471117123007   20.55449922874741    6.83998080842738
H         5.00278800455488   21.34105552808471    7.97749633974526
H         5.45239977674672   22.17876290084624    6.49781648190523
N         4.22516414027327   19.34763196184770    5.71839003562530
N         4.61621450607874   16.87274864768700    5.25562982294914
O         2.41761774849973   16.48043956270466    4.65853105529216

