77
CSD_code = AXUSOB | q = 0 | S = 0 | Stoichiometry = C33H37Cl3NOPTi | MND = 6
Ti        9.53282515022412   25.85328047960063    2.73554341182355
P         7.07808235609997   25.39394838432147    3.52068170655958
O         9.91934967087669   24.46797358625012    3.61916260733092
N         8.70603593512940   24.39389140656199    1.23834534264496
Cl       11.35227295137106   25.86659088430731    1.45062510265562
Cl        8.41069490446474   27.29608175672297    1.44298261959792
Cl       10.10320400967323   27.35980763765605    4.21740845271868
C         6.39847646503334   24.91773340191930    1.88228173207949
C         5.05217279745784   25.01816712448592    1.54870311439598
C         4.61009328758829   24.64804660495332    0.29142145855157
C         5.50949152653963   24.18043767880922   -0.65224303585636
C         6.85305121532612   24.08821974143023   -0.33614526596455
H         7.56213716548267   23.75350833214280   -1.08123857302980
C         7.30443119296093   24.44865508424528    0.92804513530594
C         9.25394198912337   23.02672966208263    1.36328345205563
C         9.16989056203860   22.43681278661745    2.75106446639818
C         9.64336128666649   23.19634662510186    3.83504622138794
C         9.82719893831688   22.58766253333065    5.09294165690903
C         9.44524409379807   21.26366628562818    5.22633859292724
C         8.90752851417493   20.51137838448638    4.18477907139196
C         8.79992242204136   21.11581706226116    2.94035614501230
C        10.48766830300923   23.37711007239640    6.21633863113464
C         9.58287125545582   24.54516895797067    6.62948084199730
H        10.07716860399483   25.14199161079564    7.39304087015812
H         8.64833607736466   24.16329323174969    7.03456105185383
H         9.36316729581474   25.19586049874974    5.77989800467970
C        11.83912939094327   23.91941583124933    5.72316979506780
H        12.35803684743892   24.41531745408730    6.54052636141048
H        11.70502185336499   24.64428339030813    4.91909055159074
H        12.46314511861363   23.10539218868313    5.35832376782578
C        10.74830473834399   22.51684672359096    7.45738623121197
H        11.39975863032003   21.67801006214076    7.22327825840632
H         9.81844078064948   22.14396236405421    7.88108406830534
H        11.24020874075678   23.12284516225008    8.21494452007436
C         8.56808892817289   19.04560310370769    4.41227374874570
C         9.88664223962334   18.26270005808014    4.49823595656987
H         9.68756817632002   17.20558999180768    4.66049793155726
H        10.49955350568605   18.62904880110104    5.31759516436517
H        10.45253150892912   18.37206585047578    3.57579548395733
C         7.72612640427300   18.46301768550264    3.27265370161471
H         6.82927318167305   19.05657467250258    3.11157027097233
H         7.42380286082528   17.44843169216530    3.52317555919364
H         8.29240021183905   18.41741591418458    2.34600408975201
C         7.78516316342860   18.86583907339117    5.71990616977567
H         6.91252481879953   19.51274501624965    5.73014119527859
H         8.39410984714662   19.09944717245573    6.58798240767615
H         7.45609972285140   17.83319301236553    5.81535873479720
C         5.98703050932616   26.75320994381394    4.06924760615760
C         4.67034786651834   26.53821788404372    4.47537662382782
H         4.26484238440806   25.53596899969181    4.50271494043838
C         3.88617866820679   27.60462410726823    4.87468447522830
C         4.40730916705801   28.88866462642285    4.88713497815678
H         3.78947826354840   29.71787081643992    5.19839945243168
C         5.72401331430655   29.10284751107041    4.51635335797128
C         6.51464688222884   28.04064698633008    4.11302747158902
H         7.54874692650493   28.20812600795300    3.83814499598138
C         6.41581983567986   24.01933866339879    4.53033580434648
C         6.08426823902587   22.78396590307482    3.98622334993527
H         6.18529828881683   22.61496824073817    2.92358725754740
C         5.60520578205435   21.77414917397457    4.80075566644208
C         5.47387788159073   21.97767573117079    6.16388040730656
C         5.81889402180255   23.20164977836546    6.71457799749704
C         6.28658364701916   24.21751322446231    5.90335460859494
H         6.53947404661715   25.18258051046653    6.32293596904690
H         4.35046558134936   25.40935646397298    2.26875164739894
H         3.56364347995935   24.73822412861809    0.04265524732423
H         5.16852652174615   23.90442038245070   -1.63848678296542
H         8.76177703648110   22.34956989738599    0.65051517219192
H        10.32170489353885   23.08977809210764    1.10496293276943
H         9.58450791767405   20.78376024869976    6.17851929068872
H         8.44773839404025   20.56073715160870    2.08532125205310
H         2.86490754042704   27.43183798355555    5.18209540333466
H         6.13949414262811   30.09875456075164    4.54463580178540
H         5.32442051271375   20.82649305966235    4.36494093989602
H         5.09803508701374   21.18781417233646    6.79744826948828
H         5.71637661949405   23.36451211420490    7.77752722423874
H         9.20703790832146   24.85039860104388    0.46688185625810

