40
CSD_code = AXUTAO | q = 0 | S = 0 | Stoichiometry = C17H20N2Pt | MND = 4
Pt        1.37981974394383    2.17889293771021    4.19442924713187
N         2.00844820134042    2.14367447122231    6.34942676573559
N         0.32899177355550    0.56163479528581    4.85882449448643
C         3.24972742979103    1.37612401231006    6.35518940996532
H         4.04030761699738    1.97482248932992    5.90348992799375
H         3.13655170964304    0.46304570295539    5.76947973547617
H         3.55150052225737    1.10815094055669    7.37880626406200
C         2.21888181481722    3.42456001998353    7.01359188234084
H         1.30831216756900    4.02123633494450    6.96621971682788
H         3.00789864231938    3.97311852908969    6.50098797710172
H         2.50249028548971    3.28989107822414    8.06744957694858
C         0.92509503836418    1.41150822428072    7.02140930408053
H         0.07692684593449    2.09700074989095    7.11662908311086
H         1.23518625122299    1.10477872554234    8.03415063114883
C         0.45008355718455    0.17839499160045    6.23050295537857
H         1.18961144392295   -0.62929835011246    6.31237032931869
H        -0.49499889418354   -0.19259006638924    6.65533000163338
C        -0.55128966152059    0.14917864480289    4.02953729380497
H        -1.30430911097886   -0.59749507835019    4.29507214914798
C        -0.50518678124533    0.71713000490898    2.69993210880423
C        -1.33133333112094    0.26707174964533    1.67077815798442
H        -2.03914840695656   -0.52977399845804    1.85823329699944
C        -1.23856842114450    0.83899689755728    0.41777756966769
H        -1.87610489831644    0.49522818141029   -0.38404564325565
C        -0.32285200483443    1.85709334075735    0.19376129207138
H        -0.25334347027681    2.30205809690094   -0.78903423550127
C         0.49828830997557    2.31540852861384    1.21476198808791
H         1.19638415828091    3.11551135937476    1.01308742296798
C         0.43300066589670    1.76698152921493    2.49059149944547
C         2.37404806424809    3.80434090835887    3.61875062153820
C         3.74556733254828    3.71275068387577    3.35243790807557
H         4.22066248772402    2.73406152790332    3.32408125407059
C         4.51781696664083    4.83535407236205    3.10560833732708
H         5.57608064383408    4.73233073944809    2.90233125398559
C         3.93840035802425    6.09274981037677    3.11891096414111
H         4.53913518678901    6.97163742815566    2.92928885760994
C         2.58227559304322    6.21355780884159    3.36971379087498
H         2.12173572507139    7.19291024644754    3.37218186719962
C         1.81485165591720    5.08641667667090    3.61228951085251
H         0.75025478823764    5.20425525475320    3.78986543136041

