135
CSD_code = AXUWUN | q = 0 | S = 0 | Stoichiometry = C42H85BO2P4W | MND = 6
W         7.29694136355664    9.71302971193955   11.68202846578573
P         8.68497542924975   10.20001919051270   13.72620309078048
P         6.35340653826560   11.96198500499413   12.28148429110745
P         5.72051748549831    9.17655814893357    9.82033261224546
P         7.88291860056729    7.32187902123278   11.30330620631231
O         5.82830475081635    8.83859325771972   13.22491072999349
O         5.54318690809015    9.47470681243239   15.31954424982094
C         7.91555680665508   11.67913131377532   14.52903940352737
H         7.02390031574227   11.30627015205915   15.04328637024043
H         8.58948001613135   12.11037099566706   15.27336257442790
C         7.52658529616377   12.71967886783323   13.49233945783753
H         8.40504670187611   13.03915587017500   12.92308680772203
H         7.08592634509734   13.59602754176186   13.97155361496696
C         5.92080497908148    7.38504289650272    9.36369424518905
H         5.26601447000196    6.82585686499469   10.03681466139663
H         5.59245951693021    7.20307015882004    8.33874940279390
C         7.36104027823055    6.95212814642023    9.56426040618591
H         8.01211744103017    7.54765571324424    8.92149408442922
H         7.50123110826731    5.89484649786663    9.32317768567891
C         8.58534633385027   10.32045642449739   10.41855708834562
C         9.54375205125095   10.75610940833800    9.49003623980141
C         9.72113171947351   10.11299597858361    8.24470883144933
H         9.10089913393257    9.26145385067234    8.00412020282865
C        10.66191994845172   10.54733084913557    7.33868774710448
H        10.77076537679296   10.03123160405215    6.39473286601384
C        11.46869489102943   11.63839492135433    7.62581698502370
H        12.20625532452970   11.97556127181530    6.91313795336957
C        11.31343968009188   12.29245675634908    8.83971099708025
H        11.93483082692467   13.14635999344417    9.07240673927434
C        10.37483823496769   11.86676147252648    9.75118938224241
H        10.25857422610429   12.38931357621327   10.68855548139130
C         8.85440404906737    9.10556510973467   15.24750239588661
H         7.87324240350618    8.61999470821286   15.31084011867330
C         9.91251328155362    8.02678598592406   15.03417616627411
H        10.91141076958242    8.42836988033915   15.18841351936408
H         9.85041047554139    7.62441728453126   14.02508062793616
H         9.76686344820228    7.21052073888156   15.74093741765546
C         9.07135766188550    9.79937387304355   16.59077402221691
H         9.20590541162539    9.03119886223077   17.35182386365701
H         8.20397371850351   10.38638068570616   16.87626543513602
H         9.95328645199538   10.43197693945919   16.59692530379578
C        10.38500383275131   10.88399714733663   13.32791365258861
H        10.11955104957545   11.71809882045777   12.66607449661718
C        11.23952112490710   11.43400132826036   14.46463274398934
H        11.59867678142138   10.63791425246305   15.11127223016150
H        10.70795282618977   12.16670346181053   15.06671930765065
H        12.11268893582580   11.92874078158530   14.03900008391736
C        11.18590296066296    9.89180499835925   12.49357559415706
H        11.96682008481251   10.40642113633447   11.93594557639847
H        10.51734053387407    9.40767961636988   11.78612833725234
H        11.65799688292603    9.13726760412775   13.11612405337308
C         6.15840749882744   13.37747419732617   11.06124279745982
H         5.25295700122876   13.13178028667238   10.49461664266266
C         7.33491742005273   13.38024862607518   10.09405637043442
H         7.11343265510056   13.99082470047358    9.22054597091135
H         7.55281475755360   12.36403891908869    9.77269659949102
H         8.22207753816027   13.78819331744940   10.57178127013975
C         5.97700611347354   14.77179148317743   11.65468083804713
H         6.85107795995703   15.07672019359340   12.22399668442508
H         5.10047907271265   14.83677653578036   12.29186562540160
H         5.84748845502717   15.48526763792094   10.84090791999521
C         4.73388740879104   11.98922747853999   13.24415524855369
H         4.67720932591538   10.98201433974617   13.66663033747008
C         3.54281508760254   12.16337113608321   12.30363133577132
H         2.62873594648319   11.83922338558094   12.79949388310897
H         3.67163924711963   11.56638594834980   11.40362577795611
H         3.41595681375096   13.20512007739368   12.01522431608792
C         4.61620908364480   12.95335201414613   14.42276527379219
H         4.74254931316997   13.99292776520973   14.13130558098043
H         5.32502036664807   12.71461693364549   15.20985610582586
H         3.61774290665047   12.84763218591718   14.84585844917934
C         3.83931360545913    9.21049321482955    9.88867693558166
H         3.57794939792078   10.27417689602038    9.84446009606772
C         3.10362625361809    8.50108684368182    8.75394497764435
H         3.25360664252161    7.42526684044598    8.79297253883636
H         3.41482541259508    8.86152875561560    7.77803740115023
H         2.03472787764780    8.68901485171670    8.85411626332622
C         3.37074876834865    8.66402167910891   11.23423178137447
H         2.32027455980948    8.90040709963369   11.39924356260601
H         3.95208194893271    9.09738512859307   12.04392925506627
H         3.47927777007610    7.58119918086875   11.27625862783474
C         6.11977306912329   10.07784535688999    8.21002530027893
H         7.12352977286996   10.46401499487183    8.41541679031553
C         6.20033063604114    9.24860749985974    6.93095278144784
H         5.24315067826656    8.80980822902142    6.65956638892177
H         6.93910890001916    8.45566724403816    7.00983925160491
H         6.50656876744478    9.90221055469191    6.11481282384140
C         5.20682262360647   11.28255254699003    7.99785776575088
H         5.64734739328331   11.95173302757647    7.26064203288813
H         5.09012197087491   11.83436604922718    8.92632166267436
H         4.22484428766856   10.98584651193025    7.63671107616684
C         6.80462511768793    6.11265365047059   12.25723033306814
H         5.86392754280098    6.67634321975504   12.33068854106946
C         7.33849973934967    5.94639296244778   13.67685587720527
H         6.61314812542481    5.41863358814622   14.29544894486306
H         7.51914781197975    6.92081294320549   14.12182555428691
H         8.26888142405613    5.38294697490660   13.69416554009560
C         6.47357850892987    4.75135497712450   11.64671113668886
H         7.33945935142094    4.09971546157351   11.60066537623423
H         6.04951401612475    4.83311056362184   10.64950869618525
H         5.73038941630634    4.26498702959609   12.27922619321266
C         9.62300791240600    6.59687485033262   11.26048374199989
H        10.07691516005709    6.91810099600155   12.20484051208024
C         9.76169268000048    5.08037869262896   11.15922854796497
H         9.24041113538151    4.69094780725167   10.28815465600910
H         9.39857795017283    4.57443680126599   12.04871017079201
H        10.81772739425362    4.83353914794155   11.04989360511518
C        10.40576346159023    7.24655983226052   10.12042565977968
H        11.47547844498895    7.17706087545267   10.30888230566750
H        10.14175719713956    8.29586457316771   10.01964845843774
H        10.19914692495933    6.74354341129548    9.17854031897796
C         5.38005488637351    8.67808018192953   14.36601444704988
H         4.77776843856246    7.76181623002450   14.54408902915891
B         4.89638792132095    9.18812551120725   16.76579657198038
C         5.10762316173911   10.62026057424787   17.53203258791850
H         6.13950349291727   10.96593418846943   17.40371266451392
H         4.47603322712274   11.38839775296532   17.07720673377987
C         4.80974299239916   10.60212354856252   19.02933093526014
H         3.79190756156926   10.26405405609699   19.21017720513619
H         4.91990736191750   11.59576589503381   19.46752476787056
H         5.48973511489271    9.92916946097236   19.54603736366253
C         5.79595237245691    7.95446992763191   17.38461821092978
H         6.10603496078116    7.28150926730893   16.57407154389354
H         6.72024452132811    8.34407761987940   17.82038471545305
C         5.10583800871793    7.09715545785738   18.44461780103912
H         4.77763315009995    7.70907660736144   19.27980296250159
H         5.78090724652684    6.32963453138846   18.82823691389542
H         4.23199721104584    6.59975579874814   18.03049751828511
C         3.31999660577001    8.78201209172070   16.55790107113149
H         3.21847592801007    7.75986499978205   16.17670274509384
H         2.83749704156221    8.78064857227990   17.53734658029522
C         2.51129434243465    9.70006579801062   15.64094815962419
H         2.53896279404360   10.72471778678480   16.00507981248006
H         1.46661208123646    9.38801810154881   15.58775133611890
H         2.90990117072826    9.68934252489224   14.62527599066135

