79
CSD_code = AXUXEW | q = 0 | S = 0 | Stoichiometry = C24H46As2CrO6 | MND = 6
As       10.35796963800514    4.79814776781958    3.98644462082082
As        6.51732869310604    2.91318910573276    0.74403915486093
Cr        9.62745140365241    4.71691726124328    0.54786859459285
O        11.17190668933204    4.58854438930796    1.35497154263379
O         8.69112668165042    5.51579776598680    1.88768168980015
O         8.05723909487174    4.87896017583340   -0.55967366254950
O         9.27365261128689    3.01123035882490    1.39223920624414
O        10.58712064323647    3.88022310376193   -1.25170261211536
O        10.28107028448800    6.58468328911247   -0.50556685125387
C        11.54106791147889    4.42568776832751    2.55512406833058
C         8.78879918058905    5.36562328455135    3.15552116658946
C        12.97511498280390    3.94580605783017    2.80468651506900
C        13.41556420313774    4.21244320107532    4.24190329040619
H        13.34471628503992    5.27555234741636    4.47307401149887
H        14.44418290581888    3.88783319198579    4.38630482442030
H        12.77405508496552    3.67100073211295    4.93987883378181
C        13.04126313210416    2.43777405827143    2.53404778820948
H        14.06850689232511    2.07972121452397    2.59453635893848
H        12.64995751887800    2.20966316640778    1.54456792217611
H        12.44164646884444    1.90650274340606    3.27039107972689
C        13.91111401292618    4.68582828987222    1.84187477044776
H        13.87754512111104    5.75723076520816    2.03501735927641
H        13.60796330252337    4.51560209990635    0.80939041941017
H        14.93716174377314    4.34148538206030    1.96118822272348
C         7.62806526626391    5.93941093975937    3.97909813570054
C         7.69096276784997    5.49411521690199    5.43750113930055
H         6.81209248066094    5.84496958389919    5.97405774460921
H         8.58424882094099    5.89550540167987    5.91998480941145
H         7.73125860871199    4.40664173314333    5.50471534219030
C         6.29897268571082    5.50380609556673    3.35918907888666
H         5.46584412771017    6.01011022173443    3.84319168657148
H         6.16277416714462    4.42656467868435    3.46276485702629
H         6.28819807835549    5.74918144826548    2.29765896717665
C         7.74188778587513    7.46835475058366    3.90850426278685
H         6.94289523813669    7.93954035508044    4.47877027777764
H         7.67216486628268    7.80119245017597    2.87397926583095
H         8.70086189381586    7.78879374527458    4.31711317199425
C         6.93815411759931    4.26321231610683   -0.45168163520866
C         8.16394037492148    2.45738571752088    1.58952118467987
C         5.82190672302942    4.81178134056292   -1.35984589169709
C         6.40005017845625    5.08371135612749   -2.75277478671505
H         7.22632464052552    5.78958022283656   -2.69122395678657
H         5.63845469947803    5.50290727243353   -3.40827382225831
H         6.76916315732061    4.15826956194121   -3.19316469011268
C         4.64157931606097    3.85231957288272   -1.49097906275486
H         3.90485231400345    4.26008338819956   -2.18078108401148
H         4.16514791629809    3.69836313841562   -0.52082510456773
H         4.97446877360555    2.88326616117821   -1.86439782030567
C         5.33235481007144    6.12465400172412   -0.73720723444658
H         6.16813282516612    6.80243370622901   -0.57086579045346
H         4.85702986637992    5.92053486613994    0.22187755958208
H         4.61038592328495    6.61558027239891   -1.38854762928652
C         8.14636819076144    1.23129859535689    2.51939970892588
C         7.18952863354671    1.51102245856674    3.68007788959835
H         7.14629200835222    0.65426413900725    4.35001388483816
H         6.18528859206344    1.71093111168079    3.29877704812683
H         7.53723130004821    2.37501297458639    4.24560430466815
C         9.54543772793862    0.96894975782052    3.07606780837450
H         9.52905050430580    0.11428765150698    3.74962636646502
H         9.89874568927210    1.84284877260187    3.62670624354429
H        10.24583981493569    0.76419801541603    2.26898713658386
C         7.66285638256355    0.00410416393586    1.73997673950882
H         8.29242200797233   -0.16813378728065    0.86793904153081
H         6.63521576994224    0.15360888505033    1.40305639069544
H         7.70020746711917   -0.88156521618417    2.37203765779380
C        11.29930696096202    2.66458612690110   -1.20329877279207
H        10.67032086088684    1.95771709675388   -0.66486274127919
H        12.24735228711786    2.78618682783767   -0.66757548147052
H        11.49925276202644    2.29388162050946   -2.21642293153537
C        11.32163271960906    4.92531886042917   -1.85273660024717
H        11.58207207354527    4.65364382321033   -2.88723003214267
H        12.24297224235721    5.11266799315430   -1.28034627094696
C        10.46120663649414    6.17974720757450   -1.84477444251000
H        10.95495421009983    6.98009467891877   -2.41695146416728
H         9.48820133063126    5.94747926518665   -2.29893357352878
C         9.39809489255893    7.67814591450757   -0.38115069945725
H         9.33064678047246    7.89863234017353    0.68195988898879
H         8.40562063562268    7.41863936411093   -0.75978045764537
H         9.78518460919237    8.54971432266083   -0.92243393085399

