88
CSD_code = AXUXOG | q = 0 | S = 0 | Stoichiometry = C45H35BrMoO4P2 | MND = 7
Mo        4.57812706742487   13.86993350769198    0.78317538458001
Br        3.71873887275018   12.16155694720444    2.44193249276709
P         3.61855423983969   15.42084843637882   -0.74954479593751
P         6.70368626047958   12.77701763676277    1.04023670776129
O         4.29451144337979   15.24316925565277    2.51057971087884
O         2.55978258412424   14.73609871859789    1.30635733535120
O         4.28679117644633   11.96497896700202   -1.62848977780882
O         6.91387373940315   15.74885478571723    0.01683266952270
C         3.07333987099423   15.33823714870284    2.29879816926734
C         2.21060796923007   16.18749630270138    3.15141003113612
C         2.78202511559966   16.95079960589686    4.16364019343437
H         3.84535555582408   16.87519586733847    4.33741517050734
C         1.98713501342567   17.78940971813901    4.92042560520401
H         2.42639451975805   18.38573347502416    5.70672979642609
C         0.62577418831059   17.86582933031966    4.67093526057546
H         0.00646795689628   18.52306322076555    5.26398477076606
C         0.05517467276438   17.09969543562693    3.66683440842246
H        -1.00702508949336   17.15839874249848    3.48009010319349
C         0.84413487852661   16.26045382894553    2.90413225776679
H         0.41980487849262   15.65474028011875    2.11659657697013
C         4.43740035154987   12.66951724607842   -0.72594065096063
C         6.01974587683267   15.05095748736334    0.24714059287297
C         3.14066719190001   17.01898665364910   -0.00760654167346
C         4.08110344736637   17.69116031349958    0.77080774532988
H         5.09060252971736   17.30932495560033    0.85548735277782
C         3.72758385065918   18.83916020113922    1.45663716470934
H         4.46372201699725   19.35058449743813    2.05929210284323
C         2.43145711690563   19.32138411715158    1.38343753884454
H         2.15294098603183   20.20958019448476    1.93048370853971
C         1.49103804076863   18.65299674452635    0.61881796585593
H         0.47624867521601   19.01925692328877    0.56742215891581
C         1.83867387112613   17.50478618711297   -0.07072175259140
H         1.09192610943292   16.97664821785659   -0.64635153820955
C         2.10993076914244   14.84489929393069   -1.58178302497794
C         1.44574273479871   13.69678480585217   -1.17026717416384
H         1.80147182448876   13.13982394936801   -0.31141652680961
C         0.31930376387645   13.26895971827692   -1.85234474966743
H        -0.19383425134967   12.37548420337328   -1.52916650585433
C        -0.14543432831754   13.97963754857510   -2.94612468711410
H        -1.02224775589174   13.64126065609729   -3.47822784104479
C         0.51571909689080   15.12552539620891   -3.36124875470044
H         0.15530908029811   15.68114850015099   -4.21478443922071
C         1.64085968919547   15.55731507751176   -2.68537789468694
H         2.16464722537118   16.44853443762381   -3.00799592214674
C         4.61571135452616   15.90333663692367   -2.19494434297286
C         5.28039134584874   17.11963618933719   -2.29654082242938
H         5.14611491314282   17.87634145046042   -1.53641369281678
C         6.10866541393629   17.36982087720693   -3.37721771488527
H         6.62247196565885   18.31733818037614   -3.44807684727032
C         6.28046258035872   16.41290467124950   -4.36232938950935
H         6.92991752201818   16.61191636652623   -5.20199684008266
C         5.61299117513166   15.20123688793092   -4.27215215943396
H         5.73571302013426   14.45401006022012   -5.04265424170288
C         4.78818640011195   14.94608916152127   -3.19375966666364
H         4.25999062366329   14.00431890121203   -3.12445859604840
C         7.82931165129352   12.59243612121389   -0.37643519192443
C         7.53956717783511   13.11361571178653   -1.63058209841229
H         6.61765388535109   13.65792582978331   -1.79272451960824
C         8.43060598592053   12.93861975033667   -2.67592247829898
H         8.19899544589429   13.35185968164681   -3.64643459203587
C         9.60963415347338   12.24082309089806   -2.47789127741138
H        10.30270721273053   12.10628140923908   -3.29505213231949
C         9.90008979978641   11.71097052287784   -1.22972213866592
H        10.81781795164122   11.16313370031782   -1.07375713112027
C         9.01470220866857   11.88272289599781   -0.18350826897070
H         9.23382737340750   11.46985531876655    0.79286716635271
C         7.68415779434961   13.69275707578863    2.26388283105579
C         8.90140259773360   14.30690399320939    1.99313527377482
H         9.36692371876042   14.18635622331385    1.02482452812260
C         9.51047105965316   15.08289627416320    2.96498255509950
H        10.45471124092482   15.56213262582679    2.75055576728082
C         8.91189813669841   15.25270379196786    4.20171524503970
H         9.39179708697150   15.86113126423585    4.95436386579388
C         7.69200535836899   14.65072030202235    4.47183445764812
H         7.21973802776419   14.78821616194922    5.43354771329666
C         7.07411336075140   13.88181372563217    3.50499433234015
H         6.11394719271463   13.42044739199851    3.70976021177567
C         6.73823248060094   11.06261494866776    1.65607619212146
C         7.29727498264932   10.67984706207248    2.86835473506800
H         7.75209619682608   11.41462313379418    3.51797334740724
C         7.26502257424605    9.34816012400081    3.24623342347579
H         7.69462045787215    9.05267665543567    4.19222926034914
C         6.68177354319084    8.40123501477828    2.42301971938079
H         6.65303868633417    7.36579413006745    2.72793605475494
C         6.12984660314163    8.78145768901027    1.20940650093728
H         5.67238568817208    8.04418131401833    0.56683111014658
C         6.15739425411931   10.10723628552366    0.82565968550557
H         5.72268697035685   10.41627285948445   -0.11655023183339

