90
CSD_code = AXUXIA | q = 0 | S = 0 | Stoichiometry = C43H39BrMoO4P2 | MND = 7
Mo        4.15565046071476    2.87483637036843    9.75368257055498
Br        4.92667780884525    1.77564095875915   11.92039135568775
P         3.04782512943347    4.46223102908947   11.18088738120850
P         3.96534445954063    2.20581718033871    7.48081199295646
O         6.32250385415974    3.40170524578894    9.66697964476856
O         5.72649278976403    1.42886142151316    8.99389682316569
O         3.63087113795433    5.53257665445857    8.26343282956407
O         1.39171497938081    1.50500661076867    9.87371643542004
C         6.61681101361043    2.22444199192322    9.40902987924826
C         8.04129716651265    1.70970563626230    9.59688836312869
C         7.99938766788565    0.21167310520499    9.89629078376831
H         7.43884310806064    0.02717425827408   10.81127161787662
H         9.00984088129315   -0.17170836487550   10.02039789205967
H         7.51484299367977   -0.32395942955730    9.08199374659265
C         8.79310647938535    1.97348466318072    8.28804857509625
H         8.32124854142112    1.44256792068252    7.46305330196408
H         9.82242180011357    1.63203358279597    8.38010083364709
H         8.79636139045266    3.03721263127157    8.05743372937023
C         8.69047191808665    2.47504891182631   10.74985862128160
H         8.66484521865730    3.54483463690361   10.55232447474033
H         9.72496851665493    2.16130608321013   10.87112085981502
H         8.15425693393632    2.28073760503532   11.67724190250691
C         3.80211905438770    4.50744885031958    8.77201144475568
C         2.40882201644562    2.05107744913981    9.84036262700411
C         4.07893452229245    5.94946823888421   11.34749244183266
C         3.66635786900512    7.23663052227712   11.02434568482085
H         2.64983184432874    7.41740727967408   10.70437967390938
C         4.56647345461637    8.28614775479932   11.10092333739736
H         4.24407782866861    9.28482775259290   10.84428197791722
C         5.87388846345065    8.05986084595198   11.49589667369400
H         6.57063684216572    8.88336786186535   11.55248423581341
C         6.29283310851916    6.77518556888828   11.80763749002492
H         7.31490469433522    6.59512508551601   12.10712192767597
C         5.40322480473151    5.72173720518333   11.72439419095300
H         5.73440017018669    4.71327418832282   11.94997174835201
C         2.70248626369874    3.98875796142855   12.90625505673204
C         3.36562120507678    4.51550260001397   14.00693405457048
H         4.12711774437171    5.27166791227944   13.87653491382780
C         3.05030702412993    4.06307468774715   15.27687883390104
H         3.57094250696313    4.46962050610771   16.13140767185031
C         2.08083500706527    3.09156614665903   15.45277595767582
H         1.84544414998904    2.73773771778889   16.44539619547100
C         1.41530640099852    2.56797088710248   14.35512651124323
H         0.66044121002293    1.80778283253745   14.49004907106002
C         1.72429658558873    3.01298476582590   13.08538938754414
H         1.21456506491910    2.60571429266978   12.22120306733994
C         1.41093761688980    5.11362102455674   10.72960206873459
C         0.79859573313618    4.81560278448668    9.51950487859874
H         1.29627889644283    4.17650650832700    8.80145338495066
C        -0.45267176656813    5.33270159230210    9.22947802108540
H        -0.91840288082142    5.09607034936895    8.28427394175120
C        -1.10020029870946    6.14575352150138   10.14358897838687
H        -2.07661852017168    6.54661322346512    9.91533597541233
C        -0.49589995689173    6.44311629015810   11.35575954319830
H        -0.99995076921824    7.07525260782438   12.07201973365958
C         0.75208268495426    5.92938348228813   11.65007406290941
H         1.22705247201670    6.15484032686358   12.59637207922646
C         2.65115991027305    2.99482472366075    6.49752462081582
C         2.89472489093773    4.06301668803147    5.64139974844605
H         3.90906383859899    4.38840661679860    5.45693488842398
C         1.84177166085271    4.70859228708987    5.01696081221406
H         2.04103915167781    5.53813165417477    4.35453827585031
C         0.53924098905291    4.29668527750634    5.24025681168349
H        -0.27971584403869    4.80497039517396    4.75293431684169
C         0.28898101353540    3.22803990123453    6.08687114270741
H        -0.72473734685372    2.89701366485519    6.25988062974903
C         1.33699350606832    2.58300369922021    6.71526293011138
H         1.14162924199558    1.74691630314041    7.37311664938080
C         3.55333292374019    0.45229690604254    7.23868891815430
C         3.63612193211559   -0.46104548722864    8.28203023456516
H         3.98129770336841   -0.14353610219846    9.25865947297253
C         3.28615358340945   -1.78427238546710    8.07340212393368
H         3.35295897741491   -2.48929827935121    8.88857394108009
C         2.84768395463811   -2.20171690096945    6.82818884662095
H         2.57199702421852   -3.23377060849583    6.66921590347413
C         2.75781714108045   -1.29324150506937    5.78481305041799
H         2.41264374956851   -1.61515164892987    4.81297101641084
C         3.10563793744805    0.02883481592722    5.98685083612047
H         3.02655551946723    0.74281717905299    5.17650754316609
C         5.44827865543466    2.47299405412856    6.45454846188266
C         5.97657690256116    1.48865079627752    5.62607765233801
H         5.51204134217646    0.51441269127362    5.57568650713070
C         7.10918122145180    1.74996490072036    4.87400058451430
H         7.51330153401368    0.97952997948653    4.23334503458165
C         7.72628034103819    2.98761742087157    4.94395111190437
H         8.60882725645756    3.18708527830343    4.35456301026976
C         7.21836054416548    3.96316973613428    5.78624079239785
H         7.70463567463240    4.92528556841525    5.85800216956473
C         6.08972464753307    3.70641394114118    6.54368354535114
H         5.71448512533929    4.46572911111396    7.21804795925047

