51
CSD_code = AYABEJ | q = 0 | S = 0 | Stoichiometry = C17H31MnP2 | MND = 8
Mn       -0.96215550209784    4.05307427009350    4.58030212996462
P        -1.78684118745437    4.70077210316462    2.65405113329596
P        -1.08502100334549    6.18094206595402    5.12957581663385
C        -1.34185707761238    6.48764263630328    2.41383784074953
H        -0.25656429796275    6.48343951140323    2.25950516650679
H        -1.83065170387653    6.92224397987351    1.53908003519288
C        -1.67556125749986    7.22977298908008    3.69969896948572
H        -2.75925064326297    7.34502848718530    3.79354434166596
H        -1.20856590100430    8.21754047210829    3.72786963129354
C        -3.63298098215348    4.71043541822434    2.47037263448725
H        -3.94534691558180    3.66497204551984    2.55071487545405
H        -4.00669762964134    5.22349348552219    3.36332638626858
C        -4.23291121943481    5.33131666842083    1.21607551733074
H        -5.31978101377436    5.27843895517136    1.26881092125755
H        -3.91509174235553    4.80026674025044    0.32264431309031
H        -3.95257671054506    6.37680556819006    1.11724019475322
C        -1.20529482872106    4.04038806445693    1.03154633517628
H        -1.66416862171962    4.59815026369136    0.21096061177656
H        -0.12723403222120    4.22815447927720    1.02550130947015
C        -1.47029406489579    2.54632439320749    0.91518748836953
H        -1.01382084786384    2.13812354041423    0.01522907655776
H        -2.53859086645521    2.33917593808964    0.88105817454412
H        -1.04338061409174    2.04126072488925    1.78078040179121
C         0.47134727211546    7.08685892041678    5.55188629848213
H         1.09430605689592    7.00189673918914    4.65533487034872
H         0.26562733063540    8.14196708442212    5.74643756712160
C         1.16668114676243    6.41740946099384    6.72765352437754
H         2.16607572839151    6.82152827587020    6.87517480120897
H         1.24402163656857    5.34862492120242    6.52093355125803
H         0.60047558178509    6.55635774540464    7.64670686584151
C        -2.24896714426396    6.73494295061133    6.46043614315618
H        -3.22612289551777    6.33146605121287    6.17362958875719
H        -1.94289568115412    6.22090172930508    7.37590433203843
C        -2.35731293494767    8.23216720035307    6.71860022492364
H        -3.15049164498061    8.42100121671815    7.44104474916967
H        -2.59245468164822    8.77474456674773    5.80654747115985
H        -1.43176993808974    8.62703394361976    7.12866046770055
C        -1.47924133373077    3.36201987758818    6.54379947604724
H        -1.47132369745216    3.86324630958052    7.50492655551644
C        -2.59368593364737    3.24036130213181    5.68397272167802
H        -3.58721157076037    3.62472887534292    5.88005146746764
C        -2.25361155383428    2.32871090739811    4.66771724912142
H        -2.93404382410448    1.91264477804878    3.93358647633843
C        -0.92479104698097    1.89954124459190    4.88183003210602
H        -0.42046167859152    1.10621690038633    4.34419583178089
C        -0.44826410017459    2.53424465083741    6.04971180414887
H         0.48508158151831    2.31483478066489    6.55300578405996
C         0.69871419583796    4.20449200138512    3.93556049316985
C         1.93406284695512    4.17616003943994    3.51601033831714
H         2.75313062219533    4.58353498799310    4.09379942725971
H         2.21736432379198    3.73009973803587    2.57146858231883

