42
CSD_code = AYACUY | q = 0 | S = 0 | Stoichiometry = C16H16N8NiS | MND = 4
Ni        0.83962834549215    4.79380248622761    8.95239504734630
S         2.18190987850721    5.78828562254536    7.53319984239570
N         2.92423354259251    3.47188827076800   13.34431604182947
N        -0.12777704513583    3.89482414765769   10.43554795711218
N         2.16699501477820    4.96734112822182   10.21045038065382
N         3.33335263434900    5.53245791557216    9.93822243398357
N         4.59727652106672    6.52853368237822    8.31286544846505
N        -0.50638874826743    4.59528920125800    7.78800268760192
N        -0.78546881747799    4.82268588141808    6.66802233804904
N        -1.20519956463115    4.96834698470020    5.62667571826627
C         3.80615320223399    3.44444950175367   14.32275219433308
C         4.74664400452223    4.44071530505375   14.53674757073181
C         4.73543772203014    5.53205798375628   13.68143093029364
C         3.81638454407606    5.57182734562259   12.64945119305992
C         2.92330584460804    4.50554147787341   12.49974838160772
C         1.93995468994435    4.46473329362999   11.41192526950734
C         0.63334897642768    3.84897612850889   11.55486359942994
C         0.14235321779283    3.27393650973112   12.72933781035542
C        -1.12939839166659    2.73747219138519   12.73948251935603
C        -1.89379840759577    2.78689389906724   11.58143401890895
C        -1.34903447978093    3.37724436567760   10.45381552049452
C         3.46073320780205    5.95392773164692    8.69232173356095
C         4.85063738081989    6.99342024055204    6.96621679931092
C         6.21139824239647    7.67866027064939    7.06656062418468
C         6.89441762762446    6.92273788549208    8.20648173170821
C         5.74538381616020    6.68559214966549    9.18163955747840
H         3.75366047236519    2.57508662235707   14.96625826956669
H         5.45488743428591    4.36808563823395   15.34698908594705
H         5.43445604157879    6.34482156889293   13.81855701034132
H         3.77756446398365    6.41167627714541   11.97691960846809
H         0.77508579773563    3.24384405313182   13.60017623677535
H        -1.52253803304146    2.28668469934972   13.63840967984089
H        -2.89062277625575    2.37808042857441   11.54966622086083
H        -1.90827079759854    3.44042263362704    9.52950403122300
H         4.05209749690663    7.66349043772732    6.63790214393501
H         4.87422927858006    6.13949811091288    6.27938863980886
H         6.76676513593772    7.62542156620842    6.13345627452420
H         6.08466356021413    8.72713988051736    7.33788933726318
H         7.71045377644077    7.48383549323796    8.65578614744241
H         7.28054377816616    5.96927814460764    7.84515437441327
H         5.86793350420567    5.79951740966869    9.80697694632508
H         5.59780790782927    7.55267543498885    9.83665864324422

