40
CSD_code = AYADAF | q = 0 | S = 0 | Stoichiometry = C16H16ClN5NiS | MND = 4
Ni       -0.83303949217124    9.40342283233305    3.23688890846875
S         0.76669079137724    9.62781306063655    4.71236865494859
Cl       -1.00661768959403   11.38412158213354    2.93076221028615
N        -2.25048869155406    8.86145549032443    1.94480605363260
N        -0.37259790036638    4.71182277937155    3.02881296799415
N        -0.69086807648031    7.58107826742336    3.51686210296839
N         0.12368897300954    7.04697027019176    4.40216863995882
N         1.76749331015906    7.49510283644372    5.92648109863803
C        -2.98302516579115    9.60625635320059    1.12892680458099
C        -3.85574773761279    9.06026510852346    0.20195739568467
C        -3.94738217236837    7.67794116601442    0.10613106426872
C        -3.18817701628009    6.89461537509516    0.95163742253468
C        -2.35179573838964    7.51050278361429    1.88808213380974
C        -1.50291233626853    6.80935743400464    2.82150391952886
C        -1.53840401800863    5.34965456799950    3.00456434270783
C        -2.75478082461989    4.68425322109366    3.18202986187922
C        -2.73842843090768    3.31412604652914    3.37057550507172
C        -1.51996922616462    2.65226863086072    3.38166345799467
C        -0.36834650202028    3.40715664799667    3.21219065127669
C         0.88708080624937    7.92376542154938    5.03128698100367
C         2.67546514892455    8.36102846988771    6.64538669326002
C         3.37152943094403    7.42210319664543    7.62820990937205
C         3.34541023071244    6.07865376967661    6.89839746163713
C         1.97643896754939    6.09293942164264    6.22530004664154
H        -2.85943747392980   10.67775780457917    1.22548052961644
H        -4.43712358168347    9.70468686043603   -0.43667816364655
H        -4.59910476680034    7.21915735700506   -0.62248775990565
H        -3.21763644049777    5.81855707467968    0.88877626078404
H        -3.68237133812455    5.23618921080778    3.19905425603106
H        -3.66214685697638    2.77142562736580    3.51305179963739
H        -1.46530138757638    1.58447793872356    3.52447926580066
H         0.60994154500058    2.94338586008205    3.21883488939477
H         2.12553868065067    9.16931491826798    7.13400694943010
H         3.38535252006311    8.81504872575399    5.94428167645982
H         2.79761881294482    7.35474214286471    8.55287493428654
H         4.37946230519585    7.75233013937800    7.86743307810449
H         3.46858676092724    5.23218005163416    7.56991042499568
H         4.13255168135388    6.04696152529359    6.14474311694008
H         1.19342608063717    5.74103692458238    6.90706103257344
H         1.91952681848518    5.50517310535349    5.30808342135129

