42
CSD_code = AYAJAL | q = 1 | S = 0 | Stoichiometry = C9H25CoN7(1+) | MND = 6
Co        3.20861741198119    2.54555429216707    1.41281353648520
C         3.06349022238816    3.57839704350330    3.11037465265319
H         2.17022285280045    4.19714463366283    3.15398031467159
H         3.91202488970151    4.24748974963588    3.26313331592540
H         3.03310253626666    2.92166974635400    3.97904402616087
N         2.44661043934166    0.91018201019145    2.30849253603963
H         2.46011770248338    0.23093572999316    1.54191768923009
H         3.08017695293662    0.55555102674733    3.02440016549316
N         1.39926088638569    3.04919629890456    0.74537086162783
H         1.38364009924150    2.42189844785064   -0.06739955907478
N         3.83335298429735    4.20224987227530    0.46776890692036
H         3.83543404129446    4.89543226450702    1.21951395622176
N         5.08149420571428    2.01515546322524    1.93353419142142
H         5.26811267965380    2.39422887319283    2.86364557595592
H         5.09986246125328    0.99862431467806    2.02416822215854
N         3.31908379399977    1.39625052333067   -0.16908297809069
N         3.95014017727432    1.47075372717999   -1.15269645784638
N         4.53107444082464    1.49305234325619   -2.12775756317096
C         1.09553146373159    0.90002015184283    2.89094782208358
H         1.07442941096515    1.58499806905902    3.74053065065384
H         0.85775282754811   -0.10566322440356    3.25542091753034
C         0.16626985044803    2.78843857577793    1.49235591027112
H        -0.69745847990251    3.07414715327221    0.87967989792990
H         0.15934332487413    3.40442416277371    2.39418249126695
C         6.22807737303089    2.37162709497281    1.07515139427996
H         7.15994629050210    2.07145576476687    1.56676429511620
H         6.15031233784678    1.82154467438409    0.13551865041601
C         5.15658588271371    4.28709605871820   -0.16735889191391
H         5.33109292863329    5.31744279712761   -0.49938262637686
H         5.17152398676655    3.64578463871275   -1.05208822974853
C         0.04409647233031    1.31836482589845    1.87207279286820
H         0.13026231605811    0.69665335282641    0.97827291915551
H        -0.94345973825246    1.15043156577879    2.30093694249059
C         1.43824306039259    4.41962219828668    0.22234631787541
H         1.34398785202235    5.11802946220868    1.05865235250840
H         0.61210738998275    4.60381606894098   -0.47360465363815
C         2.77791995035334    4.60906026218992   -0.47192918895955
H         2.83626383155872    3.97337479014244   -1.35990976178368
H         2.91027116081849    5.64944795649365   -0.78894043773252
C         6.27192844159709    3.86548620429239    0.78108074887380
H         7.22674654338953    4.09597531560434    0.30962236914781
H         6.21330674475290    4.43285571967709    1.71285592490324

