90
CSD_code = AYALUJ | q = 0 | S = 0 | Stoichiometry = C30H53N4P2Re | MND = 5
Re        1.07449162397455   10.70894842550680   12.38378652531340
H         1.90883108574685   12.00644541560742   11.70361644542392
N         1.48916483366370    9.14488317096651   11.58805489760661
N         1.72875060895570    8.05737330212794   11.08835354807324
C         1.13224132233349    6.86044318497973   11.45227103157708
C         1.69255328219751    5.68684248797664   10.94244797475960
H         2.57135473193065    5.75835134169013   10.31940053576745
C         1.12688827007386    4.46564332980159   11.24436826977590
H         1.56593666305688    3.55968668079499   10.85135527807888
C        -0.00260111051219    4.39321556325981   12.04686480935293
H        -0.44283929851666    3.43416059727102   12.27699017694912
C        -0.56654471704749    5.55504445489972   12.55029849946980
H        -1.44801614270309    5.50371741924418   13.17430925954112
C        -0.00799647153670    6.78172615086756   12.25947836632840
H        -0.44816922023534    7.69064076253823   12.64769007507395
N        -0.03877119218631   11.31191047579941   13.66685916408840
N        -0.91325539328506   11.66533412165532   14.44218912720476
C        -1.73639201253973   10.80594316902958   15.15154704555841
C        -2.88469954568537   11.34150157086899   15.73826560231772
H        -3.10007934089105   12.39054643151717   15.60131254867037
C        -3.72485389404692   10.52727262578986   16.46903399972855
H        -4.61603521402775   10.94226629269258   16.91793208845535
C        -3.43236596904694    9.18105912749278   16.63345166060730
H        -4.09330753801490    8.55032488847025   17.20950562694425
C        -2.28757976664551    8.64783938516057   16.06166828773454
H        -2.05319419963484    7.60055525767176   16.19268171032359
C        -1.44253274743078    9.44953344072242   15.32414814289485
H        -0.54151955926431    9.04829196122315   14.87982872509520
P         3.06555028513919   10.45392865419889   13.87391499881518
C         3.14489618041980   11.59562957720399   15.34622074549907
H         4.10879237104564   11.42853164646568   15.84059317677944
C         3.04615841733301   13.04219605163015   14.87087536021151
H         2.16461768265209   13.16001116893830   14.23937816871117
H         3.92263275608775   13.33977897378148   14.30005230291212
H         2.95086116905000   13.71102276380664   15.72507597613757
C         2.02306325149729   11.30095951571281   16.33767803297886
H         2.11842334722818   11.94934910931089   17.20817012336374
H         2.04085732753007   10.26987887344277   16.68118555807810
H         1.05715416347177   11.49450700990572   15.88039196727710
C         4.59586137731041   10.93294675768872   12.90015434778840
H         4.31743510752072   11.92683565444569   12.52444408117249
C         4.76519317188322   10.01872269320508   11.68884046998762
H         5.50282148475690   10.43979848951134   11.00745259944117
H         3.82164861180877    9.92007165774142   11.15300133655780
H         5.10572919374039    9.02695292278666   11.98121396093413
C         5.91836142437226   11.04718796455917   13.65214818210873
H         6.31298191657230   10.06526255293807   13.90273951580993
H         5.83350673099216   11.64100559636439   14.55861314389496
H         6.64658890027829   11.53477933394475   13.00436156167038
C         3.47864232853408    8.74775402084510   14.54470317100140
H         3.97430864532947    8.26365849834465   13.69186014709312
C         4.41650251472744    8.70890363301375   15.74836751664041
H         3.92660798663324    9.08867850234572   16.64142333444952
H         5.32452556732231    9.27988636537141   15.58521347231187
H         4.69916240436587    7.67396873857688   15.94035712544178
C         2.21270398930400    7.94973017470535   14.84513891242169
H         2.45181073360148    6.89532639194295   14.97882478042092
H         1.51068977160572    8.03305326068097   14.01782036692256
H         1.72380744305382    8.30509815318488   15.74991024139159
P        -0.74204333103230   11.04244493668763   10.72437511115224
C        -1.95405001688286   12.38788627745809   11.19337134205953
H        -2.43880861671485   11.97223022849261   12.08745362293858
C        -3.02689596200779   12.70173239357949   10.15498568100294
H        -3.62610474327327   13.54048261181211   10.50844471151966
H        -3.69734053018141   11.86122118817752    9.99944034861296
H        -2.58896752834121   12.98268412872325    9.20029546437644
C        -1.23782896942622   13.66685212240883   11.62881614502628
H        -0.35354589824958   13.42859617379404   12.21849075582193
H        -1.90569736595892   14.26959496132748   12.24226697159891
H        -0.93058095292698   14.26366751637723   10.77519498717009
C        -0.19423428961263   11.37751220878776    8.97392169940817
H        -1.08445721229827   11.32215492477126    8.33673417831390
C         0.80434770100254   10.29591689700195    8.57010255353858
H         1.11717033605880   10.43564330077068    7.53615509474389
H         0.38686317484407    9.29573613731576    8.66985426372549
H         1.68413735070083   10.36068249130663    9.21026631227312
C         0.45222583243113   12.75125461530545    8.83122384368746
H         1.17686233889511   12.90376658322823    9.62926605123280
H        -0.28467441291347   13.54905477824112    8.86629117869888
H         0.97245676354015   12.81627606192093    7.87642364658571
C        -1.78014488747260    9.48707771372019   10.52481396096691
H        -1.02008668621509    8.69377224133963   10.55761346849146
C        -2.68181456986822    9.31547554050488   11.74572086584418
H        -3.02561431632771    8.28463158350573   11.81964994761094
H        -3.55671632390549    9.95952168070156   11.68425028126725
H        -2.13974793280001    9.55776477387361   12.66094629480060
C        -2.57084412584903    9.29706585493115    9.23312056291566
H        -3.11288267025672    8.35372269874610    9.29835235619567
H        -1.91952112959645    9.24236967743119    8.36504605518605
H        -3.29811636925188   10.08729195571660    9.07317814226626

