132
CSD_code = AYALOD | q = 0 | S = 0 | Stoichiometry = C48H77N4P2Re | MND = 5
Re        2.90749563324080    4.60899669355075    9.57261592735771
H         3.10718601389285    6.21593784829027   10.06298161334772
P         5.36261133257876    4.61415272506723    9.18225546095103
P         0.47571325226993    4.98786303502673    9.92421224272756
N         3.11431352619557    3.48473794246033   10.96909355683399
N         3.34467342449519    2.65583634714884   11.83434798957438
C         3.31807325159080    1.28258835026879   11.64715532976214
C         2.79268065379051    0.67156365421547   10.50337949811381
H         2.37620156281565    1.29257797540136    9.72092338828578
C         2.80350306107404   -0.70195079334176   10.38138482959356
H         2.39885949949092   -1.16606806341954    9.49219439029348
C         3.33666650096992   -1.48733994935710   11.39166223661655
H         3.34760766322786   -2.56255848998892   11.29166405568147
C         3.85528334227938   -0.88807884095740   12.53058791983122
H         4.27018874901039   -1.50087911125733   13.31809584193139
C         3.84590534584368    0.48465818298490   12.66540275508361
H         4.24976499126318    0.96393972566320   13.54450190345595
N         2.58052824231949    4.49883938592504    7.80329183667916
N         2.31923636813721    4.44043108432767    6.61162299165838
C         2.05196856628413    3.29408094894126    5.88395576083484
C         2.16870113253501    1.99804109269146    6.39598828530791
H         2.49785423214192    1.86190945022406    7.41542083426179
C         1.87854570684475    0.90975513615524    5.60102021559536
H         1.97172751152142   -0.08878868818367    6.00524313605847
C         1.46946965178143    1.09085323425024    4.28905700776046
H         1.24224908705865    0.23568924883237    3.66974905495601
C         1.35612345626319    2.37361411475377    3.77294101318955
H         1.03991398794896    2.51552709725978    2.74923318935296
C         1.64507402005569    3.46981186157047    4.55830564350343
H         1.56048813163987    4.47378317790779    4.16929641914749
C         6.36651661857121    5.45391508049817   10.51599864768037
H         7.40890196829323    5.13452551205678   10.37624232324607
C         6.28645910504538    6.97942853581713   10.44675807070094
H         5.24029626083882    7.27806349666459   10.54329521143585
H         6.65515028090256    7.34809514624988    9.49061930494061
C         7.11299779576520    7.61641156138244   11.56221278483244
H         7.04304641593008    8.70419106090042   11.48960840294238
H         8.16390865071303    7.34108419636850   11.43497884514255
C         6.63274520491327    7.15268341713769   12.93184368560092
H         7.25028744144265    7.59615806708980   13.71609686103564
H         5.60332318283604    7.48316451879499   13.08514223015840
C         6.68873938807997    5.63201011111817   13.00989205881110
H         6.31042045303985    5.29175040633556   13.97582983070699
H         7.72681884905683    5.29920635634739   12.92127413756697
C         5.85479658993773    5.01612133572031   11.89164360012146
H         4.81734984822649    5.34876747440273   11.98869260104154
H         5.85560812429990    3.93149694173644   11.98938349645964
C         5.84948568311601    5.39134637824209    7.55006546714650
H         5.55125350687436    4.61265691326070    6.83033512060070
C         7.34027577763119    5.66798071638612    7.34357099190816
H         7.95062261321851    4.80046366024174    7.60179194407161
H         7.66625713200124    6.49723273759239    7.97207930754613
C         7.58621277048746    6.03559782805619    5.88018042957132
H         8.64982191689186    6.23221109548039    5.72539572121036
H         7.30577574920137    5.19360141249689    5.24234703309395
C         6.76771681681663    7.26181635084417    5.48740114626085
H         6.93571974907820    7.49753536723598    4.43443758565295
H         7.09723698299308    8.12026211083458    6.07803533966235
C         5.28315452609288    7.01601076711214    5.73923970312471
H         4.70975315754344    7.91095404606697    5.48981463501497
H         4.93180740054623    6.20513000673458    5.09671671185910
C         5.04310204068661    6.64287749676813    7.19928516134463
H         3.98031358302048    6.45552169393884    7.36236266610852
H         5.33295469127344    7.47823295002531    7.83714299762423
C         6.22374822724827    2.95936045350900    8.94082313589235
H         7.12337567379810    3.16118374512023    8.34667064650530
C         6.65056307668281    2.22662443260856   10.21033600593406
H         5.77549572763130    2.01268514688016   10.82677686146121
H         7.34561609865458    2.83588900432497   10.79062511412193
C         7.33521081444697    0.90713887875877    9.85369597737362
H         8.24001921376626    1.11245683061966    9.27487045076237
H         7.63369332967909    0.39592559672837   10.77138562304548
C         6.40545629592212    0.01354911921447    9.04090071859288
H         6.91395182736427   -0.91766892149217    8.78226128780041
H         5.52945828614090   -0.23802166076337    9.64299393427175
C         5.96127317955469    0.73794502345366    7.77495277954556
H         5.26434878151947    0.11534265418377    7.20974070132007
H         6.82944989360323    0.92930209708825    7.13833122977077
C         5.29108558289261    2.05856468090030    8.13387062627950
H         4.40876177272640    1.85640002736310    8.74569420120143
H         4.96189443220729    2.56547789144332    7.22220654141409
C         0.04784965160557    5.99209027038347   11.43975056060703
H         0.27338067090965    7.01981322764458   11.12130953533521
C         0.97786111199667    5.67095745605767   12.61207261481218
H         2.01587034479751    5.70267647588227   12.27060241004553
H         0.78540096693252    4.66384489021263   12.98628549115869
C         0.76704160346961    6.67774786129859   13.73845548962080
H         1.42649725453468    6.43784920102380   14.57487073025601
H         1.02673643428057    7.67825830937353   13.38388764643681
C        -0.68668286335976    6.66586695291103   14.20175464200832
H        -0.83651825646102    7.41101366058204   14.98593083795851
H        -0.92421213899139    5.68593851416021   14.62289219880454
C        -1.62047490719756    6.95076081115690   13.02960292609247
H        -1.42749838036297    7.95665551617332   12.64837235050115
H        -2.66019887470973    6.91405047842258   13.36337618111613
C        -1.40526835046417    5.93224009129699   11.91016161551576
H        -1.63424804315072    4.93736927024613   12.29580274373124
H        -2.09488349304663    6.14161714983711   11.09233802611779
C        -0.19168255052576    5.97323160717260    8.48121183529647
H         0.12345399305033    5.36707873436105    7.61938767225303
C         0.51010658069186    7.32596953355378    8.34954406037496
H         0.16338797738030    8.00696950159306    9.13080674751129
H         1.58856449659645    7.19421843483401    8.46413547143049
C         0.20239298006046    7.93233489658463    6.98380637469940
H         0.70465700531419    8.89701688523158    6.88565629417976
H         0.58968168044843    7.27232201910552    6.20466174425579
C        -1.30278114763787    8.10907906574190    6.80664227214983
H        -1.67085228598412    8.83184818362904    7.53932346653224
H        -1.51954608746066    8.50400668804168    5.81190775918140
C        -2.02494056975204    6.77976632961034    7.00490063850115
H        -1.71441442553250    6.07824333681418    6.22669971899871
H        -3.10402456434156    6.92482690620347    6.91307705860511
C        -1.70075368581424    6.18756148582974    8.37729943949200
H        -2.03270759415662    6.88920640338805    9.14489550433867
H        -2.24921460276353    5.25263289760885    8.50204364506616
C        -0.66409377802751    3.50993961773493    9.96712167199089
H        -1.69095181318086    3.87114776620135   10.09392463894592
C        -0.54252359033777    2.74138652072800    8.65205222226550
H         0.50783857615089    2.47821316422452    8.50136351745578
H        -0.84800251450862    3.36643692428596    7.81027959112180
C        -1.38910683710843    1.47250576618750    8.66276967879987
H        -2.44542155917011    1.74352906411694    8.74429960701832
H        -1.25288355180169    0.93969986682159    7.71884036644472
C        -1.00692228248448    0.57434497667861    9.83359300730937
H         0.02893216866342    0.24901067370360    9.72350389066619
H        -1.63826485391825   -0.31679985258716    9.84345944429981
C        -1.15712799113700    1.33525803269306   11.14564687215644
H        -2.20651032229418    1.60808121445800   11.28887216031370
H        -0.85816710449775    0.69929598926810   11.98184744635049
C        -0.30142771486752    2.59867725829650   11.13858524681465
H         0.75137422209124    2.32345473486483   11.05996341266938
H        -0.43186137135651    3.12517111047521   12.08537730452876

