40
CSD_code = AYAPEV | q = 0 | S = 0 | Stoichiometry = C10H23B4Br2Ir | MND = 10
Ir        0.00746877378555    2.78494749065154    5.43484891494915
H        -0.99283653088734    1.62602314101327    5.52851946368622
Br       -3.04265014512037    4.23744024025331    6.16824394375772
C         0.59175551481192    4.08302726608924    7.32505546174404
B        -1.94544948064390    3.51220396727390    4.80264945074683
H        -2.58198431554393    2.90389612561072    4.01671746188230
C         0.20475781442179    2.75416019873331    7.65570585091742
B        -0.69344495424112    4.65349146858193    4.19041515792838
H         0.19405757441181    4.35260320068105    3.29855520437936
H        -0.24069256884599    5.51712644708342    4.85469048565495
H        -1.56355739284525    5.06110555045306    3.47975045443438
C         1.19165581955504    1.85815128069606    7.08209273410291
B         0.85591438591339    3.24198201545414    3.28891501967299
H         0.74849394244619    2.95301114464999    2.13432767703703
H         1.97328188056180    3.50010430273935    3.56617010868830
Br        1.38824867044575    0.20442208983708    3.59472600582968
C         2.15896036047409    2.66008372465683    6.41407926837232
B         0.12947927311342    1.62202617958148    3.59755112743195
H        -0.85240292517630    1.32723439589077    3.01281133996467
C         1.75520053781268    4.01751127545945    6.51391824280969
C        -0.02265669985042    5.31945407164520    7.88417031452011
H         0.39453459723002    5.50982188980590    8.87525266880681
H        -1.10090571212567    5.21936845956945    7.99285857437319
H         0.18371036280609    6.18824965476682    7.26291933945430
C        -0.82004626735045    2.39348527310793    8.68329274268681
H        -0.40290466867658    2.54686675511661    9.68020351840633
H        -1.11826862243259    1.35179589753394    8.59573574401382
H        -1.70859618775189    3.01563964592707    8.59191210400817
C         1.36450126167130    0.41032590872903    7.41407822730917
H         2.06164352540864    0.31076087367310    8.24805198501165
H         1.77012865303654   -0.14413767852169    6.56969128808869
H         0.42053167864005   -0.04449226096034    7.70334834867153
C         3.45129629927456    2.16419210529386    5.86369500750016
H         4.18062973314565    2.09094354564929    6.67325256472345
H         3.85485813171881    2.83883518438960    5.11161906490598
H         3.34668191990845    1.17533320047839    5.42133194225474
C         2.55502734396983    5.19151037153354    6.05777792392897
H         3.25929746819581    5.48604620841285    6.83876168171802
H         1.91872911440572    6.04824576512628    5.84242540925763
H         3.12815183432981    4.95970362334514    5.16177817636916

