83
CSD_code = AYAPUM | q = 0 | S = 0 | Stoichiometry = C27H45F6NO2SiW | MND = 4
W         0.61038941239345   -3.90492992444582    2.92826089662130
Si        2.18426605589011   -2.51461529529146    0.03383083563960
F         0.86297364743822   -3.09215304752821    7.20422521541180
F         2.88812427751385   -2.51683952797647    7.64955924716032
F         2.47810617083026   -4.44966231773823    6.80081591317185
F        -0.80414485949723   -1.97137762974911    3.87570729630977
F        -1.19256507823251   -3.77067659152265    4.98869841782145
F        -2.65801350840203   -2.17004078599382    4.96884248723870
O         1.38189363465497   -3.32339758248093    4.54186545041247
O        -1.31430589145924   -4.34236019870900    2.52857678344565
N         1.25100502891460   -5.40859737169480    2.24084622587816
C         1.14745663966461   -2.54885583567225    1.58037910048573
H         0.82417835105802   -1.53283516366966    1.86765352425370
C         3.46215296119556   -3.94535044992434    0.01493510603076
H         2.95248496959777   -4.88449853411057   -0.18638141265116
H         4.19205739380022   -3.80623100544594   -0.78269628313326
C         4.18990394005992   -4.07479314802249    1.34573858288048
H         4.83058162152270   -4.95512583958256    1.35422742186793
H         3.44653625032592   -4.16542224501632    2.14927438709087
H         4.80816658922522   -3.19924837233614    1.53222215641357
C         3.16252077280997   -0.84840200120648   -0.03615172936639
H         2.46225914040988   -0.01612715857865    0.05097230432732
H         3.82204591657686   -0.77936635525441    0.83087120320913
C         3.99477274105920   -0.65320717349823   -1.29841320203343
H         4.52882047701268    0.29617109699372   -1.27083866571051
H         3.35918589519690   -0.65874057410737   -2.17954842323806
H         4.72560932062236   -1.45056144239458   -1.40176534337697
C         1.15069237218898   -2.63346946021821   -1.58783159494787
H         1.80991834282000   -2.62354291766006   -2.45586923506345
H         0.62262895080002   -3.58562566652352   -1.61118936685000
C         0.13106862667100   -1.50922854483616   -1.72577918476433
H        -0.44671078975483   -1.61034770535810   -2.64378581495754
H         0.62580729323462   -0.54156442831763   -1.74144252081086
H        -0.55903059618261   -1.52368544623457   -0.88532809182058
C         2.24432812294018   -2.57978457605016    5.32549492201455
C         2.12397226507352   -3.15851898252428    6.75027260976475
C         3.69084564415049   -2.72560606464788    4.83696330383760
H         3.98231106358649   -3.77461232493264    4.83731029929698
H         4.36852823056565   -2.16203622918912    5.47348816727744
H         3.73977438151202   -2.35037353466022    3.81472533751952
C         1.82523657065458   -1.10129227625742    5.35911893864900
H         0.82879198545026   -0.99628588262124    5.78553445848049
H         1.81611032556723   -0.72664636209223    4.33622619482565
H         2.52594913629431   -0.52109207965310    5.95372362043398
C        -2.35032517616666   -3.53545071758883    2.93260699256353
C        -1.80364910995307   -2.84452096390600    4.20426582824376
C        -2.68335914946345   -2.46497924362710    1.87760433775191
H        -1.74867131059666   -2.04980228176723    1.48992950453446
H        -3.30166075401853   -1.67519811804908    2.29865279490390
H        -3.21106429821983   -2.93938464239579    1.05493423444933
C        -3.58828055209335   -4.36141587723951    3.31912617567053
H        -3.33237600288663   -5.06895709471594    4.10605293004917
H        -3.91162048599456   -4.92180645480496    2.44642338975194
H        -4.39265834929457   -3.71396708403461    3.65870542894094
C         1.80008677663680   -6.57053968766270    1.85361939163916
C         2.69399051747896   -7.26338523199514    2.70501018586241
C         3.24155624527872   -8.45890597698139    2.27582244916699
H         3.91666092714781   -9.00164565961729    2.92103044565014
C         2.93052707587084   -8.97870405266055    1.03158861405753
H         3.37093540548519   -9.91148953629344    0.71136419527903
C         2.03971694850956   -8.31432299192668    0.20295859293813
H         1.79367305829784   -8.74661263904943   -0.75456722322610
C         1.46512591162126   -7.11935781812891    0.59041657344406
C         2.96082467328540   -6.71536352534431    4.08672024240895
H         2.54913956927191   -5.68609145161684    4.11907730493354
C         2.20778500733382   -7.55095817954416    5.12698816531507
H         1.14525736327987   -7.56899937058266    4.89246310078011
H         2.33912827312267   -7.12434256716269    6.11881668592303
H         2.57660835961414   -8.57458128151157    5.13391088595380
C         4.45088127022963   -6.65489264038702    4.42080311227571
H         4.98647296087237   -6.07763858540395    3.67085155413117
H         4.88088279343509   -7.65259758776798    4.46005249101813
H         4.59479415002777   -6.19003608204891    5.39442021485494
C         0.44056994861494   -6.37840468386678   -0.23345355596678
H         0.58413299111635   -5.30391290009226   -0.03482768967885
C        -0.96157518051495   -6.73454637947550    0.27783241656689
H        -1.06971537035247   -6.37881786079215    1.30348133032779
H        -1.12025770257040   -7.81121382257565    0.24973113830704
H        -1.71729151813912   -6.25205677891568   -0.33832520620900
C         0.55460232500501   -6.64029503674392   -1.73277074583246
H         1.57400340620257   -6.47745177786621   -2.07437305525770
H        -0.10133758532700   -5.96394732929561   -2.27665898518615
H         0.25980279210218   -7.65854912982748   -1.97682378537411

