37
CSD_code = AYAQEW | q = 0 | S = 0 | Stoichiometry = C15H19BrOTi | MND = 8
Br        0.76098933316656    2.84785837878431   -2.47952438211775
Ti        5.21834414958784   -3.22676646930405   -2.44645301207007
O         4.65172956782116   -1.68414155380474   -2.04762652298413
C         3.39051896209237   -3.62906890688424   -3.93167027098064
C         3.40944739017661   -4.65763551573851   -2.96930423557680
C         4.61363867147447   -5.37973214451702   -3.12212070339768
C         5.33964979023007   -4.79315901172217   -4.17840861721835
C         4.58350692011263   -3.70902991161467   -4.67593566636531
C         5.56146507227400   -3.95443924181209   -0.53273900584828
C         7.21014472656959   -2.76220391317186   -2.79868657629144
C         3.79770393755903   -0.68195615409566   -2.13857064050427
C         4.00738907749531    0.33571439864649   -3.08937765090645
C         3.09999656391664    1.37635966434927   -3.18095497262553
C         2.00141776174795    1.40663761575559   -2.33995783744325
C         1.78150510499930    0.41402251700985   -1.40113633947311
C         2.67428736400089   -0.63736600149941   -1.29028433034876
C         5.21399238996442    0.24502642041842   -3.97283273272824
C         2.48961716656248   -1.74357387722317   -0.29694036939710
H         2.56190091900701   -2.95724321575707   -4.12928181819149
H         2.58699593754948   -4.93328056582554   -2.31853207939449
H         4.86297576880271   -6.30730752262382   -2.61932110041526
H         6.24280868303224   -5.19216962754667   -4.62585073551717
H         4.81871954480943   -3.12910713381152   -5.56145710037249
H         3.24976455546547    2.16260933173315   -3.90553977327965
H         0.91665398083280    0.45964429988630   -0.75647679269343
H         5.96773074173720   -3.19338268853053    0.14591380648256
H         6.28116742559104   -4.78291418231309   -0.56210212332887
H         4.63703822358994   -4.33789797115761   -0.08292139038389
H         7.34955132533012   -2.36580048256785   -3.81263624078821
H         7.83432450257412   -3.66117360422535   -2.70644155223568
H         7.60306039018522   -2.01669341286814   -2.09472801215175
H         6.11810819734655    0.20764465771793   -3.36056852973817
H         5.27075972130632    1.09647528726551   -4.64547454270709
H         5.17444334005068   -0.67707433065322   -4.56134320228748
H         1.60379088735082   -1.57941458954829    0.31034563518008
H         3.36578556138908   -1.80674369302958    0.35277000673526
H         2.39497634428878   -2.70061684972500   -0.81993058864568

