71
CSD_code = AYAQAS | q = 0 | S = 0 | Stoichiometry = C37H31BrOTi | MND = 8
Br        2.06374978259976   -8.81310241050702   -2.89047063829903
Ti        2.90888326963571  -14.84570208732793   -6.96586456413825
O         2.25634896019185  -13.26585711969345   -6.92053634071972
C         3.68601508118610  -14.73304196902955   -4.69999077098117
C         2.88943932388169  -15.88636054180395   -4.83812633381692
C         3.52409451425756  -16.74719838083971   -5.75968811356629
C         4.71133208294203  -16.12022124529704   -6.19269340880596
C         4.80715042621971  -14.87204366708793   -5.54025388957862
C         1.30427698154593  -15.90114771086987   -7.73945399522347
C         3.88295834857005  -14.77213924839528   -8.79126611794523
C         2.21684409576085  -12.28930776784055   -6.03519261135124
C         3.23199202257336  -11.31363727326648   -6.00821107140114
C         3.21130423763202  -10.30210516494302   -5.04672152226503
C         2.17541876640596  -10.27936699173964   -4.11670743193586
C         1.17401064594854  -11.24685656480978   -4.10056652632402
C         1.19552040536648  -12.25453001544628   -5.06560273796834
C         4.31924142788980  -11.40702629375334   -7.00333723935044
C         4.01715944114509  -11.44707257312092   -8.36266895969386
C         5.03274518823287  -11.50584617859973   -9.30074797411672
C         6.35608900779820  -11.54207066031667   -8.89435925253627
C         6.66251048092400  -11.52048082623383   -7.54382266542199
C         5.65222071053989  -11.45090134547435   -6.60262313117090
C         4.26367273175394   -9.26567646636222   -5.06149755788138
C         4.42592897269887   -8.45776739820349   -6.18154285445948
C         5.41537397216528   -7.49317543012010   -6.20700383112227
C         6.25568909495089   -7.32929924371489   -5.11863162088460
C         6.10093837111396   -8.13214131629559   -4.00164493946375
C         5.10925616335942   -9.09497356641923   -3.97082134156144
C         0.07912930433439  -11.21480011312659   -3.10958938663358
C         0.35017750882048  -11.32354459355305   -1.74995937161261
C        -0.68207146527707  -11.31367009508995   -0.83036941957649
C        -1.99281366862606  -11.19174975246981   -1.25843863149396
C        -2.26873116214741  -11.07984748510989   -2.61080344882588
C        -1.23966548187782  -11.09410207971414   -3.53328181842548
C         0.17414602201614  -13.32136574492217   -5.08868271798358
C        -0.07387516967482  -14.09989705166413   -3.96085589393301
C        -1.04981920760582  -15.07892397915735   -3.98924442406050
C        -1.79154268770274  -15.29061538903797   -5.13961015192684
C        -1.54515711939816  -14.52639792524886   -6.26795314367467
C        -0.56270149230598  -13.55193377623919   -6.24853720423293
H         3.52162315593483  -13.92963590247746   -3.99037372656451
H         2.00898978070685  -16.12422865637253   -4.25293511989984
H         3.22844615740953  -17.76669837038547   -5.98018430087344
H         5.48304993803485  -16.57564632678006   -6.80247163540157
H         5.65245833158255  -14.19571393287358   -5.59123558337752
H         0.62390789848757  -16.19774767619428   -6.93202659640167
H         1.64498251708427  -16.81662695656916   -8.24109248386563
H         0.72280800308949  -15.32431254132878   -8.46955339809574
H         3.31903638812942  -14.21959749122627   -9.55278210497999
H         4.06093700540868  -15.78271350130546   -9.18137440034469
H         4.85665197264716  -14.28098901432964   -8.67623237013765
H         2.98341202323545  -11.40630754368324   -8.68162014659620
H         4.79071712653047  -11.52190950657893  -10.35346702031677
H         7.14737536819502  -11.58795746173058   -9.62797918289875
H         7.69341776596245  -11.55295758956043   -7.22234044746038
H         5.89495557631614  -11.42518946908744   -5.54983100930427
H         3.76696626785632   -8.58477167831029   -7.02807316475963
H         5.53066122196562   -6.86724399519815   -7.07956294448137
H         7.02922316675668   -6.57606395957304   -5.14059111418109
H         6.75370562558810   -8.00851663862470   -3.15023622449591
H         4.99590371919003   -9.72542180505564   -3.10042881157220
H         1.37194974041182  -11.42665675702160   -1.41333353611104
H        -0.46134274738694  -11.40107652343083    0.22315468666504
H        -2.79819880343745  -11.18276548870621   -0.53909805674531
H        -3.28969574745169  -10.98139596506848   -2.94897222209338
H        -1.45250604382338  -11.00362869481560   -4.58849517730136
H         0.49755094753897  -13.93304117754457   -3.05898101219664
H        -1.23598604627491  -15.67573770507748   -3.10806857892324
H        -2.55942680416769  -16.04993669181113   -5.15630375231873
H        -2.12297743482146  -14.68811677751104   -7.16635491696267
H        -0.38193595857022  -12.94409675879462   -7.12618259352116

