46
CSD_code = AYAZOQ | q = 0 | S = 0 | Stoichiometry = C22H14CdN4O5 | MND = 7
Cd       17.77327867493037    8.16939575269100   14.78542672768701
C        16.03420127751901    5.56590272427485   14.88259675749580
H        15.94757780384874    5.66982809817865   13.80712746128925
C        15.08242440674079    4.87777372827804   15.61960255013203
H        14.23111555833080    4.43267412854342   15.13014162576686
C        15.23172552031881    4.81228590780318   16.99486778172480
H        14.48912795537968    4.32523919687813   17.60818534210159
C        16.34338092281057    5.39819867963569   17.57447035253413
H        16.47026803887988    5.38895805125505   18.64528104681183
C        17.25877529800568    6.05941577550976   16.75945272571479
C        18.46099171858124    6.71579858356005   17.31288146088909
C        19.10114850647520    6.23266516389216   18.45408028843326
H        18.73739112091446    5.34815054150057   18.95289322719923
C        20.22842560366982    6.88721078322068   18.91952488656002
H        20.74353419539239    6.52954453545960   19.79895093059733
C        20.68743566817133    8.00098413864979   18.23449951110481
H        21.56302367941272    8.53716741600628   18.56405448749433
C        19.99698344238559    8.40847044195887   17.10243195295996
H        20.32814456046894    9.26179390689085   16.52326944044708
C        15.04492697341980    8.59742166439378   16.26678545380658
C        14.65688126448001    9.63744214449509   15.16147868495835
C        13.97149825154438   10.81155819480841   15.40806163806121
H        13.35903445284990   10.87528732861475   16.29343077160531
C        14.08806563359645   11.87813322992426   14.52852232939848
H        13.51605955320725   12.78093221385257   14.67142676630136
C        15.03639515920818   11.79533599360903   13.52173988942159
H        15.27766433649358   12.65420348202444   12.91516654050406
C        15.72883328011636   10.61216803465682   13.31877783487814
C        16.93934125966095   10.50719649884630   12.48831031237533
C        17.09586047413011   11.15000459563622   11.26562694824047
H        16.28119397365962   11.71604058409466   10.84139230703924
C        18.30879611950906   11.02964021975431   10.60100235924503
H        18.45628951396952   11.51801867255567    9.64878907810664
C        19.31255299652472   10.26633131687681   11.16803359660951
H        20.27165664473704   10.12145848731931   10.69675240795484
C        19.07036346928775    9.64596108939235   12.39179966937602
C        20.11562948933271    8.69713189263290   13.02555460311618
N        17.08911551026236    6.14643204502020   15.43634449351497
N        18.91905415507708    7.78427286091245   16.66143461591511
N        17.92321204850881    9.78649690474271   13.03660739019725
N        15.40202626331064    9.51548507646273   14.04622912281496
O        14.23318301057182    7.87586946120295   16.79880070650421
O        16.27408120334215    8.75326312395099   16.48782401278064
O        21.27013435402958    8.80681219962767   12.65131215484086
O        19.64910712118466    7.86961730857527   13.86128296737488
O        15.84968953576497    8.35122782181980   13.71717478813231

