35
CSD_code = AYEJEV | q = 1 | S = 0 | Stoichiometry = C10H18O4P2Re(1+) | MND = 6
Re        8.37577782940071   -4.31723927268740    0.00055482884037
P        10.05045279069791   -6.02238458009558    0.80787392498471
C         6.92247543462022   -5.58873635617058    0.40054098044221
O         6.08815885374210   -6.32376693000988    0.63022031025525
C         8.26846133721183   -3.61059361213620    1.83842715205072
O         8.21131276500470   -3.20709467459508    2.89813571058428
C        10.44732972563962   -7.33788045358967   -0.38450648070693
H        10.88593584087156   -6.90141197752627   -1.28127828959919
H         9.53888864238513   -7.87502975020307   -0.65569086850271
H        11.15827036813595   -8.02898882577437    0.06940666981195
C        11.67456289448762   -5.33892293954831    1.26169212513204
H        11.55348312360556   -4.58786423532220    2.04183434183915
H        12.13685019179225   -4.87731256096673    0.38984340768720
H        12.31165995710603   -6.14496504673079    1.62703724957785
C         9.53285663807936   -6.92972558524903    2.29831609885888
H        10.31925044397028   -7.63087566075955    2.57939066263282
H         8.61299894193983   -7.47766159652768    2.09723559808232
H         9.36017020111016   -6.23060343103009    3.11586898598138
P         6.70229714113668   -2.61089623358592   -0.80798383278480
C         9.82878584979702   -3.04560492697555   -0.39965126406965
O        10.66321394463996   -2.31065964562830   -0.62914699892793
C         8.48194042937910   -5.02394705954266   -1.83742992499362
O         8.53752820291153   -5.42818894564697   -2.89696362879456
C         6.30356685105067   -1.29720778614255    0.38582239952887
H         5.86139906294395   -1.73485243106686    1.28028627599579
H         7.21191571176869   -0.76192680739914    0.66106567558808
H         5.59513577235691   -0.60407809352096   -0.06895395795610
C         5.07879248846466   -3.29227735536231   -1.26689964402074
H         5.20113954412895   -4.04076708008636   -2.04929448405506
H         4.61478433838022   -3.75662563107177   -0.39743067854875
H         4.44267178125224   -2.48476856300760   -1.63073167442202
C         7.22415185765952   -1.70107296875320   -2.29545156361377
H         6.43841732955557   -0.99977539417148   -2.57800321677107
H         8.14319494922196   -1.15310904987257   -2.09069434472361
H         7.39966876555003   -2.39898453923379   -3.11344154538261

