45
CSD_code = AYEWIK | q = 0 | S = 0 | Stoichiometry = C20H20Cl2NNiP | MND = 4
Ni        5.23609962102178   -0.10753596057002   15.07984431426455
Cl        4.45456495714943   -1.81653346365403   15.91982111746755
Cl        6.21910399587502   -1.13354366886286   13.56031818485278
P         4.05483320836875    0.99795972722089   16.46467013999485
N         6.05738745514755    1.67362614275868   14.64391584181221
C         4.83901787418383    1.30025424333261   18.06844437912972
C         4.53115586196117    0.41179095437528   19.09948226329962
C         5.17364175131447    0.51200776399206   20.31831585382373
C         6.13825448494779    1.48736665996264   20.51720330929582
C         6.47381405770176    2.34843064218080   19.48540444184786
C         5.83805601965728    2.25040853049778   18.26077729890260
C         2.31130543537855    0.72101451940502   16.88048083719169
C         1.70753881372958    1.34630773899773   17.96837715058962
C         0.36020087844562    1.15106337676634   18.21156499729908
C        -0.38886480517645    0.33568940382837   17.37766999615887
C         0.21032313079230   -0.29061305663033   16.29703361168988
C         1.55690951214527   -0.09864264850685   16.04663853877372
C         4.01992311748011    2.64163566846998   15.52712228873385
C         3.46802338709967    3.81410484285223   16.32642626674200
C         3.13578281160868    2.38109061801103   14.29625275255004
C         5.43238958797113    2.80111376058606   15.02371623841843
C         6.05208008940578    4.03792333065735   14.89850678289108
C         7.33399823247844    4.11391358715448   14.37956212086604
C         7.96116961648018    2.94473871096383   13.98587380027367
C         7.28415670654014    1.74681843259669   14.13432844956689
H         3.79408423972653   -0.36100079590021   18.92814135255282
H         4.92809647963108   -0.17621211548568   21.11326501857113
H         6.63950931338095    1.56711148464204   21.47017564030926
H         7.24088866083138    3.09507793379062   19.63144535500996
H         6.12904647290332    2.90867801878637   17.45390240183488
H         2.29192715046308    1.97155730052506   18.62914950373095
H        -0.10702639295069    1.63480384480952   19.05697898770434
H        -1.43942511877100    0.18411083190488   17.57643373586129
H        -0.37058819365272   -0.93252741012288   15.65216153662679
H         2.04157650023887   -0.59917111166478   15.21894456293169
H         4.10745959319043    4.06716644794810   17.16940373730890
H         3.35328983038708    4.69229808397863   15.69234576182463
H         2.48248907330642    3.55432065121672   16.70907612729994
H         3.47278456495576    1.47879115354391   13.77393431596740
H         2.09816920373327    2.24236167667685   14.59494721346802
H         3.19229046378869    3.21994915983777   13.60349646542257
H         5.53693663407379    4.93426244347333   15.20342257320585
H         7.82596278306472    5.06999176303286   14.28151183109949
H         8.95541748279518    2.95243025054095   13.57018384817737
H         7.72484545719795    0.80891053208293   13.81912905465813

