96
CSD_code = AYEWOQ | q = 1 | S = 0 | Stoichiometry = C45H44FeNO3P2(1+) | MND = 6
Fe        6.06487710747965    6.08657632356210    5.49815672069316
P         6.10185579972963    3.85857194668315    5.40125616883616
O         4.13479889982688    6.08721464785505    6.00870980303887
C         4.88815260529132    6.08707611630320    6.99592219300713
N         4.55159627378838    6.08685875096877    8.25954880717669
C         3.13217807766042    6.08671673809226    8.66216372838328
H         3.12426898900025    6.08666068696378    9.75387152238566
C         2.43233339966839    4.82811617753800    8.16210405037054
H         2.94421702174581    3.93481316114832    8.51248326251002
H         2.40727695746952    4.81317845061327    7.07559901610205
H         1.41034565154166    4.80895497470549    8.52995661749916
C         5.57479950795718    6.08679635352214    9.30056668416761
H         6.53106159490971    6.08684511835756    8.76634929599210
C         5.49967383849523    4.81982678474180   10.14933783343014
H         5.52627500557884    3.93663627316475    9.51452239795425
H         4.59465177809631    4.79221956104414   10.74982574014039
H         6.35115980652511    4.78441789584740   10.82303330074393
C         6.13907375764373    6.08641911304130    3.71980702758180
O         6.12540400362268    6.08685900718532    2.57932939913771
C         7.77270717255123    6.08721694355647    5.91851992180936
O         8.90033651043241    6.08649467810698    6.12417662601999
C         8.02385133196147    3.65184525203964    3.45294455026997
H         8.56099865135666    4.33229187622369    4.10131085676335
C         8.59769654272502    3.20827897618994    2.27797188646937
H         9.58703255750807    3.54053376030614    2.00250545356833
C         7.89970596578681    2.33900234482332    1.45320349835772
H         8.34463514765858    1.99592988135587    0.53199808038326
C         6.63291941759799    1.91133874110701    1.81152589510233
H         6.08980708154399    1.23209305563704    1.17194908383765
C         6.05325968310531    2.34909207179749    2.99068271022936
H         5.06468753407179    2.00722598928051    3.26332150615525
C         6.74660739439047    3.22716576184526    3.81557327979836
C         3.49494760803791    3.57274435640864    4.59422591309543
H         3.77637705650842    4.32061404134329    3.86323520594591
C         2.21047469183672    3.06582517404698    4.62371165777885
H         1.47751961725201    3.41157387029149    3.91050321563772
C         1.86420548956053    2.11247235720481    5.57032743767166
H         0.86156016730077    1.71417174612372    5.59128776704740
C         2.80152359546854    1.67390068904783    6.49039301583192
H         2.52948204531425    0.93508403671088    7.22902166239839
C         4.09044730520484    2.18025225166319    6.47026742278519
H         4.81848744639950    1.83847823957798    7.19295360095237
C         4.44546874988540    3.12107557081178    5.51036832033070
C         7.29360218411625    1.50373215520224    6.26811688263726
H         6.84765804261275    1.07063012200863    5.38321669112401
C         8.05046409159938    0.72353224912756    7.12083033810533
H         8.19603926052972   -0.32323207513339    6.90168273999648
C         8.62582111926880    1.28323900999008    8.25210863982164
H         9.22024864421588    0.67136739960201    8.91283190501966
C         8.44246764501576    2.62695693300006    8.53075121185038
H         8.89407551800110    3.06511427631913    9.40789257270756
C         7.68393672601661    3.41243449765652    7.67999473920076
H         7.54308103091696    4.46352271600513    7.88479859871840
C         7.10399721351007    2.85721690413083    6.54728307507688
P         6.10187206669056    8.31477134031764    5.40137119287730
C         6.74657911057406    8.94630161312551    3.81568434621377
C         8.02367359932365    8.52141082500518    3.45274824088283
H         8.56080627691607    7.84075379151343    4.10090112744914
C         8.59737517810261    8.96496644361290    2.27768947279570
H         9.58656680771069    8.63248998886769    2.00197067058728
C         7.89941134121179    9.83445879296174    1.45312890386043
H         8.34422883911919   10.17750229454824    0.53185428475061
C         6.63279087349312   10.26236820126077    1.81175293469701
H         6.08970699309478   10.94180892766460    1.17235465958803
C         6.05328408511406    9.82463732475477    2.99099985074064
H         5.06484667658418   10.16670827803536    3.26386120144034
C         4.44554231345558    9.05241703446314    5.51039419420026
C         3.49506010493183    8.60080591819629    4.59418536569327
H         3.77652807519272    7.85298939755281    3.86315343677461
C         2.21058476732120    9.10772063491409    4.62364660098799
H         1.47766452930680    8.76201635306655    3.91037886119024
C         1.86426839765701   10.06100415014911    5.57031609808944
H         0.86162588513908   10.45931508358727    5.59124453354476
C         2.80153780178762   10.49950125860255    6.49046726085709
H         2.52946608425934   11.23828366988376    7.22912060254232
C         4.09047563990852    9.99318187880932    6.47033975505176
H         4.81848234878069   10.33489799846772    7.19308900482415
C         7.10401668960528    9.31627036238577    6.54730298810853
C         7.29359760960687   10.66975961694778    6.26808401039979
H         6.84760585694887   11.10283173842437    5.38319261782155
C         8.05049508619363   11.45001365908939    7.12072914657326
H         8.19603404578185   12.49677686012890    6.90153945269846
C         8.62593765800830   10.89035716376208    8.25198728280947
H         9.22038948487046   11.50226360486686    8.91266025421879
C         8.44260841098597    9.54664699094475    8.53068883498513
H         8.89425833013761    9.10853423558176    9.40783282473544
C         7.68403137024579    8.76112172664383    7.68001195023552
H         7.54321359676256    7.71004081093411    7.88487374586012
C         2.43231048377178    7.34533436038059    8.16218720986353
H         2.94411974942983    8.23864359961806    8.51266019709371
H         2.40728998804649    7.36036496972987    7.07567981386768
H         1.41031043777300    7.36438840347511    8.53000369445757
C         5.49962980674510    7.35370480768666   10.14940330415752
H         5.52624455092168    8.23691024496203    9.51460979525072
H         4.59458892066373    7.38127246614285   10.74986327127526
H         6.35110981270800    7.38907924429458   10.82310747423237

