45
CSD_code = AYEZOV | q = 0 | S = 0 | Stoichiometry = C18H21Cl3N2Ru | MND = 9
Ru        5.70719121119013    2.89687427552211    2.58887603655467
Cl        6.45358418778660    5.09105554698335    2.94246686887917
N         2.93013333069342    2.16541480558114    4.32653799438697
H         2.81497509562400    2.49966889153214    3.36036528724791
Cl        3.61988215875541    3.82940633867985    2.00798756919056
C         1.95065051351904    1.73141094074303    5.18176698056551
Cl        4.60666606171343    2.01756992315616    8.98593942205029
C         3.78410086543781    2.14007112153331    6.40454813323510
C         2.44426115247514    1.67954674179367    6.45693042812263
H         1.92119522796634    1.36797207323421    7.33784793898026
C         4.81303026153124    2.36355253477478    7.31647903578766
C         6.00406009833529    2.88078083184158    6.83430699671369
H         6.81967306027245    3.09128708716597    7.50572788160959
C         6.15983728646824    3.13108391224921    5.47630311124194
H         7.08389892955609    3.55352187909352    5.10435368291558
N         5.21109528353574    2.90407964350380    4.56679927670330
C         4.04523407171972    2.44684370758900    5.03558031634530
C         0.60151067324426    1.39679220362456    4.66408378727034
H        -0.05824609767703    1.12247400637572    5.48143988927637
H         0.65635149579377    0.56710112604787    3.96012659582935
H         0.18177856308980    2.25275786193930    4.13804235630609
C         7.81102378267266    2.15758448642694    1.85985461500661
C         7.30674370904697    1.24160894663360    2.79151832587431
H         7.92016816099451    0.91917948922165    3.62421994522080
C         6.01735938361189    0.66113661478300    2.62384876973811
H         5.68049719460307   -0.08880398175752    3.33315378939078
C         5.22951410824395    0.95514703126022    1.49985036321347
C         5.74020407575320    1.89599038663415    0.55773240605108
H         5.16103605076693    2.11064473468331   -0.33532556444228
C         6.99227612731206    2.49273894549955    0.73876049856027
H         7.38370307850675    3.16469749517235   -0.01818150698141
C         9.21950494659646    2.69316508906566    1.95000524997041
H         9.33240461168733    3.47661748676286    1.19320971347471
C        10.20375026325056    1.56235816386410    1.62857935395652
H        10.13940216214129    0.77182070907292    2.37340902560821
H        11.21997560306104    1.94808626941759    1.62357348711177
H         9.99260599136927    1.13304587984895    0.65093762700223
C         9.51940484978591    3.31827586809799    3.31208098733078
H         8.80487351491459    4.11561287437822    3.50843076352279
H        10.51913599517260    3.74517404198004    3.30781420826435
H         9.46769645786289    2.57977340796213    4.10927442474985
C         3.90863406733314    0.29176121182050    1.25436919112350
H         3.97477759383583   -0.36400539984702    0.38547541072840
H         3.14855772221149    1.04643542349810    1.05221677463683
H         3.60208711822535   -0.29751062743407    2.11578255164754

