77
CSD_code = AYICAO | q = 0 | S = 0 | Stoichiometry = C24H42BO6PSi2W | MND = 6
W         8.14969589941291    2.72539885595857   33.50691764220488
P         9.51666078929843    3.82375808626086   31.78671492254730
H         9.06627914814938    5.08169723843115   31.34613568501834
Si       11.66114454747004    6.00530461606854   31.74889497080723
Si       12.42886254249552    2.77646661798974   31.81321722984361
O         9.72114601243834    3.14284211727134   30.32652788324808
O        10.66877591612650    1.34586211070472   34.76505492289851
O         8.90599238708653    5.17506808879180   35.31804069300834
O         5.55539324095664    4.30298231394958   32.71487848386085
O         7.53206676559853    0.42277952713868   31.46421312100638
O         6.43608840435827    1.41630400059620   35.77618525521791
C        11.22162649974313    4.20973764604198   32.26770356372181
H        11.17867376641134    4.21616365801267   33.36172535727707
C        11.38591543027470    6.23246812099208   29.87288780792748
H        10.97498179924759    7.21315743039279   29.65194664782942
H        10.69619319173801    5.48881088396370   29.48313590344018
H        12.31543291875729    6.14017806806883   29.32059741318874
C        13.45444027233770    6.42727137211596   32.23167966946474
H        14.17830234169246    5.80939530677052   31.71354723144432
H        13.61630439748441    6.30400991556574   33.29728922000844
H        13.67126987050365    7.46163007199938   31.98768130442514
C        10.52061594373292    7.17254122938776   32.74380830873648
H        10.69234922771464    8.21178737927476   32.47968362146527
H        10.70076940604609    7.07564924529416   33.81086916616591
H         9.46789456810304    6.96174868243277   32.57567705544712
C        13.37818692239417    3.19283494249417   30.21025222110936
H        13.83750035147962    2.30064765032464   29.79589601694948
H        14.17627166542507    3.90105373369228   30.40504879784869
H        12.73652547272245    3.62111727748859   29.44955590403490
C        11.59029721171542    1.06607363220915   31.65283660674660
H        10.51212249852616    1.13077885789365   31.77847698489883
H        11.96659161263486    0.37525933505858   32.40195628149561
H        11.78021981449294    0.62293907899487   30.67989020436755
C        13.67714476771884    2.68092955713078   33.25402061377991
H        14.45895172243084    1.96197061679550   33.03290222692278
H        13.20114892081143    2.37007212905474   34.17893062155336
H        14.15444624404184    3.63812336026749   33.43495984691064
C         9.31619157472631    1.96027936452471   28.11962478574724
H         8.70149127356161    2.16671525320473   27.23603185663334
C         9.12886091247938    0.46762475199186   28.45639615768427
H         9.73695444383042    0.21881598831661   29.32766634571475
H         8.08678202255534    0.27390787975828   28.71235604150743
C         9.53982314587569   -0.41375041056825   27.28083581923213
H         8.89436265500587   -0.20076751774655   26.42551788009366
H         9.40602391808469   -1.46456772939209   27.54692054967951
C        10.99212863853778   -0.15559023021156   26.89420027691512
H        11.64287574399378   -0.42677936503242   27.72899864070707
H        11.26791141526563   -0.77786483239999   26.03996161269462
C        11.19226119743233    1.31766460964240   26.55530318322628
H        12.23878850941434    1.50348128608973   26.30272351410451
H        10.58752675210461    1.57316183050801   25.68177955706242
C        10.78169549315826    2.19486600337802   27.73396816629283
H        10.92917904971256    3.24722453334528   27.47887542658052
H        11.41141936394609    1.96395730476718   28.59272338930775
C         7.34566649045311    3.44211884499914   29.46280582100406
H         7.13837811851988    3.62560714171554   30.52997884913764
C         7.30413156685456    4.81327654060753   28.76110401268397
H         8.10411734819584    5.45296509363302   29.14523396131790
H         7.47644255071786    4.67271017462305   27.69147402891671
C         5.95488352217966    5.49225282992476   28.97555381613383
H         5.80391260306494    5.67010049392199   30.04288095641935
H         5.94392666773710    6.46046080029297   28.46931093081362
C         4.82688859968693    4.61327838259901   28.44589866205769
H         3.86406002199839    5.09744231051563   28.62133095086287
H         4.94551471797350    4.48305475598271   27.36744503346004
C         4.85635545953498    3.24904790420476   29.12703755081017
H         4.06078151995274    2.61639190101205   28.72755874667765
H         4.67561501551161    3.37509422759416   30.19694272993804
C         6.20850725087391    2.57201863703365   28.91859543450343
H         6.21167382455944    1.60531734251462   29.42531826746198
H         6.36378256470474    2.39264923646819   27.85285420893146
C         9.76308844196201    1.80797944654709   34.24244511170171
C         8.60880942203593    4.27714060108855   34.67417170859861
C         6.51063232136531    3.71412072350905   32.93432491792286
C         7.74638294480742    1.23177965952570   32.24312941842827
C         7.06399770133975    1.88712415978480   34.94488186933203
B         8.82389272453727    2.84797731651704   29.35280040270085

