43
CSD_code = AYIFAP | q = 0 | S = 0 | Stoichiometry = C12H26N2S2Zn | MND = 4
Zn        3.54149691341370    3.93607938632871   15.62250499273993
S         5.31778748758300    3.79504659803937   14.11313555773289
N         2.73823900302780    5.61717253184998   14.33161949734099
C         4.28770349124749    4.42042155440994   12.72715056488182
C         3.58994686429723    5.72856675770755   13.14346218290001
H         4.37884370386297    6.45928338512660   13.33605749720287
H         3.00150749086752    6.09521418076291   12.29141823488928
C         2.88366018427366    6.76163006721567   15.23518595555890
H         2.80334745910292    7.70794426602735   14.67902775013271
H         2.05088371368224    6.71383842514108   15.93969294894899
C         3.30782910432093    3.33066774762692   12.30943032703164
H         2.67154445955481    3.03214777770582   13.14475870879678
H         3.86357678648159    2.45233000381086   11.98785271404972
H         2.68520771930285    3.66897433853032   11.48076455518487
C         5.23355630108817    4.73338443259097   11.56838143397036
H         5.76298857240150    3.83199830473873   11.27180993960680
H         5.97195417320084    5.47361898337663   11.86773373718723
H         4.67634318093236    5.11368715580172   10.71314050636182
C         1.32837093364038    5.49612354222993   13.96264530660346
H         0.94732625050366    6.43539614019430   13.54245654538829
H         0.74686007779448    5.23533166786058   14.84618365278116
H         1.20023194846531    4.70798077647042   13.22727183875424
S         1.76520033062457    3.79504690518511   17.13187011966664
C         2.79529709201250    4.42042076015613   18.51784631171271
C         3.49305334366412    5.72856791457452   18.10153814897111
N         4.34476144044244    5.61717429070618   16.91338127163175
C         4.19933942013539    6.76163110592498   16.00981444606327
H         4.27965160947846    7.70794542425883   16.56597253141249
H         5.03211596359779    6.71383944077470   15.30530756087479
C         5.75462966330278    5.49612406004948   17.28235389714204
H         6.13567524874589    6.43539665167411   17.70254163687681
H         6.33613927572884    5.23533092691154   16.39881502121255
H         5.88276841288595    4.70798169480855   18.01772779903700
H         2.70415567325839    6.45928362942402   17.90894238515760
H         4.08149279816610    6.09521633060155   18.95358177657904
C         3.77517101747723    3.33066712100485   18.93556899911279
H         4.41145568553060    3.03214794121065   18.10024060864287
H         3.21942357325374    2.45232884134173   19.25714556120459
H         4.39779258266130    3.66897234929048   19.76423529431158
C         1.84944641791851    4.73338369730769   19.67661734004769
H         1.32001525397351    3.83199775597151   19.97319141172545
H         1.11104760932043    5.47361814775662   19.37726704456150
H         2.40666176877626    5.11368698751862   20.53185638601139

