39
CSD_code = AYIFUL | q = 0 | S = 0 | Stoichiometry = C16H14N4O4Zn | MND = 5
Zn        9.09167121056917    7.51777735623263    1.48675536930913
O        11.78128560134307    4.51725601933717    1.74825064075311
O         8.28834432879834    9.43722528496207    1.34556698313341
O         8.78841142411858    8.22909504549635   -0.39553966533583
O         9.09458539521325    8.10005575748167    3.72312973939123
H         8.39106708289650    7.66185239298452    4.20845277872826
H         8.81725568572990    9.01348971659389    3.59383422552283
N         7.27699240547421    6.49076959887053    1.71352088473672
N         9.80921481172271    5.72536423382443    1.64451420997292
N        11.14008193481203    7.99852167375196    1.50858071391420
N        13.90170605962790    8.06196371954208    1.36915785381350
C        11.79357409360848    9.14603500787823    1.40479572944437
H        11.19654479862730   10.04664023485233    1.37864263441207
C        13.18066792788973    9.17229011830585    1.33402090518322
H        13.72909062520113   10.09984391729929    1.24864968144812
C        13.24522676404187    6.92242499375357    1.47331003551440
H        13.82247441084049    6.00914860626523    1.50302815265319
C        11.85080314196898    6.87376000394173    1.54300330599582
C        11.13404864066870    5.55170076302905    1.65633067496621
C         8.88285659548116    4.72535527760376    1.70530155172967
C         9.13497460928362    3.36247040799162    1.73875905452982
H        10.15730980963012    3.02181636336118    1.73036016478201
C         8.08722777203969    2.44073224393996    1.77431877002296
H         8.32523117889011    1.38725260998169    1.79624142580502
C         6.77553410021328    2.84150056465084    1.77548710110904
H         5.97078817825620    2.12194501143919    1.79590033923092
C         6.46455460929869    4.21348480516413    1.74773984207601
C         5.14648561576642    4.71197877530239    1.74283781806890
H         4.31977496456134    4.01585261066239    1.75514465224477
C         4.93275867045312    6.06513459413056    1.72060211808784
H         3.93586065035035    6.47719815410251    1.71275581025082
C         6.03860441200514    6.92429157940780    1.70991062639528
H         5.90631912674490    7.99799161705727    1.70044668700727
C         7.52094105288614    5.16436260541803    1.72128752020452
C         8.34278493870706    9.28372820704505    0.10124844728434
C         7.84722574965353   10.38708172129849   -0.80705909445412
H         8.42078997390678   10.38961423563467   -1.72850630509370
H         7.91633407435331   11.34696858928671   -0.30439770039022
H         6.80499757436356   10.19022558211968   -1.04938368244706

