50
CSD_code = AYIJUN | q = 0 | S = 0 | Stoichiometry = C25H18Cl2N4Zn | MND = 4
Zn        8.67702434307815    6.39528810345024   11.05281605353818
Cl        8.30851374625156    7.53287770594744   12.93644881070940
Cl        7.51335090444148    6.05444075920397    9.25043480372407
N        10.65818200563584    6.90851214603281   10.69042457547686
N         9.55951444736911    4.67705754467681   11.82219823026942
N        11.23208950388442    6.02395123833561   12.80343260900000
N        16.16418739112279    9.95417075837438   24.57074564369985
C        10.93176638724448    7.71322640074765    9.66432401148400
C        11.98476043066450    8.60071581831487    9.65954793421877
C        12.77975174383263    8.66539607658674   10.79896273394056
C        12.51810651927275    7.82263290324866   11.85518572400735
C        11.44397686243577    6.91854828840152   11.77069843774902
C         8.87277192325613    3.53591985686566   11.78456369201071
C         8.99603908661187    2.54782210725252   12.73581040117977
C         9.86717615031135    2.77690133292155   13.79546203469077
C        10.59717225112187    3.94313749599785   13.83124232986239
C        10.44150603097468    4.88967096147997   12.80266541229354
C        11.86104234821834    6.35145546314367   14.05489603494666
C        13.12916362367314    5.87699848733034   14.36929214561077
C        13.69967448790123    6.21525807770179   15.57945408545009
C        13.02727829235808    7.03197457396646   16.49648766971601
C        11.75054465619603    7.49048435813968   16.15730566597990
C        11.17021447818850    7.15631957568520   14.95006006057376
C        13.68634159903536    7.35599926302709   17.74754835346058
C        13.23949887371985    8.21305266667308   18.67783865551993
C        13.89632092706943    8.54812789815118   19.92539108897364
C        15.06084911465300    7.91671192953851   20.37764835932177
C        15.64503843869612    8.27598547501928   21.57179230893993
C        15.07661919544280    9.28453858059786   22.35317145275554
C        13.91317365533602    9.92292941195340   21.91974901417275
C        13.33720908913964    9.55333655341311   20.72472420540439
C        15.67598828559431    9.65443060115099   23.57739711156916
H        10.26012513559776    7.62237023809636    8.82162973236145
H        12.16879082974022    9.23321376177076    8.80740981693851
H        13.60055767752186    9.36407308611479   10.85839760742448
H        13.13151672795314    7.85953888355963   12.73961656743586
H         8.19952698848052    3.43619666993215   10.94405986117570
H         8.42023093154630    1.64030111415705   12.66603783763744
H         9.97914696059046    2.04722529927368   14.58318769456248
H        11.27950318409517    4.12796054862479   14.64370819227060
H        13.65817882309918    5.24858939148529   13.66737028695432
H        14.68586889122454    5.84632912245725   15.82176354422164
H        11.19667794727464    8.11036634349238   16.84327667484827
H        10.18393368204357    7.50733134233725   14.68229212991360
H        14.63080942451303    6.84987284799464   17.89715746808520
H        12.30831218042650    8.73774303277321   18.51182891461662
H        15.51202012722427    7.13093027891083   19.79235382971090
H        16.54304601898287    7.78232691783586   21.91348550292811
H        13.47351208584472   10.70103329886045   22.52609933672775
H        12.43669559110749   10.05042540898971   20.39380535193676

