36
CSD_code = AYIKIC | q = 0 | S = 0 | Stoichiometry = C17H12Cl2N4Zn | MND = 4
Zn        2.27000005287212    3.86327424178286   10.23374878241738
Cl        0.09329907535794    3.75956934787138   10.04821743236812
Cl        3.94699898755969    2.49159161746021   10.65645055306396
N         2.91816205088886    5.19353100171845    8.69209542504223
N         2.75182750780250    5.53718978227209   11.48300679842925
N         4.69457142679852    5.61993128528889   10.17146050937997
N        10.81176391780511    2.77269840294912   10.48884747194360
C         2.04270385365184    5.92661545295987   12.53775962211955
C         2.55148647447745    6.76501116895859   13.51001103676751
C         3.85398573785204    7.22829144258905   13.36615366109858
C         4.58475973663563    6.84407456590448   12.25974128463211
C         3.99699388608685    5.98190023469389   11.33007002370883
C         4.05317382145745    5.83937458301633    8.93790413388686
C         4.58532685662113    6.75617491817081    8.03078221868613
C         3.91890223644773    6.97747117243456    6.83984524202203
C         2.73320447063944    6.29763691293069    6.59560240076635
C         2.26560724055395    5.42288677571391    7.55832471148930
C         5.96772638038536    5.03858475812619   10.23285945733985
C         6.50287043819575    4.64086168515778   11.46031239576600
C         7.74292100138564    4.04681603853974   11.52923729995236
C         8.48260005135235    3.82419926617814   10.36766540526155
C         7.93485533158865    4.17754474201104    9.13558129071887
C         6.69313906347448    4.77238526177044    9.07029238848855
C         9.76374545092994    3.23533055952159   10.43741364193511
H         1.03405070786779    5.54119560850244   12.58545958455691
H         1.94820360149183    7.04942168325563   14.35595502833655
H         4.28713597148198    7.89243289297269   14.09880129218827
H         5.58901970915118    7.20379521235676   12.09831204071129
H         5.49343389888745    7.28646046735799    8.27226453209936
H         4.31045657555270    7.68148042391948    6.12096705641015
H         2.18136801049957    6.44844605351549    5.68260781390306
H         1.33754861787073    4.88257675596726    7.43841975991165
H         5.93018812759346    4.75693350072288   12.36595277927635
H         8.14092161506039    3.73775974911870   12.48385185872235
H         8.48388557912175    3.97519371723718    8.22808745514235
H         6.27976253460011    4.99985871705326    8.10063761145784

