37
CSD_code = AYIKUO | q = 0 | S = 0 | Stoichiometry = C16H12Cl2N4O2Zn | MND = 4
Zn        2.44778034147429    8.80272780035414    2.07517036682866
Cl        4.15155299460462   10.14151008434600    1.65248235202809
Cl        0.27396118983784    8.90402824385216    2.27697406108077
O        10.53305589652245    9.55259260605257    2.88689252259014
O        10.38304861535929    9.63923933706141    0.74424950190165
N         3.09588375519068    7.44355467873780    3.59977760978972
N         2.90640022060754    7.12891259244160    0.80371453045274
N         4.85660370230817    7.01798885699996    2.10181251667586
N         9.93972655718358    9.37234651840123    1.84253847656517
C         2.44507311701149    7.20488238917717    4.73235380748029
H         1.52754063591395    7.75956016214402    4.86785998916616
C         2.90185316417497    6.30272649572060    5.67551129912110
H         2.35117749341155    6.14336620467584    6.58790119073249
C         4.07454051756060    5.60784409735952    5.41322821203070
H         4.45809734025260    4.88517356387891    6.11744399928058
C         4.73974636534950    5.84078644121449    4.22293031614242
H         5.63998684397927    5.30320089946560    3.96855526236744
C         4.21763670557625    6.78256373512208    3.33746102150013
C         4.14667232707539    6.66881226120257    0.94264763156657
C         4.71910837476347    5.80754995141802    0.00443876247283
H         5.72108167572454    5.43725707473454    0.15494378747797
C         3.97552236203542    5.43987896601646   -1.10020194687064
H         4.39654259693167    4.77813874948609   -1.84178738333882
C         2.67768817976334    5.91847752732959   -1.23046322575511
H         2.06471097406864    5.64701287155555   -2.07387278686903
C         2.18503007711930    6.75596445535465   -0.24830099874560
H         1.18031609906669    7.15267922597153   -0.28553538391422
C         6.12011781266938    7.60058631101173    2.04096869247142
C         6.84884077289961    7.85624436438468    3.20783580587473
H         6.43246644284708    7.62540616063103    4.17482552140365
C         8.09341342073441    8.44053921074359    3.14377194715968
H         8.65952994985254    8.64002214593477    4.04059252956988
C         8.63299928334445    8.78738561414025    1.91074676676450
C         7.89987528422599    8.58598274116672    0.74595030253194
H         8.31405143174378    8.90439859628676   -0.19812685572446
C         6.65678515636647    8.00174512015297    0.81180976537128
H         6.07998232244920    7.89571394547360   -0.09179996718056

