64
CSD_code = AYIMAX | q = 0 | S = 0 | Stoichiometry = C31H28N2NiO2 | MND = 4
Ni        1.68581612325749    8.17873856223300   16.05788536907102
O         3.50665022969311    8.39398400169448   16.16792027100820
O         1.68334201183205    8.21661090637609   17.90742734956343
N         1.81359932221536    7.69624672282513   14.21387232890681
N        -0.20555855450358    8.37572457845018   16.04008844741132
C         4.38230876690397    8.51061811372333   15.24282355129214
C         5.68389836526764    8.95522683824710   15.60049295065243
H         5.84684771471957    9.19314609449262   16.64033591502470
C         6.67817394376884    9.08320177369639   14.67291658379653
H         7.65573815374095    9.43081326937868   14.97540357543211
C         6.44320027710539    8.76625868880728   13.33019190477258
H         7.23386443349941    8.87177758405839   12.60311914909108
C         5.20745076624704    8.31934381472470   12.94664394262314
H         5.03221681326172    8.07493763290292   11.90913382950282
C         4.15150596523575    8.18607568851963   13.86907440922310
C         2.87548433297411    7.67225548893064   13.46179735671790
C         2.85748034472294    7.01877831039127   12.11938717220557
C         2.63418226122864    7.75085564843422   10.95897257658481
H         2.45587367776413    8.81406394139423   11.02201784365849
C         2.65530351927088    7.12262504695014    9.72599505229449
H         2.48103996815471    7.69884397131444    8.82924026389991
C         2.90392529652562    5.76316330501337    9.64071140729886
H         2.92104905300564    5.27564319359097    8.67743484884674
C         3.13895350232026    5.03189751961763   10.79320101457691
H         3.34177977186473    3.97307184827134   10.73117086835982
C         3.11869409958951    5.65535768814698   12.02786168370201
H         3.30601493847494    5.09009448613280   12.92920887546985
C         0.59534891149848    7.06302600158522   13.72959825243913
H         0.30458624560256    6.29490738379257   14.45677724238463
H         0.76210657905999    6.57057076141037   12.76547466133501
C        -0.57247000647251    8.05572736338483   13.57023870574567
C        -0.65928311076127    8.98829438206231   14.79874280865316
H        -0.01505647497102    9.85850104375165   14.62034203083299
H        -1.69006103090603    9.34685305031058   14.89169614026173
C        -1.03958143860093    8.24332583553242   17.02810632967189
C        -2.48385663836540    8.58688589509657   16.87926211636581
C        -3.41396471614398    7.60755607891627   16.55046581589142
H        -3.08636477837868    6.58953713714061   16.39613888554876
C        -4.75535995767486    7.92976689309427   16.44287377176654
H        -5.47123734217370    7.16271412872789   16.18682862599929
C        -5.17870073005311    9.22863956171858   16.66818025284961
H        -6.22582616927567    9.47830108955074   16.58422473878230
C        -4.25765043387802   10.20466477332104   17.01072440224995
H        -4.58513901889050   11.21663294561831   17.19714557214575
C        -2.91556918847460    9.88688902442173   17.11946050717879
H        -2.19438441647196   10.64366659639156   17.39194312343761
C        -0.64292106069787    7.83757056234085   18.34614452632558
C        -1.59676112741925    7.48312609011270   19.31811725621291
H        -2.63940477392003    7.43918469153198   19.03842252440948
C        -1.23126014692629    7.17721885626840   20.60182077219883
H        -1.97763243326378    6.89426261724492   21.32820320981672
C         0.11742522703461    7.23945282529390   20.96943436590374
H         0.40386577358862    7.00670890248868   21.98522129817041
C         1.07197242014821    7.58924566334755   20.05686612949420
H         2.11634198063019    7.64005470449467   20.32350321575621
C         0.74103744612576    7.88598313880865   18.70710532279529
C        -0.36229881508633    8.91920565758361   12.32555078830991
H        -0.34362131470352    8.30198319258893   11.42996150871359
H         0.57833233044471    9.46021340604737   12.39489159959587
H        -1.16870252938117    9.64290415030086   12.22838577020267
C        -1.86255500554115    7.24865028843277   13.41945441668151
H        -2.04661943114172    6.64977781666709   14.30690076255421
H        -1.79173284095023    6.58072081853161   12.56360540669845
H        -2.71243708174661    7.91052195376308   13.26885860162953

