80
CSD_code = AYIQAA | q = 0 | S = 0 | Stoichiometry = C32H42Cl2N2ORu | MND = 9
Ru       -2.98298318802369    6.31875094274586    8.22465642666699
Cl       -4.89563681593637    5.39709847119722    9.27070693055146
Cl       -1.81211526035526    5.58678032779501   10.15351849177421
O        -5.50818681895650    1.83212704678386    6.34854460410062
N        -3.53500885729576    4.09178774567564    6.29198295398096
N        -1.44079017444629    4.17288562785193    6.84348753463794
C        -2.92935666590522    3.11432894040395    5.39586507298891
H        -3.06153028733423    3.44092349963366    4.35817239307032
H        -3.41793576275050    2.14568633080412    5.51743767910035
C        -1.46699351536721    3.12271208582374    5.83236289386215
H        -1.15108839294674    2.17038508066274    6.27122599227107
H        -0.77751811876113    3.37175762824663    5.01883084724728
C        -2.66060679610462    4.65161631481933    7.13323891148268
C        -0.27448978018442    4.24743440278901    7.68616249903085
H        -0.37872658967779    5.12929846399293    8.32590680933961
H         0.61165828932041    4.35056480250001    7.05168706852057
C        -0.16129545385722    3.02479122282588    8.56762166822347
C        -1.31611124653915    2.48953890701378    9.12381505766589
H        -2.26157485014487    2.99287471541572    8.96304365067854
C        -1.26583102132266    1.34679179416026    9.89919132638988
H        -2.17097640923330    0.95107073135348   10.33473809021425
C        -0.05224492551614    0.71610408198619   10.11779498604072
H        -0.00536705161553   -0.18185557601687   10.71637242989392
C         1.10399981627056    1.24891246231452    9.58159864075535
H         2.05791983978372    0.77779580704491    9.77215897872344
C         1.06795054550884    2.41159440594846    8.81582386654529
C         2.33654601101200    2.97519177910129    8.31798138067832
C         2.68783272550916    4.29000408426097    8.61440468923564
H         2.01826584439133    4.89149820073842    9.21099640619898
C         3.89214177574204    4.80866253544594    8.17571821074328
H         4.15795852575099    5.82780201528293    8.41736031652610
C         4.76015085765222    4.02462780816903    7.43342963255710
H         5.70039808975934    4.43125433497716    7.09060664304860
C         4.42116191112412    2.71484904271772    7.13856317274525
H         5.09709440540084    2.09817885591301    6.56365350513662
C         3.21958466401154    2.19171561169285    7.58133079809215
H         2.95410932580431    1.17019210789680    7.34800787698456
C        -3.34135125536612    7.58357905712841    6.37570931944467
C        -1.93073923700006    7.62215290979326    6.66725359720967
C        -1.49226021353011    7.99548973163207    7.95508865762703
C        -2.43974339925867    8.46483403672891    8.93000986396435
C        -3.81256156109578    8.40964040447852    8.65184694465082
C        -4.27337661073553    7.98338742045676    7.35703339705851
C        -3.77609203540400    7.21522944714455    4.97866410223823
H        -4.77584438855006    6.79304636619328    4.96836216221958
H        -3.10739417500661    6.47394045820792    4.54945284075527
H        -3.76830848188374    8.10044437930483    4.33865035970882
C        -0.94870673445426    7.39501990475527    5.54377558112717
H        -1.31758734332471    7.85781998772322    4.63040510478136
H        -0.79526190099148    6.33292862086793    5.35295605575631
H         0.01446515902209    7.84260794474280    5.76982588297969
C        -0.03140256082899    7.99170921574004    8.32073449528232
H         0.54451002333770    7.34218514596874    7.66779501634593
H         0.08538561553210    7.62003387469688    9.33735739426953
H         0.38444898857626    8.99988245038463    8.26590226909596
C        -1.92227235021934    9.02842592622531   10.22453992145095
H        -2.63119526957441    9.72180810429256   10.66785984202541
H        -0.98827933788082    9.56119631400502   10.06258402844947
H        -1.73373447940649    8.21836617359719   10.93297838151890
C        -4.83240766878574    8.82034704216379    9.67984530806594
H        -4.43244502066606    8.73438431934476   10.68573209574236
H        -5.69990663228388    8.16619336823737    9.62782414357011
H        -5.15669618946227    9.84998395102598    9.51356675796790
C        -5.74848318177135    8.07469678764002    7.07387547330227
H        -6.13278810447870    9.03142335686532    7.42414724306783
H        -6.28054109923896    7.28305786828247    7.60530055507372
H        -5.97172737104882    7.99300052999738    6.01526998465891
C        -4.96864706856497    4.18132180781022    6.32855976337425
H        -5.34774913348050    4.17244201931680    5.30268781303559
H        -5.24751051428225    5.10551078477596    6.83662209037591
C        -5.59491380453911    3.02089819778025    7.10554701117557
H        -5.07542579056757    2.91128191468139    8.06666861686858
H        -6.64686142341428    3.25856175045637    7.31713402409458
C        -6.06057365209774    0.71715524827385    7.01385966475623
H        -7.12253371487065    0.90649395510528    7.23494983720240
H        -5.54044720665128    0.56058782141811    7.97155669652226
C        -5.91496756991986   -0.50563507007922    6.12257850343744
H        -6.41680057786675   -0.33350524542922    5.17428160981216
H        -6.35548862599084   -1.37170174836014    6.60792433601932
H        -4.86418874668488   -0.70315917333338    5.92768481816921

