51
CSD_code = AYIRUV | q = 0 | S = 0 | Stoichiometry = C12H28B9RhS | MND = 9
Rh        5.86982239035776    4.17336040519545   10.83255765096212
S         3.54731677231402    3.80033107882410   13.27388849292604
C         6.98358268122262    6.18491678115350   11.46407819948985
H         7.97644698581699    6.04128077616077   11.04360721023466
C         5.87027037949186    6.58544133731628   10.50822200796476
H         6.11836015100065    6.66857490952256    9.45254430169237
C         2.64001867419856    4.54863801575194   14.67908959816542
H         2.18725403528400    3.75887446059730   15.26939420457989
H         1.86939352222693    5.18646064759309   14.26211005041740
H         3.32125688404949    5.14409202513531   15.27644082163443
C         4.70395385767133    2.80504851488369   14.26823168779804
H         5.28415913382247    3.45629532085603   14.91297635771696
H         5.36083946401360    2.29579199321027   13.57171762874882
H         4.14243832570688    2.08119795191053   14.85104548585940
C         5.28361347587137    3.43313458646593    8.90790300644735
H         4.83016466044551    4.24470575242155    8.34207013326021
C         4.49811605033917    2.84761599738892    9.91073877287527
H         3.47607602260515    3.20609437736096   10.01835823220130
C         4.67152809055081    1.42032791713725   10.38383514074962
H         4.32567006593602    0.73285911625623    9.60365786468043
H         4.02351700277275    1.27220384458502   11.25123920989538
C         6.12383002134412    1.09069175391346   10.77329784595796
H         6.11838907307399    0.36339532294948   11.58887197950095
H         6.64264763364989    0.62239010273697    9.93543354516180
C         6.89942766822200    2.32089242375281   11.20236516543592
H         7.27416174796313    2.27909624624183   12.22313839722411
C         7.63644440299564    3.10141451215978   10.30402005123798
H         8.51729419800520    3.60346614491654   10.70605597981438
C         7.73465400397300    2.83848398235409    8.81754431535130
H         8.25035917864389    3.68477035784465    8.35671284073856
H         8.35554092991680    1.95135328457982    8.64172083437257
C         6.35729545206837    2.67205532123729    8.15741862181215
H         6.08215027432183    1.61726115556902    8.10980809218963
H         6.40710753995670    3.03631108172952    7.12886904146360
B         6.42009139698241    5.22795784568964   12.74657024532958
H         7.18544164572975    4.53593756310162   13.33710679197629
B         6.86419207263471    6.96082975948637   12.96136576845905
H         7.85833989662409    7.20419294250031   13.54645659206330
B         6.48368717799528    7.85506959030991   11.49242186005735
H         7.19000608963962    8.64688841023132   10.98573743917032
B         4.42863058318119    5.87240752455103   11.01031935466413
H         3.54706692403209    5.70491906937107   10.23357209231918
B         4.70140720428289    5.19007732103948   12.59022572119824
B         5.35712712683508    6.40598988115678   13.68781471356051
H         5.24076259152327    6.31281771441547   14.86499654219873
B         5.37493386872723    7.96098218140927   12.84430465654374
H         5.22343661947667    8.98049010008517   13.41550675262660
B         4.76803027658279    7.65880951914498   11.18929160493304
H         4.20142288607077    8.40150419346521   10.47187590452207
B         4.04425702071594    6.81415591258729   12.56221167347720
H         2.92656586913416    7.03174297174191   12.88385951834140

