52
CSD_code = AYISEH | q = 0 | S = 0 | Stoichiometry = C20H24N2O5Zn | MND = 5
Zn        5.93817244330461    4.35800787412823    1.46717011243993
N         4.94415123762545    2.67970173703600    0.97918159625834
N         6.58836154466079    3.17067060308110    2.99049298379390
O         4.56463405440938    5.39000492261283    0.69531970152029
O         7.16820333877977    5.68324355344818    2.03817191507040
O         3.17397515422667    7.32862244580128   -0.31086708915095
O         8.54305921071449    7.86882558845902    2.23729201025607
O         7.03041289544599    4.72468231054246   -0.44683161377423
C         3.04838727995091    3.69888049731845   -0.08106993589977
C         3.48841960296700    5.04050125026189    0.08909790215433
C         2.65958722256153    6.07818885386740   -0.47236114322199
C         1.48433191371511    5.77758779680163   -1.11261549071654
H         0.86526122659803    6.55805661054487   -1.52774694110716
C         1.06253862484337    4.44584321160165   -1.24331598188257
H         0.13179995019858    4.23705832774776   -1.74808274070186
C         1.82729858991665    3.43489910257270   -0.74244601738758
H         1.51262756591610    2.40639879301612   -0.84945793149706
C         3.79004394632216    2.59928036484033    0.42386430494693
H         3.31918144811507    1.61314179778358    0.32044114756236
C         5.57536268770506    1.52477774840429    1.54865675399415
H         6.48739108690102    1.31708921368428    0.98037826144269
H         4.92565815724241    0.63948922823192    1.52919438540216
C         5.96273246393955    1.87443835218908    2.99212546778491
H         5.04777066882832    1.92455840772097    3.59646840279034
H         6.61888076923750    1.10264974799276    3.41426127024291
C         7.45901959081262    3.46848234541505    3.88889090144896
H         7.70913797794864    2.71824715767910    4.64959105648851
C         8.15269130330269    4.70088279604198    3.98854547272258
C         7.96758543903880    5.74199040955937    3.03884751026064
C         8.75544498702470    6.93656124007828    3.20860355015335
C         9.62058600128321    7.06856017259030    4.26421963868752
H        10.20223010978776    7.96836844721002    4.39404390945581
C         9.77330680206487    6.03004963367776    5.19588655011227
H        10.46228218517718    6.15898858418186    6.01649324109392
C         9.06239256315986    4.87557679145197    5.05676549896696
H         9.18107598439534    4.07084750620901    5.76853472686215
C         2.45019720588193    8.43338839306834   -0.80181561197861
H         1.46227570381368    8.48617113582817   -0.32099527016991
H         2.30296122688583    8.34050697929653   -1.88849309669202
C         3.25576193896054    9.68480507936977   -0.48695817894598
H         3.40330318134758    9.76535170359500    0.58608930035753
H         2.73230631308960   10.56634023176442   -0.84676088957315
H         4.23015506056376    9.62524455413222   -0.96369353904509
C         9.13129969382194    9.14228383120363    2.37755874453979
H        10.22782307557011    9.06410513026610    2.32849762013116
H         8.85722939609762    9.58128188414694    3.34772313784899
C         8.61569403788054   10.01390467120528    1.24237524235613
H         8.90872142931720    9.59006027020330    0.28588264662591
H         9.02199491825069   11.01783900147783    1.32922356416655
H         7.53105774086633   10.05893698836574    1.28148341132728
H         6.31732227433851    5.23897021793500   -0.84455141886175
H         7.59240077524636    5.39015650436522   -0.02530904867710

