93
CSD_code = AYITAD | q = 1 | S = 0 | Stoichiometry = C40H47N2OsP2Si(1+) | MND = 6
C        10.65723331685183   12.21774057906264   18.41874227962353
C        11.50740793881043   13.07331794661180   17.71671074357284
H        11.97376937748269   13.90593512070809   18.22703593537425
C        11.78298924905604   12.87263626289277   16.37398830020791
H        12.44991682001597   13.54946357486168   15.86142332368430
C        11.20910392463667   11.81383386221365   15.69234257265379
H        11.42103055529517   11.65632803223798   14.64588689720669
C        10.36385656405974   10.95570508671115   16.36922990719280
H         9.90827407232806   10.12157484567717   15.85505105090394
C        10.09202067391727   11.15800700203508   17.71449875244397
H         9.42108628299745   10.45691094545389   18.19847043777649
C        11.05582436454716   10.78621204794059   20.97502037729511
H        10.42596042230142   10.33163153773072   21.75017316724405
H        11.04166448647216   10.10591208934787   20.11702398835040
C        13.38176065060893    9.09804663678437   22.09880159346601
H        13.37574842496875    8.43409907698089   21.24055570189259
H        12.72572079163968    8.67090174051969   22.85125019907427
H        14.38760504791619    9.09606685585128   22.50368090878009
C        13.95144297790926   11.55724763887871   20.21297960302863
H        13.94019193108761   10.90646727472757   19.34408062979902
H        14.98345470247589   11.67357799425380   20.52649123495192
H        13.58001237562282   12.52940520934865   19.90051986142053
C        12.92357626821737   12.00305764850683   23.15750444335849
H        13.92193300272782   12.40098702222995   23.30382593010757
H        12.65234536891160   11.47649594896360   24.06792414592877
H        12.24938724323827   12.84823799807594   23.03355231121678
C         7.06938507845889   13.55322127509939   21.99573947671871
H         6.48566152646848   12.76100490862533   21.50944353326023
C         6.30661418770899   14.05088301258795   23.21972882342328
H         6.78783307057644   14.92941802955816   23.64513885385376
H         6.26397368232362   13.27926589674469   23.98675946390436
H         5.28432249638520   14.31064006542823   22.95241518476659
C         7.34231597481678   14.67376408157914   20.97741600864569
H         8.05376650965147   15.37998263422646   21.44254782881507
C         6.10423862785357   15.46300074883779   20.56130823983434
H         5.31877558424254   14.81729325702852   20.17642152542454
H         6.36589193829950   16.18358946006766   19.78821791381488
H         5.70868764012643   16.01898842784294   21.40814523241616
C         7.59346994317592   10.06542532233326   20.23175129350243
C         6.95705035467238    8.79543784871595   20.16719399091801
H         7.50078672339256    8.14921311684682   19.47658305740521
H         5.93071931847727    8.91154947009979   19.81653406128941
H         6.95580367391915    8.34076625889926   21.15906298900336
C         9.32884581260381   13.89876959275361   23.75395220577992
C         8.93812830545872   13.78963265354076   25.08670372282796
H         8.27467016521533   12.99634140660311   25.40019206592881
C         9.41339212500345   14.69404004823951   26.01823904099123
H         9.11081122323629   14.60379202908960   27.05045822676327
C        10.27460689610101   15.70927968305123   25.63296785286646
H        10.64278957321966   16.40980610466388   26.36639729568967
C        10.67440589294282   15.81463956044504   24.31075890780356
H        11.35803185990332   16.59340206580404   24.01006096760071
C        10.20744568411426   14.90951728668843   23.37512263066823
H        10.54917454949999   14.95838842173655   22.34569955563258
C         8.27885997807586   11.28383431821637   23.41344774851488
C         7.05049367965802   10.63369370467469   23.36709430926927
H         6.22854360385705   11.03856775506459   22.79349761836664
C         6.86467234854059    9.45725474023054   24.07430633910467
H         5.90281556604196    8.96571252690797   24.04919239571819
C         7.90076897573429    8.91330004839718   24.81496046871839
H         7.74785503836425    7.99618930618001   25.36252441997717
C         9.13302783388639    9.54851437583423   24.85100203280102
H         9.94389340094393    9.12578895025522   25.42393668329897
C         9.32345897359713   10.72431759252013   24.15170514840926
H        10.28069736667874   11.22847543470195   24.17090758655364
C         8.83783431664395   15.56573077985412   18.72558067403845
C         8.03280136658929   16.22493728897018   17.79902913304582
H         7.09171275937330   15.79381337538238   17.48626562811976
C         8.44999950283732   17.42972797095632   17.26312928578871
H         7.82562031955802   17.93715841779319   16.54346037519209
C         9.66179745614051   17.98310814363196   17.64481695224807
H         9.98120686512213   18.92208596794807   17.21983055739075
C        10.46661325390220   17.32690876644413   18.56229240199060
H        11.41510280387173   17.75135413058064   18.85311813501677
C        10.05817457392596   16.12020619995134   19.10006363140523
H        10.69124247885626   15.58351387829314   19.79977969613544
C         7.21751771446959   13.26114857689299   18.29723540918589
C         7.72764566242375   13.17806281448311   16.99959121424063
H         8.68302523330800   13.63255846334399   16.77211780730913
C         7.01700107803528   12.52585231936357   16.01130077703795
H         7.41880053845194   12.47228960235449   15.01128832119472
C         5.79553728394244   11.94006693539741   16.30549606655710
H         5.23769543508425   11.43270445392180   15.53359946906893
C         5.29253813163210   12.00370761564875   17.59414310572800
H         4.34091046574770   11.54788082873091   17.82611475778627
C         6.00259523913170   12.65013049177221   18.59079337084916
H         5.59709409681259   12.67582621877753   19.59191792069752
N        11.37558928207711   13.60486495053660   20.73190835127619
N         8.10759484713289   11.09007815196013   20.28461109958889
Os       10.09208869210655   12.60364477137074   20.40441268602069
P         8.70981217310522   12.76931721093218   22.46336354929802
P         8.32319352910849   14.01474987764135   19.52308035469964
Si       12.86365288329444   10.87207039836814   21.61636027223127

