45
CSD_code = AYIYOX | q = 0 | S = 0 | Stoichiometry = C16H18O10Zn | MND = 6
Zn       -0.43138837004165    4.38018750789941    3.13168092800124
O         1.56005827351629    4.16791213314007    3.36731360818094
O         0.42779394846137    3.22545431403992    1.77090425896329
O         4.09605510835351    3.67451366875063    3.63945903054548
O        -0.37484151905225    5.97400678498263    4.62815535687015
O         3.55330099926742    0.26023039330302   -0.65825714991132
C         1.51566650531277    3.37538993406695    2.37495973358518
C         2.72465094518750    2.66319201488759    1.93375078773071
C         3.95436951773937    2.84799945164616    2.59113592176003
C         5.06413968066811    2.14433160176673    2.12928903467671
H         6.00589926562728    2.28906001049286    2.63455716152216
C         4.97004574741850    1.27994699104779    1.05722974399508
H         5.85638365376931    0.75518202516801    0.73741186155276
C         2.63791907412593    1.78921018393569    0.85389857339930
H         1.68742477058367    1.65201331194589    0.36470944571815
C         3.75050800251267    1.09118249032874    0.40652000225190
C         4.64260938357258   -0.49352328456372   -1.13053106302577
H         5.45051321726532    0.14888526649551   -1.49661814337593
H         4.25310646710248   -1.08529001776492   -1.95749136977224
H         5.03311776428886   -1.16554141782957   -0.35916496686273
H         3.20625669026000    4.05510323850844    3.82311028791498
H        -0.46950565130475    5.48181470739512    5.45158812894866
H         0.53203492067861    6.29781317682696    4.60491304479121
O        -2.42291426693753    4.16770832356182    2.89659713452738
O        -1.29031796643983    3.22332122224423    4.49168177273192
O        -4.95846092600696    3.67190469101454    2.62248262818641
O        -0.48874989115848    5.97844289915388    1.64126802610706
O        -4.41621852351414    0.26075610684875    6.92276577809703
C        -2.37828450944903    3.37404282407050    3.88802130202891
C        -3.58726898761884    2.66166501844377    4.32900795439161
C        -4.81687345179991    2.84594915669467    3.67127771570834
C        -5.92664810982499    2.14239612929017    4.13330433561738
H        -6.86831129846354    2.28663269587188    3.62770785168770
C        -5.83273912526220    1.27886798092706    5.20608394429576
H        -6.71910774701711    0.75428468687576    5.52611308425645
C        -3.50067280055687    1.78836698552070    5.40941093102675
H        -2.55024886258011    1.65148986714496    5.89883522506527
C        -4.61333098230422    1.09070782199768    5.85720224903184
C        -5.50618037189034   -0.49056714987014    7.39738502157247
H        -6.31296555099988    0.15373719831245    7.76259646630409
H        -5.11688088166449   -1.08102498815196    8.22537681871329
H        -5.89811695077919   -1.16378108900628    6.62780181223219
H        -4.06884497050498    4.05298080258503    2.43908328188515
H        -0.40139871880498    5.48977798221945    0.81503959218171
H        -1.39328350174046    6.30826634777286    1.67083285687943

