93
CSD_code = AYOBAS | q = 0 | S = 0 | Stoichiometry = C50H39ClNiP2 | MND = 4
Ni        6.60682196122989    8.19107379853079   -1.17719682355235
Cl        5.79275603007847    9.77085878297400    0.00799763911281
P         7.41970433811800    7.12414439655796    0.51808228051037
P         5.79498141738133    9.03498376363377   -2.97966518447314
C         7.41878272740027    6.92564825656894   -2.29952239681766
C         8.66814071400507    7.07505010472253   -2.80985976218358
H         9.26537188487293    7.95576078554826   -2.59635992551558
C         9.25483271827488    6.07773131112436   -3.64391920327474
C        10.55048037912907    6.26044948119040   -4.15306161199304
H        11.08293403659423    7.16766495515193   -3.90134602974337
C        11.13508341077732    5.31292007489494   -4.95309188906005
H        12.13285025140309    5.46251407958154   -5.33973070634392
C        10.43404661526323    4.14859792192755   -5.26761308348821
H        10.89410889225604    3.40038574383114   -5.89696297531723
C         9.16457712300904    3.95055518502813   -4.78178306953139
H         8.64722528900410    3.04021304034708   -5.04203225638756
C         8.53784053930371    4.90060798636347   -3.96166611917841
C         7.20776088986854    4.73155850516226   -3.43308655730906
C         6.40774820999722    3.60862438626446   -3.69104929098563
H         6.78351716262663    2.81322129598616   -4.31588692290572
C         5.14406314475544    3.48918924964981   -3.16753980654295
H         4.55222405267893    2.61193643200254   -3.38613449771436
C         4.61616505549843    4.49197367652276   -2.35455681239047
H         3.62124806945340    4.38870320710151   -1.94624893241191
C         5.37554767874985    5.59875780237075   -2.08577773683132
H         4.99257517143981    6.40160432837109   -1.44989022176318
C         6.66867446229043    5.74567284205545   -2.61055727191663
C         4.23394695491856    9.96132857202422   -2.81158535133426
C         3.22515317109997    9.35984219267782   -2.06356486979809
H         3.41160615137931    8.39785047766167   -1.60186070294726
C         2.01207955302799    9.99454654434994   -1.88445787864486
H         1.23519130194186    9.52279325288177   -1.30037255051708
C         1.80021962231549   11.24490270576751   -2.44279044716930
H         0.85575276657520   11.74851173943079   -2.29768023683220
C         2.80665752792363   11.85591092107076   -3.17041773451369
H         2.64838287709057   12.83841750517675   -3.59125083355811
C         4.02270171525662   11.22051336702788   -3.35554245208445
H         4.80803038131208   11.71376943379629   -3.90942699226727
C         6.98874304319317   10.23971115915169   -3.62331202590478
C         8.01135989257325   10.63273134181336   -2.76781222426727
H         8.04901474157104   10.20331463802160   -1.76832764838342
C         8.95729513998294   11.55153622653543   -3.18310296764722
H         9.75078677351109   11.85398490482735   -2.51522585361574
C         8.88393746605887   12.08129832795003   -4.46087710177977
H         9.61938741618003   12.80044376295445   -4.79085653681719
C         7.87114428108147   11.68660782037696   -5.32184000498654
H         7.82088469248460   12.09851815759090   -6.31955647298581
C         6.92450735831543   10.76631621696539   -4.91010015774594
H         6.14293052267743   10.44576836465097   -5.58602987572063
C         5.47034386403584    7.97990873729415   -4.43230782856306
C         4.21918158249047    7.41063333881631   -4.64040110455758
H         3.38638141972698    7.69822252892928   -4.01403419558622
C         4.03472933769571    6.47904209000670   -5.64593524798092
H         3.05875274884227    6.04171911831174   -5.79877972611490
C         5.09796175395957    6.09833192158579   -6.44628729920178
H         4.95514370964130    5.35984307143601   -7.22120395190416
C         6.34577825317952    6.66707902262347   -6.25014342821807
H         7.18016352334319    6.37413253829731   -6.87068637389771
C         6.53222780694269    7.60070464180184   -5.24961274911868
H         7.51034879783258    8.03277314879819   -5.09233178969427
C         8.97582160136137    5.00577815275911   -0.40753728127251
H         9.70943618974161    5.76470325238336   -0.64132239641397
C         9.19472469233446    3.69521487439210   -0.78418622056270
H        10.10093382052821    3.43281162337690   -1.31060426844818
C         8.24618693802227    2.72490651548517   -0.50395853206517
H         8.41179951925875    1.70264637987454   -0.81027022883986
C         7.08486966818695    3.06893574590148    0.16595262750522
H         6.34370679876999    2.31459064017124    0.38659509061988
C         6.86147186890790    4.38122001458945    0.54169106404480
H         5.94672336662416    4.64950030229071    1.05234754444314
C         7.80637458015243    5.36129284795677    0.26028703510079
C         8.97090782418045    7.80523323704593    1.18023963438353
C         9.92151132967971    7.02683797495494    1.83481933233973
H         9.76961304090245    5.96147278057734    1.94225417595696
C        11.06507523891690    7.61674991819719    2.34208866530413
H        11.80041316549876    7.00907791379483    2.84991447586262
C        11.26899848892703    8.98062460353315    2.20420246741818
H        12.16502898485129    9.43404438750389    2.60241731525045
C        10.32270482920699    9.75990898878376    1.55973333109522
H        10.47639569591958   10.82422908955704    1.45685604137229
C         9.17817968549557    9.17441531412505    1.05030415627831
H         8.42246140444552    9.77660066485173    0.56153621047431
C         6.34972361549282    7.05978630440539    1.99514033058085
C         6.86033901716032    6.92247154124765    3.27997564128307
H         7.92829953620537    6.88176402226056    3.43870165832850
C         5.99896986566351    6.85193996642790    4.36024291262338
H         6.39997670014127    6.75152885570777    5.35857092229748
C         4.62876401839773    6.91567550662046    4.16780674757075
H         3.96171430487935    6.86534561173670    5.01598255200494
C         4.11556917603674    7.05410015654016    2.88885356210923
H         3.04770018597056    7.11338753146250    2.73668994624780
C         4.97349268141549    7.12740018877173    1.80802647267802
H         4.58252379305796    7.26399590824587    0.80742279658347

