89
CSD_code = AYOBIA | q = 1 | S = 0 | Stoichiometry = C35H50N2ORh(1+) | MND = 6
Rh        0.64882772033063    2.57787345612837    3.26152414386609
O         0.44313848182468    4.06397641093104    5.09181617489304
H        -0.14734874363298    4.79489378749894    4.87803134975771
H         0.15280923696582    3.68306681988938    5.92796642075728
N         3.05953838053783    4.36383184038770    2.48392884288899
N         3.38811661439468    2.87544769417918    4.00611375607561
C         2.49484272823050    3.29864337119191    3.08356617910058
C         4.29067163797907    4.61557742424420    3.03881032699374
H         4.90481491258932    5.42706643404036    2.70841707019034
C         4.49572419641058    3.68108881608549    3.99489330538161
H         5.32521633540908    3.53159511760574    4.65414532890634
C         3.24828257068594    1.64299052868916    4.71999238587106
C         2.84439779425752    1.63822755482011    6.05969722159190
C         2.69353987561094    0.41158851229834    6.69638616082138
H         2.38248064137074    0.38066011856875    7.72776282942309
C         2.95504933991290   -0.77003616949624    6.03279550798923
H         2.82523787019811   -1.71326307617137    6.54077441910145
C         3.42536405235255   -0.74563698780411    4.73341933426420
H         3.67921907065007   -1.67340939591187    4.24870442067790
C         3.59388876497693    0.45419320563872    4.05618183848002
C         4.24831761923688    0.47600418438567    2.69274379096170
H         3.88002151015591    1.34275395236487    2.13471130622493
C         3.96894337169620   -0.77685705348703    1.86124304178680
H         4.55749748059202   -1.61888797022495    2.21534789808351
H         4.24361050890853   -0.59673099095136    0.82453657739467
H         2.91779960642042   -1.05012400547896    1.89641533455969
C         5.76346050768588    0.63368178878502    2.87557202145439
H         6.00935943208801    1.56765653772899    3.37437011289307
H         6.25621556438915    0.62352329686178    1.90637182788916
H         6.15731557479520   -0.18657702980418    3.47098410369722
C         2.67652426555473    2.91734708870141    6.84600353025205
H         2.51866716520070    3.74481842932548    6.14790117643495
C         1.49511509103599    2.85398280837087    7.82196708619485
H         0.63643362353753    2.34834996683533    7.38014412740445
H         1.20669732826439    3.85716432138184    8.12890334756191
H         1.76801833622975    2.30809987550738    8.72127695494820
C         3.96592112859059    3.19362836383221    7.62796751870403
H         4.17959896677362    2.37274413330548    8.30832971227102
H         3.86029911776486    4.10639202985930    8.20910251592731
H         4.81519404187744    3.30912577812125    6.95986162790176
C         2.58891923127128    5.02215504752566    1.30897764127655
C         1.61062702240585    6.01254094523723    1.40054859769211
C         1.19190866746868    6.63418755313008    0.23089356501528
H         0.43699315832443    7.40276040145308    0.27500161428092
C         1.73660481707348    6.28977425038302   -0.99012524621654
H         1.40460034848378    6.78647212619366   -1.88844089101770
C         2.71072902862155    5.31314109680249   -1.06187190250184
H         3.13311489310957    5.05586172664364   -2.01975612681264
C         3.15653471380651    4.66169419105475    0.08058066826404
C         4.22861320906818    3.60268055457917   -0.03890351943970
H         4.43614612537846    3.17695550349484    0.94692911876470
C         3.77101173760851    2.46054666732118   -0.94975227441456
H         3.61176227250257    2.80978760410250   -1.96560419898152
H         2.84139660986557    2.02559967546673   -0.58751276882641
H         4.53140852770530    1.68359274153758   -0.97563994691332
C         5.53034013035960    4.21885358930703   -0.55821581095798
H         5.40090767381695    4.61293554809964   -1.56217262353015
H         6.31343308759349    3.46522832055477   -0.58554773536236
H         5.85693959387124    5.03106420781421    0.08754344839794
C         0.99565276707717    6.40570893593146    2.72212022211695
H         1.51957308657499    5.87975761079044    3.52689115916263
C         1.13347419616496    7.90791208865207    2.97562987681136
H         2.17408969714348    8.21334916305599    2.89796621212766
H         0.77847876439009    8.15385673800488    3.97390334796080
H         0.55421643031334    8.48398823392034    2.26012217529433
C        -0.47527178260429    5.97495771470411    2.73319639010396
H        -1.00497348550722    6.40613632532740    1.88775581686574
H        -0.97114679781948    6.31922671644568    3.64017938675927
H        -0.53823609876171    4.88402785700246    2.65552678004630
C        -1.50855290851738    2.19576241493823    3.41341609781202
H        -1.94507159450269    2.96253167420256    4.05490337545180
C        -0.79630900018697    1.18658553216700    4.02166738783695
H        -0.70306164325293    1.20502677315567    5.11146531468492
C        -0.47986097185960   -0.16091759569914    3.42035938882696
H        -1.35946004373793   -0.80674724900091    3.50197591870022
H         0.31415689376263   -0.61663955409806    4.01868060721116
C        -0.01599784219989   -0.08169253896665    1.95537395604569
H         0.59460180942055   -0.95946239267218    1.73954632247097
H        -0.86759433924813   -0.11201946047485    1.27684047814045
C         0.79389095491031    1.16884865268504    1.68710912079893
H         1.83494696729038    0.98150763938927    1.44324892605965
C         0.23399742416167    2.35652426893061    1.19966723809958
H         0.87533013981054    3.02046654569081    0.61997931657841
C        -1.23420120842408    2.55314375822821    0.91487763359929
H        -1.48232674718066    2.02160734452419   -0.00864446063421
H        -1.40607967305937    3.61422886992313    0.72376223734135
C        -2.15995579957176    2.08065886084829    2.05465236311888
H        -3.06408379874848    2.69076299768291    2.04336422049829
H        -2.46903796602724    1.04819935605856    1.89475095154800

