23
CSD_code = AYOCOH | q = -1 | S = 0 | Stoichiometry = C10H8I2NOZn(1-) | MND = 4
I         2.68260706610663    7.26205684117715    2.08214526340435
I         6.88534604438243    7.87428692274217    3.52190110232061
Zn        4.53407208621661    6.92004282364790    3.80563106954452
O         4.48829554806348    5.17541993127566    4.65215291612909
N         3.79402673324982    7.58380720589666    5.67846986266712
C         3.66017160299986    6.48535199947443    6.44195060404959
C         4.04216175207099    5.22680528821552    5.85042517797108
C         3.89867309145487    4.08957244974777    6.65352105704361
H         4.17831806577749    3.13485663939077    6.23207304626602
C         3.41418578004177    4.16922916990493    7.95083253699180
H         3.32294616969423    3.25750597705214    8.52832966957559
C         3.04937133273794    5.36792906613847    8.51946032381650
H         2.67342664159154    5.41784488474506    9.53186041722495
C         3.16786206119897    6.54803419587582    7.77152954403324
C         2.82596087224534    7.82792946305778    8.25406576667032
H         2.44515350872702    7.92563286202254    9.26281647141015
C         2.97670323862263    8.92504784164090    7.45194487517378
H         2.72055133897172    9.91381558934457    7.80494237880140
C         3.47165993091678    8.77187106209012    6.14402842193935
C         3.65381461240349    9.94833862445160    5.23950886648903
H         3.30505068205470   10.86198524549892    5.71483941597343
H         3.10178267338899    9.80163080562305    4.31133507055393
H         4.70705916708141   10.06570511099285    4.98313614194689

