37
CSD_code = AYOCUN | q = 0 | S = 0 | Stoichiometry = C18H13ClN2O2Zn | MND = 5
Zn        3.37912423820100    1.61371333950129    9.47375001135062
Cl        5.09226265321854    2.80859282596871   10.10977193987838
O         3.30814647798424   -0.28130248303224    9.80932742362556
O         2.77371543095587    3.77744341014891    8.44247056893311
N         1.62092612895905    1.69638843480041   10.53965933148674
N         3.62505275903546    1.45345879946413    7.37845213116179
C         1.34749581211724    0.43673162828002   10.92548953857250
C         2.26985662183802   -0.58648954071045   10.51431391652560
C         1.98131542950398   -1.89262725126467   10.91067206260489
H         2.66182429487677   -2.67701498959784   10.61694755379335
C         0.85710284892926   -2.18898067587240   11.67319575051068
H         0.67858583392545   -3.21690957359409   11.95502565749409
C        -0.02672856248117   -1.21511362113851   12.07527312623962
H        -0.89385556159813   -1.45832981348824   12.66998911499452
C         0.20414402877380    0.11915387178851   11.71035268440972
C        -0.63312476593541    1.19271986680790   12.07602512883530
H        -1.51050559203655    0.99588241044753   12.67592594447320
C        -0.32422113988171    2.46444399544254   11.67211378738002
H        -0.94511392206771    3.30513690859691   11.93988183037469
C         0.82146661298596    2.67519090223151   10.89560047718232
H         1.08435920978984    3.66680647943893   10.55716319546776
C         3.86594912053624    2.59547086100087    6.69993480100736
C         3.48746134962056    3.82903183753522    7.28873259191898
C         3.82991799218038    5.00926441948658    6.67482801917273
H         3.58147561826153    5.94987487671055    7.14517259416616
C         4.49770315553543    5.00599442477862    5.44335130914021
H         4.74829878259963    5.95020232351656    4.98490003242623
C         4.82306926467065    3.83122912777840    4.82411296306106
H         5.32586758130745    3.82672093297109    3.86921315476735
C         4.52428924668921    2.60125117448975    5.44244910749579
C         4.86864756944912    1.34980955953871    4.89088982420790
H         5.36442918011852    1.31448258362713    3.93133357959543
C         4.58102411426200    0.20658980926167    5.58641693878287
H         4.83410753733573   -0.76642802761969    5.19592623727383
C         3.97138573313904    0.30775407454966    6.84581569707503
H         3.77452910194613   -0.56991282961611    7.44405769599308
H         2.95301581525827    4.56416992776836    8.97366427862646

