23
CSD_code = AYOCIB | q = -1 | S = 0 | Stoichiometry = C10H8Br2NOZn(1-) | MND = 4
Br        9.19230078057912    9.09287283367861   13.74372499835290
Br        5.72623700171811    9.63388041880967   11.42389497443473
Zn        7.19118658108035    8.26240614513804   12.72793564646844
O         7.28551415324994    6.39581800627167   12.15410140958657
N         6.01724431567413    7.47637008039595   14.29388121952700
C         5.94431244296447    6.14911851751316   14.09327959774912
C         6.63475671008200    5.62225610039417   12.94294192757474
C         6.55184754149473    4.23998623822501   12.74414681781142
H         7.06091532583227    3.82083627619819   11.88869193933952
C         5.84173992440613    3.41995962541901   13.60976094409979
H         5.81044490471727    2.35630516371103   13.40873882994941
C         5.18147197945462    3.91895828855407   14.70867488535788
H         4.63154445469516    3.27013813359954   15.37586166823536
C         5.22270359829575    5.29663865608585   14.96819755092433
C         4.58389924717682    5.91616833150797   16.06213663676573
H         4.02110733199281    5.30566372051633   16.75678465272699
C         4.67886973823797    7.26928952167209   16.23520923743177
H         4.19569176475073    7.76076610350427   17.06737960870632
C         5.41620042945860    8.04153812500883   15.31868972490200
C         5.54747999203332    9.52223383032716   15.46758173365793
H         6.59880564125940    9.79662983698826   15.55855833878557
H         5.01176316556656    9.87620935415012   16.34486364952645
H         5.15166297527818   10.02285669233181   14.58356400808645

