73
CSD_code = AYOGUR | q = 0 | S = 0 | Stoichiometry = C39H27IrN2O4 | MND = 6
Ir        1.80375247618175    1.44673837334154   13.26676019942510
C         0.54878667289282    2.97071942891303   12.87220230023048
O         2.56189167332676    3.51918097222469    9.87163378955543
N         2.39019983287272    1.86286835454872   11.35202280468279
N         1.16641687386486    1.02712368401208   15.16471083532831
C        -0.48297825919083    3.50750415284880   13.63576069908374
H        -0.83063676890717    2.98322650160144   14.51472747246990
O         0.45104077340599   -0.63729041723171   16.46173175153535
C        -1.08141972086514    4.70900953996818   13.29104587873563
H        -1.88315178146576    5.09981677077560   13.90196781070163
O         3.38631399668379    2.91031832819852   13.74023869953509
C        -0.66291919675429    5.42484153872241   12.17590661062409
H        -1.13519409400852    6.36374441836176   11.92730902261443
O         3.35293814884007   -0.03081007934815   13.80376256837074
C         0.35639585641851    4.93116302327300   11.39002050025379
H         0.70346198573693    5.46661737222428   10.51837055734272
C         0.94668272322078    3.71671099429983   11.73813350810874
C         1.97827895230925    3.06941043656180   10.98671668120020
C         3.40980073076048    2.52645606199714    9.48790381839117
C         4.27478590073777    2.50466743155720    8.39143971846958
H         4.33840409924951    3.34927968281876    7.72516741317069
C         5.02132063852243    1.37300024509117    8.21870641909198
H         5.71444083507973    1.30831230295426    7.39323369552848
C         4.90342786507478    0.25077284306616    9.07894646526429
C         5.65133007190375   -0.92037222744585    8.84499027627173
H         6.34248761731713   -0.93565910104879    8.01434791661927
C         5.50258601158197   -2.02255666267596    9.64318928466783
H         6.08331154865158   -2.91315867962257    9.45130893238132
C         4.58669229748851   -2.00976058592987   10.70260539120001
H         4.46033215825955   -2.89499474614487   11.30779318397311
C         3.84912607200150   -0.88676200655481   10.96986751633520
H         3.13861406653991   -0.87044126437513   11.77971954593101
C         4.00985424484354    0.26689255612701   10.18613185617495
C         3.29434658481425    1.47130346577467   10.39599643534386
C         0.54803449248081   -0.07089133705952   12.85246406469965
C         0.15311916731431   -0.60368186615846   11.62944107363300
H         0.38038584779192   -0.07571921751303   10.71404525032879
C        -0.53183646071378   -1.80626054614690   11.55764350711814
H        -0.82760547092346   -2.19454802957228   10.59301914355486
C        -0.83820332021661   -2.52671665935377   12.70575453870441
H        -1.36450752300512   -3.46674134241763   12.63002284406051
C        -0.46704134751318   -2.03656422658635   13.93960135541096
H        -0.69008713700959   -2.57596372693174   14.84858188712004
C         0.21359674391231   -0.82121565925011   14.00393953246762
C         0.61859986504056   -0.17953247108128   15.21729440266020
C         0.92331237887692    0.34947906576060   17.27100994558454
C         0.99837394792669    0.36131114861518   18.66566293724496
H         0.66526628718148   -0.48694035058823   19.24085330176447
C         1.51105608449115    1.48798132236181   19.24493724550369
H         1.60222029623203    1.54487244556253   20.31939944847978
C         1.91285807206159    2.61472623657393   18.48183490074156
C         2.39246245893894    3.78011576312727   19.11231421375082
H         2.47837701717704    3.78763578135181   20.18957775318165
C         2.73442329652137    4.88631031989720   18.38192682556040
H         3.10102287737212    5.77237951501068   18.87966919372386
C         2.59674407283374    4.88357243450811   16.98820920876516
H         2.84539023209331    5.77197263747538   16.42715316226699
C         2.14441393219352    3.76657817624059   16.33679942025461
H         2.03048677353180    3.75791409686401   15.26532422851702
C         1.82053603248009    2.60885092699553   17.06195415893409
C         1.35399780721710    1.40959023163002   16.46978367643935
C         5.42090589966656    3.89277072571753   14.42590744105250
H         4.92309939193327    4.79219994614228   14.07173445450525
H         6.39064253360207    3.79567124074747   13.94361146081556
H         5.57583573101566    3.97538112483318   15.50065353237139
C         4.55384200263501    2.67964148114868   14.13697249895765
C         5.14391221065744    1.43166595815448   14.35233794337888
H         6.17051604302552    1.42772003491437   14.68743349719907
C         4.53166636677725    0.18891299840157   14.17295576552931
C         5.39276656764606   -1.03300246885563   14.44134296008800
H         4.76773827945745   -1.92214455749975   14.47443393069531
H         5.93295663130742   -0.92732629841294   15.37887631587786
H         6.11650103060424   -1.14297756350206   13.63485342044979

