60
CSD_code = AYOLAC | q = 0 | S = 0 | Stoichiometry = C30H20F4IrN3O2 | MND = 6
Ir        6.31629390638456    6.81557415542655   10.30047216383417
N         5.57304173172083    6.63474596934128    8.43534103805668
C         6.30595780376203    6.62079556266745    7.32524263386963
H         7.34165363356632    6.91795121765491    7.42137017057873
C         5.80877994386339    6.25752632226999    6.09139628152890
H         6.45516559782200    6.26091422143748    5.22782061594450
C         4.47391927904080    5.87552016619876    5.98372126813680
C         3.70516869754447    5.91407513888015    7.13767158022146
H         2.66911385805010    5.62796074098788    7.08395425005340
C         4.26325332344781    6.30006391218231    8.35358155170999
C         3.55077170902697    6.38906430232363    9.62359184790356
C         4.35656052336624    6.72003651516708   10.73945536005702
C         3.75329704189973    6.83528683687546   11.98623212200919
H         4.32359919407326    7.09107321988958   12.86599407609086
C         2.39434839055976    6.62689394885885   12.12451581463436
C         1.58487064769069    6.30358043641776   11.05124931976091
H         0.52606301806577    6.14457421816506   11.17016839415751
C         2.18297366130361    6.19076508724295    9.81293610158672
C         3.88449549058521    5.46656858679443    4.67528176345941
H         3.51669771104682    6.34733705541532    4.14805860512620
H         3.04776037016780    4.78907149272474    4.82295807958335
H         4.63089420069585    4.98615400346162    4.04746285625175
F         1.36910233513364    5.88432785984215    8.77759030767108
F         1.83158043924337    6.74729471232185   13.34371299084178
N         6.95729596119883    6.95966573615193   12.18910948524301
C         7.20589170422787    5.90285067883318   12.95657701815142
H         7.01479196208796    4.93510779538874   12.51311294389369
C         7.67184530377102    6.01146722981601   14.25126727458159
H         7.85615235873245    5.12169171402455   14.83204620156773
C         7.88995550623105    7.27565386183913   14.79276844646062
C         7.61941026418759    8.37536554859137   13.98828123488631
H         7.76989814183490    9.36427885471677   14.38598643152205
C         7.15109929579736    8.20378178183754   12.68969025285372
C         6.79986992057916    9.26565111133733   11.75103234073500
C         6.27372483015503    8.81392783517475   10.51215212908293
C         5.89956233295417    9.76560310356396    9.56842215870467
H         5.48655201342697    9.47061457973680    8.61600629341716
C         6.04420333826090   11.11314890671914    9.83742539831725
C         6.56425607704268   11.57572508241766   11.03313281089198
H         6.67698751211559   12.62873157475360   11.22989142125466
C         6.93272420038329   10.63550813233270   11.97380372545470
C         8.40663060756383    7.45398874223860   16.18181312700724
H         9.48695165173462    7.59934452263725   16.15571495369698
H         8.19694323435185    6.57858985646108   16.79080855754945
H         7.96426730048613    8.33123190355461   16.64761847486652
F         7.44985996669462   11.10734349752263   13.13135387629128
F         5.67835307257531   12.01428961997843    8.90381161167547
N         8.40455305324548    6.66159726049804    9.72952370991708
C         9.29736653911239    7.63534186917228    9.57670243867082
H         8.93349894616708    8.64422375327054    9.72060958979106
C        10.61814430647280    7.39215186512925    9.24737001849155
H        11.30547842634223    8.21593604469241    9.13589149598160
C        11.03287919955696    6.07925033367306    9.06447667312773
H        12.05744449357822    5.85639353416523    8.80592967654397
C        10.10335972712011    5.06851148788133    9.22096575783672
H        10.34340475610538    4.02411670763453    9.09440160664361
C         8.79670670111579    5.39864633062819    9.55668747183318
C         7.74443767362613    4.28293494368713    9.75391380513133
O         6.61137641031585    4.67089292204382   10.14748850450901
O         8.09906070279028    3.13738559534873    9.53123389035385

