109
CSD_code = AYOSOY | q = 0 | S = 0 | Stoichiometry = C56H41BFeN6O4 | MND = 5
Fe        8.82768526145348    2.51152883749614   17.28441720728896
C        10.31527849264141    2.24934570022612   21.12183625996605
H        11.06651238465121    2.24842470163174   21.88497005811931
C         5.99127250762015    4.62057037949456   19.30946336551266
N         8.38904076292118    2.07662056305883   20.06045310853489
O        10.09461529697194    3.98886785718736   16.60404641527361
C         5.13791787249927    4.65403026388923   20.49403712969514
O        13.10878180444034    6.76832436390872   13.67698029697401
H        13.27725031908085    6.83895720657471   14.62406599054518
N         6.78799849839069    3.58050422732167   18.99048839462912
N         7.44526896573653    3.83073624893169   17.85009697864857
C         7.04321654889579    5.24494200901597   14.95722378949159
H         6.34387018802051    4.42245937743142   14.92839573287586
C        11.45292889038194    5.25646490283236   14.50854649012531
H        11.74132046537447    5.42091271956365   15.53743185332460
C        12.07952624326334    5.89207716202292   13.47748338591783
C         9.96126138804847    4.09160008391792   12.98123050468020
C        11.88975189296723    2.13529687233437   17.71268851002461
H        11.09615965124295    1.52748934721416   17.28746721606306
C         7.76888745021071   -0.06477787758281   15.40315322242981
C         5.68062319211078    0.26179963092168   18.37713074639879
C         7.54644407948000    5.66825618357777   16.18275808652707
C         8.44934207814415    6.72382901346741   16.22191298500135
H         8.84116392598803    7.05058921040852   17.17386856043684
C         4.81283054640726    4.33912716656189   22.85776303783081
H         5.21474138131699    4.07935991551805   23.82603572234322
C         5.91699517969489   -0.39553104434982   17.18010197671340
H         5.33551840941140   -1.18603472216590   16.75164940493721
C         7.07951297429541    5.03892660250554   17.42577115560518
C         7.07087409187091    0.19835561371976   16.65053695064938
C         9.14927997188119    0.11574762797427   15.33319208300278
H         9.68702071229196    0.36618015834892   16.24344729681588
C         7.08191036652225   -0.45679248964715   14.25686647888659
H         6.01231971870546   -0.59803046523854   14.30026797083382
C         3.79647836603483    5.00706472167840   20.37076702676715
H         3.40266965352080    5.26146716099897   19.39740859899901
C         6.15002116665639    5.57960173318904   18.32163633763610
H         5.67650298268419    6.53812971024668   18.25844912801522
C         9.12790627233477   -0.42621770969538   13.00046748008982
H         9.65159791174104   -0.55243607320975   12.06504223270272
C         5.64259402056884    4.33690377430453   21.75277788760302
H         6.68786881494281    4.09439000892329   21.86256855247823
C         8.35481280641574    6.90887938313558   13.83121191061004
H         8.67852593979049    7.38281799707520   12.91626011391517
C         7.44538528008948    5.86534693798395   13.78797136146805
H         7.05562494408806    5.52839743800649   12.83881833911396
C         3.47434719467717    4.66979929036797   22.72378596634105
H         2.82595989416296    4.66593250984499   23.58754600589863
C         9.82359883402324   -0.05715558506558   14.14057434424076
H        10.89252764622522    0.09451597099437   14.09547792167113
C         8.85647475108779    7.33473168109162   15.04919430766325
H         9.56819585311690    8.14683037661768   15.08427068145357
C         7.76001827060556   -0.63490070698662   13.06560196258730
H         7.21802305913091   -0.92847789260790   12.17866378909137
C         2.97096542847990    5.01295563807889   21.47994445469832
H         1.92974829332956    5.28080179911601   21.37264096194932
C         3.84440459333276    1.13828196728643   19.80069101171728
H         4.04680662627083    2.13133704728034   19.43142288617243
C         4.59594465109776    0.06194424276749   19.33408154777148
C         4.29375011732392   -1.22098345733175   19.78329492980194
H         4.86825714897151   -2.05969495351016   19.41759938508809
C         2.83669393685941    0.93641789742242   20.72452184229527
H         2.27002728398413    1.78131388258785   21.08730431045991
C         3.28013094868687   -1.41895714868910   20.70265352034041
H         3.05771359297133   -2.41746273800323   21.05003936145154
C         2.55591756797891   -0.34038122017803   21.18271631366977
H         1.77034697656360   -0.49581603519552   21.90736046486296
C         8.95588975494678    2.03625071966567   21.28737173227166
C         8.21336356348485    1.79708289114720   22.51937561447879
C         6.78772111250285    1.39786031412423   24.87611703392252
H         6.22794411318810    1.24867006512708   25.78762005367796
C        10.50554839737540    2.39779086342488   19.74059550642229
C         7.24402505469852    0.79893151620559   22.59720686791031
H         7.05563067906740    0.17025391959702   21.74081301531896
C         8.47692070156444    2.57406957729975   23.64556778872666
H         9.23028816647824    3.34648697975015   23.59197497776691
C        11.73918930974675    2.62811189766762   19.00728222667390
C         7.76711746242419    2.37528718715436   24.81494977395217
H         7.97464068913614    2.98860802066273   25.67985236502245
C        14.06206524871106    3.13151055524195   17.55475618854031
H        14.95859521978108    3.33604940961838   16.98817475294924
C         6.53342849263255    0.60796720301641   23.76684682900960
H         5.77746846723319   -0.16204509189904   23.81225164880812
C        13.93502193860376    3.60383298467275   18.85098019201739
H        14.73590275726834    4.17611211410719   19.29663585216787
C        13.03673961756820    2.39169463741752   16.98816275741661
H        13.13495649237626    2.01686326652739   15.97959657536226
C        12.78335137445726    3.35656857543552   19.57369993745978
H        12.67854179294033    3.74598287513677   20.57530674411671
C        10.60197662426992    4.74747834421515   11.89101489759037
C        10.38757282456375    4.36133411090667   14.27313382118507
C        11.66151246894105    5.65499479018145   12.13663599834307
C         9.71916208092903    3.75543039437695   15.42708230417121
C        10.19056950127040    4.52117874518276   10.56392350725808
H         9.38117571874963    3.82743859844659   10.39707645427114
C        12.27110259729560    6.30180586822762   11.04632566324241
H        13.07707922842449    6.99009250187339   11.24826477361675
C        10.80061555046457    5.16594372914156    9.52238385794703
H        10.47715739488388    4.98780034924468    8.50725733855577
C        11.84917693829298    6.06260714415799    9.76599284090459
H        12.32329209666971    6.56537582371975    8.93566933501839
O         8.73743437036053    2.95172293402369   15.26441719827586
O         8.96053920318762    3.23807880556922   12.71666077326518
H         8.61738372817416    2.92163658437513   13.58901581344598
B         6.91888042984744    2.19775218844031   19.64546271364856
N         6.65769790853099    1.18181874325502   18.53235875342811
N         7.49720639665339    1.14141916298679   17.49742318630378
N         9.31942136827914    2.29439718537209   19.12965574365305
H         6.18613082332901    2.06231851836336   20.55436328721985

