56
CSD_code = AYOVUH | q = 0 | S = 0 | Stoichiometry = C23H22F3N3O3RuS | MND = 8
Ru       -1.20109826479150    3.47386400065834   12.99356432271805
S         1.55005612847039    4.11715853128525   11.67418114309377
O         0.79337526187581    3.04729295027049   12.34424014658421
O         1.80423895792345    5.26445032448392   12.49703864423702
O         1.13738305183392    4.36372248854161   10.32369430155645
C         3.19475390743316    3.23517098752026   11.54994016018714
F         3.62975404065557    2.92165320657339   12.77229011740722
F         4.13779949233176    3.96809614401887   10.95767107588677
F         3.06546443448686    2.10063495527303   10.85982578102689
N        -0.89654904646664    2.02624484002414   14.20172388868628
N        -0.13379533539378    4.38131976469038   14.69524418013571
N        -1.54491250347492    1.65752323440557   11.80140107718091
C         0.19612179154891    3.46391614842988   15.64063836323300
C         0.99413311469234    3.79991073925043   16.73903457024030
H         1.22764818766397    3.03519688940713   17.46227884995608
C        -1.49324946560901    0.52630319575142   12.55472653558500
C        -1.13490023773394    0.73856644641608   13.92116165597711
C         0.33135617904048    5.61350762137200   14.83319932699206
H         0.06069307199242    6.33385533813065   14.07980620146837
C         1.13620610100456    6.01204109259295   15.88682640315012
H         1.49090523285857    7.02829927869434   15.93256322082776
C        -0.69708726689184   -0.03578593568611   15.01885952930694
H        -0.75774187124417   -1.10254496532271   15.11323029825801
C        -0.28060466946680    2.13929526917513   15.38227797591693
C        -0.15768347763549    0.84691018510560   15.93844421035374
H         0.27958367488511    0.59764301264333   16.88560679423450
C        -1.80590268941256    4.60410352843911   11.21285486847271
H        -1.09731984330780    4.42540777402366   10.40560605443760
C        -1.40980808923799    5.50412445407609   12.18566978955071
H        -0.41894583367387    5.93586787455731   12.06274412912616
C        -3.35969693043863    3.38514716191605   13.17607320851369
H        -3.68529980486445    2.38024533957353   13.46216893864252
C        -2.83530025788387    4.18361072254033   14.20609088131205
H        -2.82033936733193    3.74609326046436   15.21021822824412
C        -4.14981939247866    3.98616864791136   12.02681438407688
H        -4.88128528000525    3.25399814651722   11.68106201535181
H        -4.70844958243823    4.84537864164029   12.40480674683029
C        -3.26265343287135    4.40645837612802   10.83869126641421
H        -3.63687667279314    5.34039583487471   10.40456433679915
H        -3.33732279022630    3.64886051673915   10.05844863168178
C        -2.95241685776046    5.69346082538278   14.22042049463513
H        -4.00183639297588    5.96666532009317   14.37961340728618
H        -2.39238139985589    6.06820484958347   15.07962425351804
C         1.47726718945072    5.08337038261418   16.86083577987241
H         2.10607810634256    5.36055746129100   17.69363133588586
C        -1.65382678001297   -0.74087300973737   11.97974606246324
H        -1.63477453888324   -1.60600502776490   12.62277972088235
C        -1.62970910343665    1.52207932727182   10.48631476602562
H        -1.57749972669220    2.42205291535510    9.89398993052704
C        -1.75853731079373    0.30077092817723    9.84837935358724
H        -1.82054366241127    0.26116082074742    8.77326169870744
C        -1.80280203376285   -0.85657051373838   10.61719298523961
H        -1.92633025316602   -1.82357500754568   10.15331666159277
C        -2.42063348562534    6.35750519011428   12.93483769198701
H        -1.96474617840404    7.31427197767844   13.19500765778970
H        -3.25103809503827    6.57711753737577   12.26006594634715

