49
CSD_code = AYOWAO | q = 0 | S = 0 | Stoichiometry = C22H20Cl3N3Ru | MND = 8
Ru        8.06246423230454    0.95004166357411   20.02064966415892
Cl        7.01392264678307   -0.79075872055836   21.18827511002353
N         9.09134322632697   -0.30679687107904   19.00062341776297
N         9.77924338504190    0.41541581002668   21.31401809514501
N         6.73231956207365    0.29617192734139   18.38171472238682
C        11.80925800093756   -0.87964199225037   21.35021969091136
H        12.48524877009248   -1.52262851569989   20.81106381081396
C        10.00527230792940    0.72953450638008   22.58181980285510
H         9.27802532934659    1.36266923706454   23.06661324369473
C        10.28672133713097   -0.78591567986757   19.36985580059244
C         8.72031401236329   -0.79804336527186   17.81057535299621
C        10.74620681131442   -1.63267543480209   18.33503559552078
C         9.75988650964329   -1.64015543758258   17.35279549954676
C         7.36942196199103   -0.47947346855914   17.46471556839123
C         6.70624337501709   -0.98631381762188   16.34210349478552
H         7.26482866236373   -1.57546299031392   15.63350075214642
C        10.66485408842344   -0.40979522119808   20.69706241844426
C        11.10484432803804    0.28845914202710   23.29596298503129
H        11.22560936648893    0.57765806846229   24.32729730022174
C         4.69940269294021   -0.02128262910989   17.16928112899282
H         3.63763335390787    0.15592924047150   17.11595562067050
C         5.42620549471300    0.47221566987396   18.23751789197591
H         4.91681790462516    1.01661703250264   19.01758540551160
C         8.43474937274801    2.59173790816970   18.62445918383573
H         8.62076479617679    2.19528731064494   17.62436566931830
C         6.48424909732499    2.32907861714662   20.60330793978423
H         5.59375116031878    1.78440913088707   20.92587350938702
C         7.51732299104571    2.41941753231639   21.53095037474521
H         7.33797344175581    1.92893553395187   22.48950446181282
C         9.48839617725469    2.51372471087008   19.53171821002915
H        10.42670325297400    2.08583466147062   19.16953479377720
Cl       12.22497498795929   -2.49153899888682   18.28042173232192
Cl        9.81359785709636   -2.51103640323016   15.88117757159109
C        12.03456106844184   -0.52639800897935   22.66133840225784
H        12.90786076222188   -0.88214076477697   23.18663008583026
C         8.43623495790449    3.62908636993685   21.57660942675792
H         8.76604212996426    3.79579304188018   22.60408400862007
H         7.86146466840860    4.51061185237670   21.28268002736784
C         9.67823639614502    3.48729428015260   20.67443983931908
H         9.95661010552440    4.46496005428625   20.26405403714312
H        10.52307087373178    3.14438713535502   21.27651997626938
C         6.21443545563947    3.42134174900074   19.58662592280034
H         5.92045506948556    4.33094828813633   20.12351239683771
H         5.36268345347610    3.13621765739912   18.96796814050165
C         7.41898787950866    3.71693067299499   18.67151560451961
H         7.92857168892437    4.62504124382050   19.00335981121312
H         7.05587908446603    3.90432824726073   17.65943508087053
C         5.36048777266763   -0.74486201039708   16.18393351755400
H         4.82734813903909   -1.12885796559591   15.32763790295483

