72
CSD_code = AYOXER | q = 1 | S = 0 | Stoichiometry = C28H41OsP2(1+) | MND = 9
H         8.76382632058116    8.33691801340031    3.80521102248654
H        10.96963921292433    8.19236530613752    5.51198463601661
Os        9.84282941497910    7.59635297541403    4.64627292151701
P        11.03790907631311    8.55693925165898    2.88611337036877
P         8.77476052258364    9.14969033729605    6.11386985523741
C        10.29335360142579    5.77867286123546    3.40651393383562
C         8.91184011729778    5.72714170171612    3.72125209729251
H         8.10745270895576    5.64791138746625    3.00476908381922
C         8.77555242629861    5.60957186333971    5.12624896095223
H         7.85759472262368    5.40135859067682    5.65432066259087
C        10.07407887851179    5.60407357748641    5.69321957292681
H        10.31322968578810    5.38595947981406    6.72434783548087
C        11.01153471414123    5.70700527835208    4.62958600199472
H        12.08173225307899    5.58103156037185    4.71538249095591
C        10.90672251876861    5.93832079996341    2.04569597524535
H        10.48436633529950    5.20965402971265    1.34782043422884
H        11.98410480272585    5.75913395255415    2.11427332477899
C        10.65613943058972    7.36010945101746    1.52134996399878
H         9.60074676794102    7.48559016800893    1.26391951296594
H        11.25502002653287    7.57738575082857    0.63338583330627
C        10.59319821306061   10.17930920239892    2.19587452343333
C         9.33119036317652   10.36405865239792    1.63695781914429
H         8.63459463973336    9.53912493728291    1.59268436039395
C         8.96361578281974   11.60066774255175    1.14110760435228
H         7.98737935610871   11.73499826056934    0.70066825631525
C         9.84724976956927   12.66649705503579    1.20977518946310
H         9.55954990649714   13.63094028913369    0.82095432684012
C        11.09747935704775   12.49283031120942    1.78034273131702
H        11.78513840772910   13.32260705721587    1.83884389952286
C        11.47132294800472   11.25687959070579    2.27698199146524
H        12.44682704404967   11.12615785753187    2.72265468094037
C        12.85874487280782    8.56536990445613    2.88804573888059
C        13.52335010706061    8.82316718213407    1.68930103081827
H        12.95938607396741    9.05860885025024    0.79711390424185
C        14.90412428155007    8.80035375264009    1.64574774059043
H        15.41401961144016    8.99933398789408    0.71550637995289
C        15.63285125792964    8.52514244479402    2.79320429564760
H        16.71091562590539    8.50512257404532    2.75456237208733
C        14.97709830415603    8.28417774533887    3.98857355676059
H        15.54284534522433    8.08029338366442    4.88490988484648
C        13.59354575261830    8.30526653427536    4.03732924502114
H        13.07812632207292    8.12696771087484    4.97071147547291
C         9.34359576816296   10.91260981677807    5.83164176138079
H         8.94369264222874   11.11250466159279    4.82775317333742
C         8.76486172286991   11.92000719543295    6.82267503168403
H         9.22349680758138   11.80953047438990    7.80118087448859
H         7.68733975850767   11.82793792758864    6.92346458065995
H         8.98045076650960   12.92736207994363    6.47150025603885
C        10.85713493822257   11.07354831198198    5.73822266746208
H        11.08508933224577   12.08084093262401    5.39607296509745
H        11.26825741502163   10.36578608542815    5.01809222942264
H        11.34049757984134   10.92506629981350    6.69793811019458
C         6.92356064953423    9.32187589893044    5.92591107694265
H         6.58315272037221    9.89765201575170    6.79160235979464
C         6.27081385043793    7.94358800047808    5.96115076626808
H         5.18885800101052    8.04301567101888    6.02331071461990
H         6.60718243120722    7.36264199397193    6.81784545223606
H         6.50708894085973    7.39951464807962    5.04945785715889
C         6.52212273453956   10.06130318545775    4.65440155863286
H         7.04313448000730    9.65066816419927    3.79105652515398
H         6.73530515352393   11.12435574511838    4.71584614602783
H         5.45248328309082    9.94424654435934    4.49295309192559
C         8.98524150939471    8.62891011646458    7.90568777490399
H         8.86214515499240    7.53788131451107    7.85340027176952
C         7.95738817585234    9.17691478091590    8.89322487994239
H         8.22079803547611    8.82878286476440    9.89077739608759
H         6.95280557987685    8.82311580121109    8.68022811632767
H         7.95389744435933   10.26203542207068    8.91230208670511
C        10.40057628165363    8.91664616621704    8.39830571951854
H        10.52333941616978    9.97139702573314    8.62695899619549
H        11.13803895150631    8.62714952717518    7.65207428267363
H        10.59566359502975    8.35304996514934    9.30847477985616

