84
CSD_code = AYOZAP | q = 0 | S = 0 | Stoichiometry = C18H46B18IrP | MND = 10
Ir        2.50018194042983   15.37908018178815    2.64689493265678
H         3.13210283772585   15.50824948203348    4.01069657327432
C         4.23243943055206   16.59398027725880    1.89558965778083
C         3.25169072011318   16.75899542664158    0.88675609469124
C         3.07574661211834   15.51391129649949    0.22777790831361
C         3.94829560073055   14.57602617529649    0.81005733306016
C         4.64706643329185   15.21372426722709    1.86591016938804
C         4.91841500667985   17.70391401559179    2.63435300286517
H         5.65710834817382   18.18531179799194    1.98902220550501
H         5.43156742674213   17.32891121532543    3.51588803123236
H         4.20780676070419   18.46080868677848    2.95819898372363
C         2.63764132513192   18.06203073492499    0.48274253747140
H         2.63775412793532   18.76464231462309    1.31317089080434
H         1.61004882520302   17.93051566477299    0.14600077652897
H         3.20223588897180   18.51141101863818   -0.33826743819097
C         2.22371312801366   15.25095830170264   -0.97085822239218
H         2.84733976791553   14.97664707352611   -1.82466033873899
H         1.64656816699612   16.13100027143835   -1.24545826740364
H         1.52834661695892   14.43047489006877   -0.78799223623753
C         4.14202544939687   13.16723721374855    0.35369469001396
H         3.22901773652860   12.77433516703172   -0.08955986844198
H         4.42492399583599   12.52267501335879    1.18388963592281
H         4.93196807153676   13.11322090697789   -0.40009206543749
C         5.82638454294327   14.63350149223335    2.58657039624563
H         5.66263286888833   13.58275467743525    2.81855027060195
H         6.01885032876986   15.16228992209266    3.51679494376683
H         6.72100880399535   14.70466570163674    1.96327165951219
B        -0.77877494312509   14.29764092816077    2.46986879772140
H        -1.56729315338427   13.94555482219221    1.66364529603840
B        -1.18230155480161   14.47037739943413    4.17604229021509
H        -2.23601568069198   14.15965565322453    4.61424387641872
B        -0.91011628505301   15.90012777619415    3.19714759796941
H        -1.78826824130058   16.58908706962348    2.80029744327115
B         0.40051194389086   15.57178497086170    2.09507086188316
H         0.36294447997509   16.07043332499781    1.02398982604398
B         0.91553515241993   13.86830812914326    2.30303005906727
H         1.24785592839288   13.19065291505274    1.39445728059950
B        -0.04193321555605   13.18654699556087    3.64166406698973
H        -0.34987267840212   12.04464091787729    3.68111746245449
B        -0.29486861543030   15.84467563942712    4.89031040686997
B         0.70433403436891   16.56316622198940    3.53365385208050
H         0.54772471274442   17.80571505995259    3.12735053798814
B         1.67558512787956   13.66276959570126    3.82293005143402
H         2.45211639437759   12.82533579729361    4.12592848255197
H         1.47280717074495   14.40935092168941    4.94072393732174
B         0.26711608354173   14.14599570666614    5.09610276336039
B        -0.25361479731816   16.85615260604049    6.34388430535962
H        -0.06806698005322   16.32622466414194    7.39371419374575
B         1.14416724169403   16.90182392239111    5.23974182504456
H         2.14101348323141   16.46973625578332    5.70013936340503
B         0.58600211865364   18.39121969441605    5.91681021785240
H         1.32821925544585   18.98901488393595    6.61230866444160
B        -1.12790521161856   18.47568523375848    6.31374297629890
H        -1.40796669499017   19.02628295628520    7.31944210655431
B         1.00665276797356   18.34351293772115    4.19299228824907
H         1.96887256722038   18.94223111020999    3.85409815879370
B        -0.43915502552966   19.26732116586869    4.78257327108910
H        -1.36047613892713   18.82977602475598    3.95368740970144
H        -0.43233957551608   20.44720460619845    4.70500302545407
B        -2.14717666905947   18.50548663071903    4.93868144857052
H        -3.15710032866536   19.10884632198175    4.85558911642479
H        -2.35847793586320   17.28623626956289    4.62257780031444
B        -1.85867624466699   16.95158843379014    5.79708562050252
H        -2.72839099785334   16.37280695636528    6.34842632341534
C        -1.48125585242028   13.34942795982204    7.56400949135075
H        -2.19835787415335   12.91108866392717    6.87522114613503
H        -1.76689894924580   14.38215069898120    7.74239761431474
H        -1.50022983904284   12.79028789663799    8.49599354012841
C         0.55753620691047   11.50783021765551    6.74972057423171
H         1.54681620578144   11.35906786601733    6.32791527894530
H        -0.16160097183527   10.99497601406947    6.11812665096000
H         0.53072797895574   11.08287177123086    7.75018025296209
P         0.16514078186525   13.30489847568001    6.77267088571726
C         1.36157240102791   13.92442860987945    7.99846373443355
C         1.00458957116461   14.33648067892246    9.27554142986749
H        -0.02543450885633   14.29485481294699    9.59304640368922
C         1.96452937851763   14.82053978773672   10.14691277975297
H         1.67620655659348   15.14330408885580   11.13595894655278
C         3.28880611047549   14.89884797531494    9.75130377535138
H         4.03432130785066   15.28134047811946   10.43157326720487
C         3.65234041624142   14.49201017024071    8.47814060780282
H         4.68218945857709   14.55756181203328    8.16247392935889
C         2.69431053486064   14.01034174437614    7.60590439039911
H         2.98174282968239   13.70614657194519    6.61033003880223

