77
CSD_code = AYUCII | q = 0 | S = 0 | Stoichiometry = C26H44FFeINP3 | MND = 6
C         1.33007662736911    9.28719515177396   -0.27739430467339
P         4.13530092627920    7.96262301422102    1.27396508276949
I         5.32143623464977   11.00859863882899    0.49869059857115
Fe        3.28132457265658    9.94328796146651    1.61046521499845
P         4.04339946120279   10.11771380079083    3.68356782871132
P         2.29424904529552   11.89365345529231    1.63978125705682
N         2.51283555073359    9.79053467702469   -0.11815343467650
C         1.16837245597153    8.62495589176264    3.30359822893553
H         1.75531034350840    8.82877664213700    4.18412373709859
C         0.63878085493260    9.34310159231611   -1.56790592857379
C        -1.29781250310858    9.90333400645266   -2.88023149363743
H        -2.31668750667422   10.25904680048772   -2.90575049900483
C         1.62462939521643    9.06608322130567    2.06702127484930
C        -0.67575387019240    9.79591058989496   -1.65505563650349
H        -1.20723078010420   10.07881897975652   -0.75750689829174
C        -0.00844421887645    7.91897404844920    3.45772237335119
H        -0.32520916934858    7.60005436022806    4.44142398526120
C        -0.64553372527104    9.56501078693226   -4.06465967307381
C         0.67124413316272    9.13069251266181   -3.97000209810902
H         1.22760378569249    8.86196651252492   -4.85301408089717
C         1.30757190804412    9.03105788055068   -2.74714745121767
H         2.33071388437161    8.68251016887062   -2.71037682566939
C        -0.78028527923190    7.58583938276100    2.35355799090012
H        -1.68123197808727    6.99990029307411    2.44413136995873
C         0.79560167925122    8.77356416629993    0.95409754747464
C        -1.38603927161467    9.68185700735071   -5.38630289368301
C        -1.82633201076206   11.13878889897970   -5.58850842106445
H        -2.49482770400394   11.46587178595262   -4.79682924510051
H        -2.34754667317716   11.24299593653889   -6.53773719995720
H        -0.95932571700137   11.79654550122861   -5.59701518954184
C        -2.61757487970159    8.76590327029250   -5.34641468487071
H        -2.31337735323818    7.73439495167398   -5.18076240556858
H        -3.15559008587645    8.82044451546208   -6.29046310540768
H        -3.29864886339922    9.05068078704048   -4.54927380574812
C         3.37614454552092    6.49263176518374    2.07075392581903
H         2.34927952384375    6.40775079126176    1.71760800043018
H         3.35579981916106    6.59846859614503    3.15155637512483
H         3.93013974999485    5.59394241707457    1.79727164420139
C         3.10559761084503   11.04104777909856    4.97707703549033
H         3.66422330937763   11.00645955016708    5.91348791294223
H         2.12437592740377   10.60025567218101    5.13449217042000
H         2.97182562227093   12.07912960571386    4.68285161954660
C         3.17376552827831   13.39983751223732    2.22302099428985
H         3.88998555708087   13.68621913948986    1.45242029515953
H         3.72205267630136   13.22093226857172    3.14462477543494
H         2.45876944696316   14.20925681487912    2.37544275423952
C         1.76149164065891   12.58329910523243    0.02274567727058
H         0.98703479720641   11.96580049493106   -0.43039666544191
H         2.61958790180511   12.63968077578881   -0.64765084388036
H         1.37035603414282   13.58899928696208    0.18333955375191
C         5.66066302560851   10.95919745423686    3.91987760330534
H         5.63518305307993   11.95706397387409    3.48601493105160
H         6.44331198260927   10.39852475981436    3.41042032246546
H         5.89436793999954   11.02780845886826    4.98311593094825
C         0.68986696341045   12.02302374825934    2.52037124642372
H         0.29482835565314   13.03669773872881    2.44696839917468
H         0.80240796868401   11.74333830011711    3.56426610306361
H        -0.00513300864052   11.32462484259435    2.05552388567359
C         4.42115598746444    8.62693536270240    4.70364220610337
H         5.07904780201422    7.95218776435845    4.16127488168887
H         3.51065902057228    8.09032939258821    4.95960776650736
H         4.91539202760237    8.94191978887240    5.62376027172174
C         5.92909532873041    7.66698202054047    1.56258533290203
H         6.12196957082411    6.59931338072829    1.67233479042736
H         6.28483256655864    8.19658933937527    2.44397003189048
H         6.47534525202509    8.05107963570704    0.70120422201455
C         4.07907632560222    7.35778990015933   -0.45592195285535
H         4.62715241625867    6.41670294150842   -0.52203477130806
H         4.54830693389280    8.09261594789856   -1.11062406050644
H         3.04624976477345    7.19674666813194   -0.76296682152453
C        -0.52475955699706    9.27334756606955   -6.58438498980526
H         0.35169928817423    9.91134619988336   -6.67338784682772
H        -1.10628395548467    9.37346823864621   -7.49863443304925
H        -0.20584921832101    8.23674785875479   -6.50244278803231
H         2.93495701768039   10.18027010982156   -0.96115699552629
C        -0.36024917514222    8.01129348330361    1.11409700222601
F        -1.09052263617450    7.63255635917485    0.03223329240734

