83
CSD_code = AYUCAA | q = 0 | S = 0 | Stoichiometry = C31H43HfN5S3 | MND = 7
Hf        3.79058935161253    3.83253250625921    3.81127854045745
S         0.25233474688231    5.85115688597922    5.26603998445612
S         4.86668820346203    1.62741550056721    5.31337581720589
S         6.48426618202876    4.27099770884951    2.72884809633727
N         2.08975920968735    3.28893013121186    4.93482388906909
N         4.21480226384690    2.10580459207172    2.46904992470284
N         3.74944556511715    5.54067375158489    2.52287618429935
N         2.00833074223827    3.63582732842923    2.23823744727068
N         4.72447021711365    4.89726530918664    5.24625989948795
C         1.11262361002932    2.62466849982182    2.78149815383148
H         1.60616340219836    1.65602627099608    2.68447912801666
H         0.15756323631050    2.58654552407268    2.23419292692412
C         0.85878808010343    2.90351741177267    4.26702588902104
H         0.05759381319784    3.65261549610112    4.37531621341839
H         0.46373149826029    1.97711436695134    4.72499218244718
C         1.90930768988498    3.81468827553216    6.20722483937258
C         1.05039452263818    4.88658732902229    6.54136093834368
C         0.86478541535309    5.28351240409217    7.85412574973426
H         0.17326213079372    6.08207466227089    8.07878909896633
C         1.56965756160196    4.68788582950910    8.88366653647695
H         1.41904997449817    5.01500970762973    9.90102370239144
C         2.47002567497712    3.68091808337510    8.58209887056586
H         3.04420584353325    3.21337129527841    9.36860145318545
C         2.61561543631156    3.24778139730905    7.28060153401256
H         3.29725894791365    2.44030230889581    7.06701868813134
C         0.44694794625118    7.54742323050772    5.90280358744010
H         0.39470878641597    8.20179909803957    5.03780051181996
H         1.41440646657527    7.63550339676202    6.38667987064827
H        -0.35721195652252    7.79148097566554    6.59101875620584
C         2.61640537786297    3.24443415288109    0.97458773071071
H         3.15769193560530    4.11701641777875    0.60016109402437
H         1.84928571826407    2.96944722769215    0.23151335954453
C         3.60638660166010    2.08680377985610    1.15090489082261
H         3.09185344748788    1.12138168286143    0.99421817879799
H         4.34931056293260    2.17823802738415    0.34472494222248
C         5.32291977933312    1.33586500333979    2.61841519241752
C         5.84887344920856    1.12353693902838    3.91632540189512
C         7.03169670701894    0.45260303298534    4.14707534180102
H         7.37694581372017    0.34862145473573    5.16444581455049
C         7.74248859953368   -0.09458439542225    3.09394911390129
H         8.67277534463218   -0.61154203005360    3.26632995547900
C         7.20152015277244   -0.00648240790935    1.82120044598053
H         7.70631664017706   -0.47893934086238    0.98981084457394
C         6.02310577491918    0.66840706261623    1.58541872693991
H         5.64205755013048    0.67817355474011    0.57568516179005
C         3.52808633003267    0.39740112369388    5.09746148380946
H         3.92465793950097   -0.59028816057708    5.31647872921906
H         3.17434305026128    0.44958098362057    4.07309423226251
H         2.72892642310580    0.64844239448408    5.78578831796084
C         1.38001180785835    4.94320739169292    2.10879710478307
H         0.64355051836861    5.05981616659967    2.90192724882141
H         0.84818622271897    5.02151946229480    1.14802561185856
C         2.43060824714400    6.07066233219349    2.23111040209274
H         2.46028510682636    6.63922336371549    1.28703786040076
H         2.09674139974460    6.76995082411263    3.01709912562384
C         4.75938621976392    6.44592665100711    2.55650259091077
C         6.09964699449225    6.01342242956440    2.70178386765292
C         7.16078777852859    6.89500284434479    2.75791164122770
H         8.15555327173946    6.49530726271067    2.88789046018286
C         6.95672547292439    8.25820096127253    2.63566362217561
H         7.78707019935233    8.94506025342296    2.67842755951336
C         5.66216520402474    8.71510773200980    2.44335991834411
H         5.47743359325840    9.77419854530770    2.32936431111349
C         4.59544445884399    7.84323081687014    2.40315636721556
H         3.60786807722340    8.25523915397425    2.26856970153701
C         6.61775791761767    4.04839282395061    0.91578993113294
H         5.68393647754868    4.34236257966023    0.44685928474120
H         6.82968249852013    2.99886321071125    0.74012416349015
H         7.43356662385780    4.66381150603925    0.54840866660405
C         6.01785572534339    4.62477638676175    5.84666550222504
H         6.70703131332779    5.46971802715133    5.67773825695853
H         6.45269368679112    3.75471586053626    5.33654098099469
C         5.99577928964708    4.31956382729746    7.35270023032851
H         5.62321407703762    5.16848801756213    7.91914276357275
H         7.00535719534933    4.09580656054771    7.68863778487519
H         5.36083745722050    3.46247417927670    7.55137206750194
C         4.05354611705467    6.05683269914213    5.80732024401225
H         3.68118855934084    5.84428495315266    6.82695196570760
H         3.17924450022621    6.25724870719447    5.17274808482591
C         4.88866888082957    7.34633457855877    5.89235901244152
H         4.23683019149522    8.18124516495869    6.14351757806121
H         5.37316209875801    7.55841716996026    4.94479808010136
H         5.64897105660779    7.26804177570951    6.66440063590942

