81
CSD_code = AYUMIQ | q = 0 | S = 0 | Stoichiometry = C31H36BN8O4Re | MND = 7
Re       15.96077666359672    3.90956602161248   13.09832623353043
O        13.56733701475298    5.53048518627721    9.46076437736496
O        12.11591899753826    3.93252222820656   10.03711646571129
O        14.63791193970472    8.46944017173664   15.90970700955770
O        14.96097017962216    1.47934778917725   14.68392639908444
N        17.12233608735983    4.67293941448510   14.77916142554048
N        18.31865446477406    5.23211576537960   14.58803313625289
N        16.82530256212862    5.56696004239452   11.96483363608154
N        18.05682590214882    6.00854286849450   12.23747840610755
N        17.92565260727828    3.05251072763161   12.65180537105709
N        19.02934203954626    3.79705310881825   12.72412804784221
N        15.46695702374553    2.92882155681214   11.17096798771734
N        14.91942121614773    1.30065064913437    9.80039610949638
C        12.42215268850333    4.96480048111529   12.69491864119489
H        11.92583560849436    4.00404729241161   12.52094134493964
C        13.87156834203203    4.78784580769428   12.98655297819347
C        14.53499804136818    5.35486891278516   13.92383299910831
C        14.09904819606624    6.33640329177752   14.93832513535556
H        14.41185838019104    6.03670097709362   15.94516562942246
C        11.91584667300934    6.95696188028294   15.94199942963964
H        12.50757331488366    7.50815338690637   16.65720012733603
C        10.54270586716251    6.89209764060688   16.07926698056469
H        10.05285379387958    7.40352516550463   16.89468145453334
C         9.81028010516028    6.12792115815262   15.18894560953816
H         8.74259568531040    6.01701415019723   15.31084458028198
C        10.45422802426845    5.49897430241331   14.14000715655914
H         9.87700463892448    4.88390732128364   13.46580599015792
C        11.82740289764658    5.61837443239122   13.94232546101263
C        12.57467035645818    6.31633260424641   14.89826630128103
C        12.17666204798036    5.84531105963460   11.42949311807604
C        12.84258129436101    7.21108151323773   11.56946503366956
H        13.87301181416164    7.09830951220149   11.89091782947806
H        12.30820333317884    7.80227868703914   12.30923640291602
H        12.82888392335138    7.73645445259506   10.61694018873092
C        10.68376197531544    6.05027832540094   11.13244549086139
H        10.57164082744328    6.58157861092189   10.18782095161251
H        10.22461256178483    6.64790547935476   11.91484029755080
H        10.16579161001087    5.09790817201217   11.05551035685686
C        12.73252507131307    5.11176989196579   10.22006359370252
C        12.40498596341903    3.24725932970372    8.83115830003217
H        11.81444604272142    3.67098448556826    8.01448002081831
H        12.12631088385384    2.20804608887115    8.98945419425201
H        13.46382289654882    3.34133410665531    8.58273514768297
C        14.71063885516983    7.72748748053093   14.71215571924941
H        15.76550337776738    7.61268378403306   14.41280384077092
H        14.18511617001895    8.26169110233856   13.90740096988952
C        15.18427904501274    9.75349400722801   15.78789027516500
H        16.24614203226304    9.71017684435866   15.51155908848144
H        15.08254205980442   10.23311932380861   16.75949072096265
H        14.65125632181047   10.34400967393555   15.03104332916490
C        16.86644524634363    4.69777910577850   16.08059730476663
H        15.95790168902130    4.27996050867803   16.46849171614048
C        17.92643149837815    5.29965065900711   16.75512958829284
H        18.01877371102401    5.47276747251917   17.80726415835936
C        18.82955249392418    5.62173946760077   15.76472436675323
H        19.78922904303586    6.09450796342677   15.82207573641934
C        16.33486004354939    6.32530308721146   10.99943799930172
H        15.36679146847812    6.14266943651836   10.57801491035966
C        17.26848882792634    7.29837126395887   10.63628621206229
H        17.16226735466148    8.05784459605889    9.88905653143907
C        18.35181903841716    7.05642807415041   11.45144171182704
H        19.30039549724655    7.55001737704845   11.52147399544905
C        18.28035785491531    1.84397611417490   12.23636353915154
H        17.55430581851083    1.06103305420166   12.12401464822823
C        19.65734678646425    1.80387045432983   12.02708179648827
H        20.24562088416936    0.97386433989299   11.69336475684378
C        20.09265748641501    3.07114059477751   12.35489185232284
H        21.07733185247852    3.49284058724116   12.35009154616745
C        14.74656329014896    1.83682785335421   11.02111754384358
H        14.10321028579577    1.42514399007843   11.77397997501944
C        15.79710183241150    2.10713727538691    9.13487869383014
H        16.11069956848255    1.90655780454510    8.13113118637771
C        16.12681876286740    3.11257303927466    9.99501347281854
H        16.77939226970018    3.94542874959414    9.82411087956666
C        14.33206020387099    0.09123815210047    9.29847775725938
H        15.09032902860734   -0.69009639948997    9.20363015389242
H        13.88686271761030    0.26460971415601    8.31712517771495
H        13.56273099925463   -0.24886199528020    9.98975377662388
C        15.32325407780116    2.41914431969621   14.10287602703227
B        18.97488409125899    5.26171632937876   13.20372606553615
H        20.05566885833915    5.74477074427586   13.23944762572570

