55
CSD_code = AYUMAK | q = 0 | S = 0 | Stoichiometry = C18H24BO8PSi2W | MND = 6
W         3.60045508245261    5.91011817265620    8.40813131199062
P         5.03916059965216    7.82724374473406    8.92760176929219
H         5.91753083012673    8.20472989729544    7.88923872280144
Si        4.10827153697644    9.43219368330026   11.32873542288224
Si        5.22335264678122   10.85547564953632    8.54980198325065
O         6.21885234478989    7.72399873039156   10.06862478232820
O         7.67646934753640    6.44514741459295   11.50336766412131
O         6.73948909647344    5.40650419402958    9.69366681487182
O         1.74957713694752    3.52480787863298    7.58188172206024
O         5.98721988992983    4.47322540127309    6.95790703111752
O         4.29934275422873    4.37474100715870   11.05838916611579
O         1.09498480337375    7.38432063827438    9.58727292768302
O         3.01793253750769    7.49376109748213    5.76066810487584
C         8.07140459622516    5.13160588150781   11.48490806583295
C         7.49571044561856    4.49581859443336   10.37926965779725
C         7.71308412574870    3.16119101145002   10.11472799483514
H         7.26082505074596    2.68048787624192    9.26305843616727
C         8.53595914845806    2.47669939690341   10.99891629575339
H         8.73075473605144    1.42918229442954   10.82869198213717
C         9.10957859545474    3.10619557463565   12.09405221074510
H         9.74227275741909    2.53818405104816   12.75845274189582
C         8.88866465841801    4.45102119122711   12.36134395635053
H         9.32874087234104    4.94330567415330   13.21256913369995
C         4.30802193553889    9.40318555897485    9.41021795295162
H         3.29893877843703    9.37196211492722    8.98984836938852
C         3.78173334417935    7.71540104818595   12.09245230464602
H         3.07730611144917    7.13450831911454   11.50262138242640
H         3.36804684832395    7.80927664556311   13.09265604029045
H         4.69999543418083    7.14166070849134   12.17117680859613
C         5.65111411608931   10.17981251991318   12.16216239169054
H         6.53709861217694    9.60000808173014   11.92557901712962
H         5.53369861281714   10.17897139993750   13.24139395069105
H         5.82698962769208   11.20476724394585   11.85375002338281
C         2.56938797570191   10.50875231850038   11.67259212848139
H         2.65844994261105   11.49758504332912   11.23807003037501
H         2.42541164304645   10.63223525659409   12.74021650719926
H         1.66828128070570   10.05402561099361   11.27323892497513
C         7.10044736809049   10.76203094555833    8.86896921252151
H         7.38455106455560   11.32234244012959    9.75351243130697
H         7.66329369310209   11.16615701964151    8.03287255876154
H         7.41818036767375    9.73457038389615    9.01867240766450
C         4.53094498504417   12.52592097495608    9.15274347245879
H         3.46430839074196   12.60313164323385    8.97077764230130
H         5.01049336490597   13.34111815328471    8.62177539928357
H         4.69799526141857   12.68112183456205   10.21274613815198
C         4.84163381634213   10.70108127949854    6.68312032432583
H         5.11942961629536    9.72591096236961    6.29212941801277
H         5.37392936321247   11.44995470702921    6.10462359340843
H         3.78124085458773   10.83517550134893    6.48817013088876
C         2.42234822371729    4.39815141294725    7.88829778905583
C         5.14322452090787    5.00468371330682    7.51087086341403
C         4.03290699749435    4.94916309004692   10.10720816736669
C         2.02710464164807    6.83552344603246    9.21222961946410
C         3.21984633887788    6.89447097650401    6.71430460618571
B         6.85621327518285    6.58838059006483   10.40722249459639

