43
CSD_code = AYUNOZ | q = 1 | S = 0 | Stoichiometry = C21H15N3O3Re(1+) | MND = 6
C        -4.62003540576474    4.51879937829800    8.01718539235428
H        -4.51067117132441    4.34797774644186    6.95395393863906
C        -4.97469487088427    5.78367790375717    8.48967953886513
H        -5.12848413998506    6.58597055040636    7.78663519905146
C        -5.12585462377168    5.98236189141046    9.84151755398742
H        -5.39969738094682    6.94704315633794   10.24005441900623
C        -5.08626117524857    4.99373468373926   12.12609614170134
H        -5.35302385468438    5.95273722048287   12.54259872098524
C        -4.91785198019157    3.91195145045500   12.92443817576078
H        -5.04701849644432    3.98731844163854   13.99305744802674
C        -4.42521610534589    1.48313685038080   13.16198073924908
H        -4.55743622247092    1.53866811130644   14.23149199146545
C        -4.12004992572162    0.29595094599226   12.53969359304329
H        -4.00637977213646   -0.61635567334127   13.10216841104789
C        -3.95883634508884    0.26927916539978   11.15323814089323
H        -3.73094386535424   -0.66235426427524   10.65151899335403
C        -4.39649594497455    2.51427630187989   10.98638126353649
C        -4.57435928384257    3.65800366841408   10.14237287585604
C        -4.93017126098382    4.89809839696447   10.71305653310357
C        -4.57864565077439    2.63981714744128   12.37963762201540
C        -0.96890141124900    1.50934108002293    9.62205387282651
H        -1.37292975268337    0.58982642245648   10.02656309147054
C         0.31025204790573    1.90148185867652    9.96159332949357
H         0.89315797411583    1.28863894757082   10.63096575496120
C         0.84364884429532    3.07070801989753    9.42600347119162
C         0.01688634888047    3.79135441719185    8.56520278480453
H         0.36618175195792    4.70413436018803    8.10873025712549
C        -1.24996366974657    3.32830206776867    8.27910302429675
H        -1.88247790189941    3.88115090231197    7.59603657415605
C         2.21851509854574    3.53454115216444    9.74915743688783
H         2.73813577476541    3.84469418002111    8.84489935593156
H         2.79203332904245    2.75497025094666   10.24245890197593
H         2.17160595186400    4.39984047312752   10.41086617072332
C        -3.12948565492221   -0.33067317938313    7.99717393581757
C        -3.47113632212021    1.87982234612403    6.36715437776225
C        -5.63649461149019    0.94436501451155    7.90237241781978
N        -4.41447761595350    3.48259602855697    8.81174983374663
N        -4.08199384333046    1.34225866681158   10.39111901658531
N        -1.75379106070823    2.20249232052665    8.79371504228875
O        -2.72655876377711   -1.39292538365371    7.89481630633025
O        -3.27387766528939    2.15639095259890    5.27821402181118
O        -6.72366967618587    0.65258538577696    7.73330061828052
Re       -3.79043169607476    1.49221064266138    8.25799371177296

