95
CSD_code = AYUSOC | q = 0 | S = 0 | Stoichiometry = C43H48P2RuSi | MND = 8
Ru       -0.91450157429235    2.83784630233118    4.04316049721096
P        -0.96712787812479    1.67796990605247    2.12322257836993
C        -2.55146555338430    1.25260810064581    1.31302717777599
C        -2.60990288283719    0.64419106142001    0.06332026648302
C        -3.83445833917860    0.29696611084504   -0.47645497335653
C        -5.00452926820238    0.55012099242784    0.22378576538314
C        -4.95117804322101    1.15207687336709    1.46985281055008
C        -3.72602712616168    1.50140594023393    2.00950265355187
C         0.01870145895125    2.22042540829029    0.69700731129081
C         1.35618739832317    1.87825048725613    0.52704648915426
C         2.09108030633895    2.44703618517686   -0.49789000993743
C         1.50464840092293    3.36039891512675   -1.35780666573165
C         0.17281518130431    3.70757444588556   -1.19344575269416
C        -0.56274378212298    3.14633827294614   -0.16774667054760
C        -0.36111016175815   -0.03640484229271    2.49035540878209
C        -1.13437778417206   -0.53969250207807    3.70419174047152
P        -1.16583707553591    0.81243597972249    4.99581289729718
C        -2.68677682954788    0.44020535811068    5.94087743335756
C        -3.89249529674972    0.12970878611004    5.31832176976232
C        -5.05145574733920   -0.00869997175675    6.06069624599764
C        -5.02911287053795    0.17842160369199    7.43289777889137
C        -3.83821903844313    0.50624972846683    8.06038984158109
C        -2.67808247208041    0.64082495125221    7.32070401919876
C         0.07118405297559    0.17827163265940    6.18675780135528
C         1.11425436603199    1.00485543853792    6.58090899251511
C         2.06056223588675    0.55213040807383    7.48369165483521
C         1.96289337239142   -0.72730375929784    8.00319362798066
C         0.91423685176338   -1.55235509983620    7.62469131632591
C        -0.03062630448187   -1.10348103761158    6.72219471736519
C         1.02468746836176    2.45474994312225    3.75303766097158
C         2.22911206010927    2.46587934296634    3.55224428445459
C         3.56160133849924    2.43547579631935    3.31803891650539
C         4.75769553867578    2.41232903347094    3.08616351525036
Si        6.55892036360376    2.37715700349161    2.71920943419257
C         7.14444581845922    0.56601480154388    2.56490703137280
C         6.88910809646680    3.28828622256251    1.07320840075833
C         7.52368023024684    3.23671732515050    4.12462631767989
C        -0.77920740787385    4.99528113398915    3.67111004648545
C         0.03059670960605    5.77677997962492    2.67773822206246
C        -2.16599820295108    4.63867906117617    3.53179584343067
C        -3.02856658840355    5.00268641087205    2.35978548492847
C        -2.61876456359636    4.11756562655915    4.77239779109109
C        -4.04857966354904    3.87447743009149    5.16418071282701
C        -1.52013314776780    4.19203298435572    5.70796620000316
C        -1.65391992372559    4.01377479094138    7.19260619718935
C        -0.40590968661727    4.76981129892105    5.03816897103097
C         0.86867215976810    5.23996824758146    5.67398374184901
H        -1.69557514530712    0.45342242576432   -0.48256390610131
H        -3.88031897017617   -0.17394948636834   -1.44787461767912
H        -5.95808281991899    0.27741103914263   -0.20434125325903
H        -5.86268067889462    1.34791216783517    2.01734779753615
H        -3.65433798464740    1.96782461107516    2.98542388766073
H         1.82802209814162    1.17807450070036    1.19807060208832
H         3.13083100993967    2.18094611859481   -0.61784185699428
H         2.08366312894932    3.80519071947229   -2.15378178091645
H        -0.28807864995900    4.42070462683335   -1.86244293470910
H        -1.60419336605655    3.41167463316558   -0.03226052927545
H        -0.49360916350738   -0.69046840059781    1.62232346911006
H         0.70212656959929    0.04394785596567    2.73830182325059
H        -0.67853499083841   -1.44398482475355    4.11738896231953
H        -2.16469564230623   -0.76542869510959    3.41358785688184
H        -3.93300501982976   -0.00498998886806    4.24697802676409
H        -5.97846405453031   -0.25919715927782    5.56483603476603
H        -5.93608730614701    0.07396452038467    8.00988471523721
H        -3.81459603325720    0.66030629285415    9.12976813637080
H        -1.74869097508868    0.89358363614233    7.81285581117610
H         1.17955481778168    1.99833893930156    6.15490540109366
H         2.87516907015713    1.19668452368547    7.77984475173773
H         2.70070323746504   -1.08439314776776    8.70684595350334
H         0.83423050296462   -2.54771671831884    8.03800905253321
H        -0.86007762328252   -1.73993404833887    6.44145137879139
H         8.20712548624650    0.50568103724075    2.34622519364503
H         6.61486332572145    0.04941369354219    1.76977473670944
H         6.96571846475723    0.01798250053667    3.48527782390136
H         7.94693078459075    3.29848146492189    0.82494407461933
H         6.55224741431377    4.31949026189037    1.12338818403523
H         6.36273534961061    2.81322681767312    0.25051740315524
H         8.59470386053979    3.22620669417478    3.94114858803306
H         7.34770609244512    2.74432480818611    5.07647972413170
H         7.21795370176073    4.27329758201372    4.23165432224875
H        -0.18006258415318    6.84476305445246    2.77759480095789
H        -0.19694324245428    5.47467744350907    1.65579324540708
H         1.09489893939748    5.61847242877667    2.84228126664841
H        -3.51926749881573    5.95865565258491    2.56057976235899
H        -3.80219158834417    4.26027551348077    2.16823249126510
H        -2.43103612436594    5.11471394104256    1.45723463320641
H        -4.41907711113010    4.72644884123187    5.74022124301939
H        -4.15425001709753    2.98202619887375    5.78196164966193
H        -4.68381794688138    3.76145399177280    4.28737427677731
H        -1.87610316959905    4.97846330368095    7.65634427279603
H        -0.73541041200563    3.62859641665215    7.63407809678478
H        -2.46396515686383    3.32712195682086    7.43182492814962
H         0.83570347338789    6.32517259731901    5.79556205236807
H         1.73262501836422    4.99239121052643    5.05807789393963
H         1.00646473323252    4.78999633899125    6.65517705899268

