67
CSD_code = AYUSIY | q = 0 | S = 0 | Stoichiometry = C33H25MoO5PS2 | MND = 6
Mo       -0.97819794780607    6.09925153274548   11.96520185316560
P         0.80734947041867    4.48356692554639   11.70020677989104
S        -0.81777699651192    7.11589719378707    7.34107112853368
S        -4.12383416779323    6.53607022610908    4.52401214696137
O        -1.74470818585523    5.10703041058812   14.79935793259267
O        -2.75231033325263    3.79392800293312   10.90279808885783
O        -3.44712488753350    7.94872202018846   12.11784533895660
O         0.38206690805955    8.36786475251643   13.57011370224040
O         0.55776199025271    7.49529944434118    9.61412165308005
C        -1.42500190012608    5.41993229495899   13.74672908949659
C        -2.06950799358161    4.65740099246601   11.21242449011838
C        -2.52579678059518    7.27406738539341   12.06242540447485
C        -0.02413255129995    7.53100258128053   12.90110064425268
C        -0.53082071256220    6.88479451475672   10.05984507452690
C        -1.43095947493656    6.78014855846574    8.95271704424007
C        -2.77409826346479    6.46479489267181    8.89640157398457
H        -3.36900169426740    6.25830803733300    9.76862389152153
C        -3.29737741911287    6.47099695948516    7.60594682211356
H        -4.32326445767388    6.24756766039128    7.37029475996857
C        -2.36581813240181    6.78877914867811    6.63778320256235
C         1.67115760707767    7.74830112187786   10.44300021123643
H         1.88793336428317    6.86675340057158   11.06457400678279
H         1.44146046285932    8.59798693994424   11.09880575278172
C         2.85559299136897    8.08030578861174    9.54975719051920
H         3.72917600070652    8.29055343558125   10.15970073807511
H         3.07047993750993    7.24107394260358    8.89270656361128
H         2.62908061385477    8.95045498179146    8.93922663725984
C        -2.56486693841350    6.86467736502942    5.22966014041868
C        -1.64846219633588    7.18299472764751    4.25758172456849
H        -0.62454496232624    7.42138705849777    4.48415249843254
C        -2.19069219146385    7.16442792082376    2.96143731298020
H        -1.62624715042291    7.38813056465446    2.07410532565292
C        -3.51027089937070    6.83383638540682    2.94914103560272
H        -4.16667280651212    6.74623048868949    2.10640761007526
C         1.47779140974174    4.36554857403624   10.00701257982864
C         0.55956419853037    4.20303274818292    8.96999927674413
H        -0.49461379046093    4.10156279340795    9.20123124069764
C         0.98192595951423    4.17988602920354    7.65465032608202
H         0.26173483671045    4.04922791658346    6.86003895226495
C         2.32649521176131    4.33463274325631    7.35616678255948
H         2.65688216315535    4.32475022772099    6.32824925410083
C         3.24239477550244    4.51127291696871    8.37867150849994
H         4.29068741916682    4.64076495802840    8.15013393864136
C         2.82377576859745    4.52880696515032    9.69888427116626
H         3.54789240154879    4.68056910836258   10.48767375153183
C         2.31647554701756    4.40554455608689   12.72186024977258
C         3.15727722076140    3.29561994915986   12.64517490258881
H         2.91962397939796    2.49214219107214   11.96009328878764
C         4.28268270565532    3.22442298630228   13.44238486675743
H         4.93210377363920    2.36334643613092   13.38040701309115
C         4.57676394601010    4.25338783500309   14.32518318610992
H         5.45591883927986    4.19257683222692   14.94941850325056
C         3.74029785717953    5.35266343172255   14.41163468327244
H         3.96268086490645    6.15083050722826   15.10432772606613
C         2.61122082859852    5.42752301654094   13.61317243418542
H         1.94511802978664    6.27680515489084   13.68752403024260
C         0.23831330643179    2.77359459006726   12.00534393565627
C         0.07829271137405    1.79226137629817   11.03571591790463
H         0.33821475465580    1.98963655206553   10.00515681552666
C        -0.41418604554876    0.54631001639473   11.38769473098678
H        -0.54116360420416   -0.20982288663301   10.62638958017844
C        -0.74355517731768    0.26844659894771   12.70233234735924
H        -1.13309106681877   -0.70282164521179   12.96889576033545
C        -0.56907354523004    1.23852392308793   13.67739956568408
H        -0.81713417988878    1.02471772447976   14.70659130234074
C        -0.08148919768585    2.48261187498430   13.33033666190032
H         0.06520779544100    3.24288634189805   14.08877324634532

