53
CSD_code = AZAJIW | q = 0 | S = 0 | Stoichiometry = C16H26BrClN2O3RuS3 | MND = 6
Ru       -2.68784709441957    3.73523153769274    5.56692775824100
Br       -1.03022763573612    7.90222089321597    9.44169021956173
Cl       -3.28732458340979    1.55670803198791    4.79701884680094
S        -4.83135982745623    4.18462174459695    6.12831965297395
S        -2.39362332931011    2.55703634543778    7.59231393521933
S        -0.51331244938292    3.39944421764189    5.05469663353513
O        -5.10124337899822    4.25885437121799    7.55008633317183
O        -1.93551781010346    3.28879152965363    8.75758773639229
O         0.36951291055437    3.15917895036030    6.17810481959142
N        -3.25935711130026    4.56217289189851    2.54630097660161
N        -2.66462873845095    6.09702478366982    3.93286592622900
C        -2.92336647445316    4.76926630451108    3.83342654420172
C        -2.83699006308064    6.71233414653055    2.72564884076045
C        -3.21160595397946    5.74513095846033    1.85275507184940
C        -2.27785878638915    6.59541468392258    5.19087953672242
C        -2.20484669693213    5.60884836285513    6.18606610807011
C        -1.82941347714387    6.01830892007741    7.45339746460684
C        -1.54597809480025    7.35338402449027    7.69252429469867
C        -1.62394112757723    8.31740462150920    6.70034796290711
C        -1.99631598180888    7.93277042969090    5.42477654973158
C        -3.62302853543478    3.30084003309161    1.95767674907133
C        -5.52405850590065    5.73268163770606    5.43775740657593
C        -6.10254716316037    3.08249309524112    5.41732801616213
C        -3.85751905737591    1.61291407745254    8.14595556737630
C        -1.31348201892223    1.08757982610893    7.47331080622368
C        -0.18165392872099    2.06995397659511    3.84625436689488
C         0.29920928299477    4.73213157094059    4.09714942648592
H        -2.68783407866226    7.75997202826176    2.56817238634124
H        -3.44397492088314    5.80490982499676    0.80931283757402
H        -1.75642794894567    5.29425295936241    8.25140921092610
H        -1.39834856486463    9.34896586119778    6.92003736868661
H        -2.06309592407091    8.66903648522175    4.63751456941978
H        -3.57219129023664    2.52319747648394    2.72279599016665
H        -2.94124570201765    3.05355803197458    1.14284508902495
H        -4.63731147706828    3.34875584359115    1.55852366852370
H        -4.91388798101817    6.55224197748556    5.80223648344974
H        -6.53582856396236    5.83401818370145    5.81262731614688
H        -5.50738259992629    5.68896346340522    4.35490635827159
H        -7.06503314501060    3.35967695846733    5.83019819655771
H        -5.85227740803216    2.06184454121555    5.68552810010568
H        -6.07593229063736    3.18874470164405    4.33953332170511
H        -3.57636177469733    1.06056506524899    9.03486452788567
H        -4.15655720663053    0.94454941686429    7.34591717925785
H        -4.64093346910184    2.32452999261072    8.38127918150473
H        -1.33909755843814    0.58085593364249    8.43074671183737
H        -0.30858694329277    1.43379221606558    7.26012890514820
H        -1.68731376328656    0.45018199150185    6.67958417378537
H        -0.69157354507698    1.17488527998378    4.18746246471561
H         0.88858847700665    1.90792083159251    3.80320601299330
H        -0.58514241010791    2.37314706850203    2.88768389677383
H         1.33604647422131    4.44853834818777    3.95933746697547
H         0.24130788076345    5.63831366643543    4.69077150483133
H        -0.20437863532545    4.86073988579810    3.14610952673521

