55
CSD_code = AZAJOC | q = 0 | S = 0 | Stoichiometry = C16H26ClN3O5RuS3 | MND = 6
Ru        6.61979675202594    4.57650204658651    8.16219726688155
Cl        5.96782725190906    6.73794011442757    8.91596244772180
S         4.47473978720759    4.06152295518379    7.64997842729004
S         6.85046326068695    5.73145262018418    6.11857740335251
S         8.79452998883499    4.99493360121522    8.63498523199930
O         4.17581494653847    3.94990654754797    6.23784351631172
O         7.32674206084560    4.98666465032687    4.97227634712891
O         9.65382098370850    5.23534510911870    7.49506088715796
O         8.63205955318918   -0.63339215396768    4.63622047825643
O         8.04118529851881    1.26048809445149    3.81872796384082
N         6.12460267552044    3.77349219573236   11.19757046975396
N         6.76591189704254    2.24354175836622    9.82569147201086
N         8.19348978636690    0.49753895139144    4.74455853740917
C         6.45097124321034    3.56249792895805    9.90976857095994
C         6.63652412963679    1.63995946804787   11.04583834152434
C         6.23308482178134    2.60360105547624   11.90813900172926
C         7.14552220616468    1.74015937945072    8.57087265524940
C         7.14971886391598    2.70884587884624    7.55306354226814
C         7.49862513205621    2.27490946855177    6.28489565948805
C         7.83213723842868    0.94089838658467    6.06670729553882
C         7.83058378641774    0.00363803269795    7.09546985665354
C         7.47947696842464    0.40648394973056    8.36688182243125
C         5.71467174374389    5.02556252826366   11.77586709344444
C         3.84713101824090    2.50842766684777    8.38996246655854
C         3.18988828914812    5.14176515978392    8.36911835022849
C         5.34918790011578    6.61090494799188    5.55900642185724
C         7.88066429743428    7.23937542094678    6.19855445017350
C         9.09516187544571    6.36295457208541    9.80714069709040
C         9.66028894796279    3.71244148960065    9.61412363113820
H         6.83253828954909    0.60246441737741   11.21784054431649
H         6.01741148927471    2.55077201017704   12.95556022496584
H         7.52269089306831    2.96854597552577    5.45552923658865
H         8.09724109913538   -1.01948829624385    6.88258668878760
H         7.46516834549953   -0.30575522137433    9.17780319332730
H         4.71148764857635    4.93686194967171   12.19504687342118
H         5.71725951372617    5.79434344509496   10.99994326216466
H         6.39936729802721    5.31449283365655   12.57427018369039
H         4.47370112923934    1.70037112719001    8.02772729274460
H         2.83040847687956    2.36698164731135    8.04244432150957
H         3.88782130673394    2.57669550501919    9.47088964201174
H         3.24442848621037    5.05945480115593    9.44785343556548
H         2.22663757104797    4.82870724351399    7.98471397347234
H         3.40407270883858    6.16316479908721    8.07410940562283
H         5.03437750134082    7.28729336151390    6.34627954842834
H         4.58903757256189    5.86712597920856    5.34810491169543
H         5.60197500197780    7.15127178515956    4.65442039499052
H         7.49282313742993    7.88233791604688    6.98103462934995
H         7.83037522189290    7.72305788563743    5.23027920955556
H         8.89858546989085    6.93142531169636    6.40866348834299
H         8.69391827904042    6.07773723369305   10.77201597513286
H         8.56948741827822    7.23869956850547    9.44121150469098
H        10.16176915469011    6.54777781413890    9.84958089406167
H        10.68646001878208    4.03704259136057    9.74101564997469
H         9.63483119553134    2.79318914966153    9.03878322016247
H         9.16720306824713    3.58456734179703   10.57073198996622

