77
CSD_code = AZANOG | q = 0 | S = 0 | Stoichiometry = C28H36N6NiO4S2 | MND = 6
Ni        5.11933918769480   -0.00027416568317    0.00011192767133
O         6.60863140357924   -0.76004784317535    1.49472600848903
C         6.48326779872247   -0.20997714807379    2.56930137593078
N         5.77705600107714    0.93312670592020    2.77391894457807
H         5.64512776695849    1.25125819884053    3.72898401229386
N         5.06929408339896    1.46842291407923    1.74155033462220
C         4.34913753671000    2.50564081175278    1.90695224902388
C         3.60303365665605    3.02846051045496    0.72507840497563
H         4.07721137259009    2.64883160602144   -0.18125415213608
H         3.63087427304922    4.12017363533464    0.72921002095994
C         2.15272091509896    2.53950493898872    0.75907311707766
H         2.14106914310431    1.45564262270145    0.68349569930311
H         1.60284058420681    2.95354081827665   -0.08164929417804
H         1.65527753851264    2.83623172854665    1.68028906756922
C         4.20363182137890    3.24269177565476    3.21116895281289
H         4.07828087369470    2.54023178369864    4.04046806987084
H         3.30712551914930    3.86170036702417    3.16903129974297
C         5.41959496879500    4.14058613236644    3.46385818734118
H         6.33938918497879    3.56135675180584    3.49870792479971
H         5.30631834656750    4.66886489783728    4.40746380578526
H         5.51457572999805    4.87429829246991    2.66710891689391
O         7.04899619341895   -0.63288540047826    3.69836532360097
C         7.79017056567780   -1.85915008505160    3.58991652093959
H         8.56023046924767   -1.73237655910142    2.81960017542832
H         7.10768255861398   -2.65436816113172    3.27314993378264
C         8.39797643341455   -2.15781848316520    4.93015300803170
C         9.40376861601922   -1.33996077919722    5.43057748944477
H         9.74580973826515   -0.49975816556868    4.84443840701177
C         9.95984633814453   -1.59598824059463    6.67064852782083
H        10.74013104026045   -0.95478506632457    7.05328293476449
C         9.51933069188323   -2.67490986153166    7.41917588061000
H         9.95616288822776   -2.87704045703039    8.38584492716221
C         8.51686093392649   -3.49211064317400    6.92625941380052
H         8.16852701536546   -4.33235998418511    7.50819719943490
C         7.95420783969368   -3.23190368567889    5.68840087829642
H         7.16694356118092   -3.86645106664476    5.30893943916692
N         3.87214588286444   -0.96251384531314    0.86294462007126
C         3.48512518099729   -1.18092812936525    1.95414632179158
S         2.90556353197131   -1.53606941110730    3.38632870209167
O         3.63017175430292    0.75950850270553   -1.49460060521219
C         3.75595851957951    0.20972328038987   -2.56927707016882
N         4.46218578382018   -0.93336655391996   -2.77390330034172
H         4.59467775255066   -1.25111504179080   -3.72901776556618
N         5.16961740758061   -1.46884468207645   -1.74139334476420
C         5.88991248429471   -2.50596661897595   -1.90678344938915
C         6.63558861816609   -3.02905788165031   -0.72476132176621
H         6.16123182471120   -2.64943461077722    0.18147945864861
H         6.60749611291073   -4.12076352953077   -0.72903442297703
C         8.08602975275421   -2.54045792615762   -0.75827094719018
H         8.09793804803899   -1.45661236757711   -0.68252530940120
H         8.63557007576536   -2.95476629372749    0.08254200025990
H         8.58365898766256   -2.83716414970000   -1.67939030461892
C         6.03593530642545   -3.24266823334753   -3.21113522626768
H         6.16168750682464   -2.53997333002079   -4.04017627206903
H         6.93238300703876   -3.86174836192782   -3.16879881932549
C         4.82001248296088   -4.14040065256395   -3.46458286947828
H         3.90026408637488   -3.56110672497090   -3.49957472984385
H         4.93360975610976   -4.66836496325510   -4.40832381588065
H         4.72468959626831   -4.87437781527366   -2.66811781165337
O         3.19068377724374    0.63296740123599   -3.69844429553893
C         2.44974968968547    1.85936203632744   -3.59000319907497
H         1.67950762445501    1.73267534207276   -2.81984046247307
H         3.13233469374969    2.65440548101020   -3.27300237710898
C         1.84224632076625    2.15835987533973   -4.93030190762204
C         0.83792513401504    1.33947010384936   -5.43199205523361
H         0.49688003743872    0.49821653543926   -4.84679164189266
C         0.28209754327521    1.59579831744282   -6.67210669878982
H        -0.49702583373307    0.95378123324336   -7.05573273111771
C         0.72137067703674    2.67606934135512   -7.41941943679248
H         0.28477886689311    2.87840320810958   -8.38615004718131
C         1.72233841994249    3.49433502723299   -6.92521884411409
H         2.06970596939176    4.33563559153756   -7.50620944877495
C         2.28476778647491    3.23382376188692   -5.68732084475712
H         3.07089719884522    3.86919315020666   -5.30688756341379
N         6.36646045053625    0.96198106248701   -0.86276298355598
C         6.75396116419332    1.18007389674717   -1.95387458715128
S         7.33402443055046    1.53351927841851   -3.38625952508140

