57
CSD_code = AZAQAV | q = 0 | S = 0 | Stoichiometry = C28H24Cl2N2Pd | MND = 4
Pd       10.92384123934588   13.22737717803354   11.05005114140539
Cl       11.40415710195489   13.70314252315785   13.15810151177697
Cl       10.02273219528669   11.33860070873518   11.77163008617370
N        11.82156749704975   14.86292571140310   10.28914348583061
N        10.63604953278532   12.83343634269941    9.09539690220167
C        12.39999971273280   15.87065229097761   11.06035844728885
C        13.75991436829455   16.16445459897822   10.96892512088547
H        14.37938367686452   15.60483254500896   10.28167876549499
C        14.31900804464734   17.12325646803028   11.79748184848090
C        13.50374106398155   17.78920132509558   12.70616332782031
H        13.94209519289964   18.53339267328965   13.35574051109190
C        12.14949843949673   17.50360909403587   12.81373299693720
C        11.60081000537729   16.53585755143428   11.98597104656890
H        10.54942094940001   16.28155513609240   12.05056996751129
C        15.78725225560640   17.41716557310772   11.73551897522054
H        16.31336363432186   16.81974993078171   12.47998492158305
H        15.98191617396555   18.46571145918021   11.94915243625279
H        16.19502251893645   17.17241594536283   10.75749903644392
C        11.28416573793793   18.19460540058583   13.82056803630013
H        10.90915171432118   17.46615954575352   14.53771105299097
H        10.42562663977129   18.65678232916473   13.33584732315725
H        11.83930676586358   18.95941908957671   14.35712303480263
C         9.96962437813628   11.70825451670148    8.61096021655946
C        10.61525404035714   10.77666476576682    7.79820118762253
H        11.65180898998552   10.93289779698496    7.53289595429025
C         9.94912760078370    9.63338001666128    7.39072189311481
C         8.63198525412955    9.43899588775657    7.79407356643713
H         8.11526798736574    8.54346428003032    7.47948905617528
C         7.97799102871793   10.35299900866095    8.60824824967070
C         8.65678337306230   11.49069118435091    9.01870398009539
H         8.18012138338538   12.21838660918283    9.66479319312560
C        10.62807684020776    8.62410198368873    6.51503871035003
H        10.27470625219328    8.72036583616902    5.48790693664977
H        10.40384849297014    7.61427887968324    6.85064592116359
H        11.70568053871498    8.76502772431945    6.52036528610667
C         6.57611646462851   10.11725124089129    9.07630806309534
H         5.94557827316721   10.97498097792736    8.84814907050554
H         6.57308802386946    9.98020444931870   10.15659848358515
H         6.14980915492042    9.23244938622394    8.61102658511106
C        11.91737382748473   14.80513613568389    8.99071076826824
C        11.26238613998001   13.68289072614483    8.33088461517683
C        11.37667594124937   13.87472295489455    6.88976185786544
C        12.08981305951577   15.09014189167051    6.72484769678304
C        12.43848879283584   15.69546623629623    7.95982942595458
C        13.08365243616793   16.90978878299856    7.93409142232356
H        13.35192801171877   17.43056750087342    8.84029443133420
C        13.39084677273473   17.48386121969124    6.68737056985759
H        13.90413005666353   18.43434780552600    6.67969439186623
C        13.06314167630921   16.88972790734941    5.49354530807006
H        13.31748310651148   17.36649932313578    4.55839324172377
C        12.37611501416385   15.65512041483012    5.47911630850978
C        11.92551219776423   14.93920122747611    4.34734037375240
H        12.12736257870846   15.32629686516656    3.35946064097007
C        11.22457897330503   13.76890711473546    4.50442445233084
H        10.87624135979372   13.24152009252249    3.62836936468128
C        10.93190133690377   13.21929007713190    5.76548755898972
H        10.36377618068326   12.30411575918393    5.82830124172261

