84
CSD_code = AZASID | q = 0 | S = 0 | Stoichiometry = C31H45F2N3P2Pt | MND = 4
Pt        6.34390729570371    4.68496766131487    0.58999413302893
N         6.88908028985169    3.05544379002796    2.64397653298534
N         7.61558474812080    4.03504317133116    3.07745355111734
N         7.55470827319870    5.06532555682936    2.30255208445434
F         7.26509814008946   -1.72712347771220    5.33552345447078
F        10.30125913421760    9.64826257493515    3.54032168694166
P         8.09978139041889    3.70849997610106   -0.50452267346309
P         4.63260169875339    5.81118206757224    1.61829552934394
C         9.68880622122067    3.65095335454356    0.43891404105757
C        10.90200923061116    3.10079048014358   -0.29938277563164
C         7.87607262192532    1.98495646632612   -1.12302551098608
C         7.86041355177041    0.94084179781157   -0.01448747861033
C         8.56196751159592    4.52608611809343   -2.09274535693926
H         9.40521845054039    3.99481586873485   -2.54039629190952
H         7.70047360094901    4.41388511531652   -2.75671050359775
C         8.88762448603448    6.00159195394515   -1.91072328550579
H         9.10243217976992    6.46870088708108   -2.87017347695509
H         9.74998744914578    6.13774427590684   -1.26113213621724
H         8.03731362281376    6.51253380962518   -1.46341788675724
C         4.89189394983029    7.63703629289572    1.67404223678989
C         5.01251497610010    8.23192834924967    0.27754777240131
H         5.32416177445373    9.27340386881678    0.32812500449055
H         4.06414638996190    8.18118013051209   -0.25232215500345
H         5.74906021871097    7.67514952751912   -0.29874981989846
C         4.34083251833447    5.48836414737802    3.41249955708415
C         3.84963591165484    4.07220920593495    3.67897820062966
H         3.77046318357944    3.89239868697023    4.74952818710833
H         4.55430343884864    3.35589326701916    3.26363246429665
H         2.87368469902568    3.90275800521055    3.22950831226008
C         2.95876259075906    5.63093434082684    0.85863450743035
C         1.82359135772618    6.41815548379038    1.49963830145805
C         8.25608723643985    6.18693468438909    2.65999129184402
C         8.88203817314264    6.34127080167578    3.90433748318345
C         9.56733699072282    7.50135277870976    4.19704209570101
C         9.62952834337776    8.50803212946312    3.24831508357982
C         9.02434494018355    8.38383859043359    2.00918994691024
C         8.34082775885289    7.22247992427879    1.72236093917980
C         6.99331487117180    1.88204617208108    3.36137385312962
C         6.02034940462995    0.89212335981744    3.17662623439820
C         6.10773473344099   -0.31481982156984    3.83833586383226
C         7.17504382487132   -0.53905234775004    4.68873609542591
C         8.15602673242746    0.41528788564956    4.89306210852367
C         8.06315744540023    1.61907237519175    4.22928523020971
C         5.19210157345155    4.34237186259607   -1.07897537161049
C         5.15755208511129    5.21059966947005   -2.16764629306836
C         4.36660259094526    4.95878084646888   -3.27750796941115
H         4.36258995356735    5.65424165938831   -4.10580661543457
C         3.58492379691481    3.81903699999674   -3.32290065238218
C         3.59966774708102    2.94562794494156   -2.25105080585931
H         2.98780416645252    2.05315983733770   -2.27459302813371
C         4.38995941450609    3.19822314464208   -1.13708699445739
C         4.37438348386169    2.23616560271709    0.01849249525014
H         4.71541531173950    1.24959718683545   -0.29393319420578
H         3.36523827437690    2.12496632320517    0.41611799500033
H         5.03522526518184    2.61232224798295    0.80587215601157
H         9.89038940552745    4.67009741904645    0.78308257097253
H         9.48830703556174    3.04995131189502    1.33031118587535
H        10.71746332562270    2.09752673003523   -0.67536146732489
H        11.18108467396146    3.73937250537710   -1.13392900096584
H        11.75022967190099    3.05339108851519    0.38148556107757
H         8.66379115931698    1.76654598819255   -1.84996933795429
H         6.92056231864793    1.98231895839736   -1.65514338609214
H         8.84272771385152    0.83319601804695    0.44015646349038
H         7.15819868312250    1.22564345286352    0.76338454807021
H         7.56463588231729   -0.02853504343877   -0.41138735054023
H         5.81574026130142    7.80851073086982    2.23450079201024
H         4.07425764284243    8.10490722425981    2.22827901606961
H         3.63278089817144    6.22877691370179    3.79556244894670
H         5.29609137882153    5.64877788650868    3.92047735418026
H         2.73101563727072    4.56231414113011    0.87164707050951
H         3.06920715395228    5.90933668934675   -0.19282022498506
H         2.00660129302749    7.48878792701705    1.45349109473930
H         1.67894262922253    6.13510229986966    2.53935157232048
H         0.89657311707970    6.21588318615951    0.96597369395482
H         8.81506911226776    5.54145867685151    4.62505678411764
H        10.05289092824287    7.63728343566981    5.15080590463360
H         9.09613609459142    9.18706070606408    1.29258474934068
H         7.85862081704640    7.07917240003808    0.76333969163055
H         5.18954633399276    1.08091555143230    2.51518663374212
H         5.36007408630748   -1.08074392403562    3.70361741776287
H         8.97661247757522    0.20535181805696    5.56175700094647
H         8.81751731367429    2.37921810762397    4.36546064587653
H         5.75486301445463    6.11418840906908   -2.16359496388705
H         2.96652491676946    3.61361677943671   -4.18502062202787

