84
CSD_code = AZASEZ | q = 0 | S = 0 | Stoichiometry = C31H45F2N3P2Pd | MND = 4
Pd       12.05955731447185   40.04757423221194    8.17273193838992
P        10.33750502935138   39.08930293724980    9.29271423355309
P        13.76685098190730   41.16139705774707    7.17104186860581
F        11.12708987996194   33.64371019773523    3.47530755361943
F         8.12064721179035   44.97528064858047    5.10524950014652
N        11.56327851281931   38.41875698654964    6.18652871625716
N        10.83041475887572   39.38909896838705    5.73122704756691
N        10.86582060683005   40.43384444206804    6.48676807142278
C         8.73750817001345   39.02931402552631    8.36649050167355
C         7.52587663718191   38.49123788539082    9.11610725956163
H         6.67531325873274   38.43747542613299    8.43866979613993
H         7.25081398001189   39.14084004508622    9.94352681571937
H         7.70939285901872   37.49243627088293    9.50415620897140
C        10.54671963038444   37.37352860657032    9.93504724923187
C        10.55666017197579   36.31990370284229    8.83483007217727
H        10.86769457699466   35.35627892099998    9.23407292601194
H        11.24532730566659   36.60748849812957    8.04389922314522
H         9.56852342594870   36.19994424017941    8.39579562733510
C         9.89294520487467   39.93961728523003   10.86767371802205
C         9.64814526805115   41.42542368720046   10.64605548206814
H         9.50380392097328   41.94212740389536   11.59324778668756
H         8.76837826746241   41.58983101715960   10.02607238234378
H        10.51438459728900   41.86066889024740   10.14174145070015
C        13.45958640193449   42.97956771748419    7.12894138306403
C        13.20459134337248   43.51480311555187    8.53214603039542
H        12.81342109488165   44.52983791544053    8.49827470523125
H        14.11917959415958   43.51584197052912    9.12164395012859
H        12.47717675774544   42.87167112371470    9.03564171816196
C        14.08444980160853   40.85326943687650    5.38063014478954
H        13.13369434623987   41.00818187971105    4.86130187994695
H        14.79263876546127   41.60027389865891    5.01035887347539
C        14.58615099343988   39.43867957719902    5.12362592093255
H        14.66190842680648   39.24798858817147    4.05474047452553
H        13.88670246595223   38.72202210959807    5.55157085823366
H        15.56549767530921   39.28175780003223    5.57101702458202
C        15.44105285884473   41.02459823600546    7.94189978616862
C        16.57105056014371   41.81038355473363    7.29030107507461
H        17.49330570763494   41.64330076263299    7.84410000972662
H        16.36876269298743   42.87859148327640    7.29685754525052
H        16.73614149754333   41.49466678672058    6.26319932178904
C        10.16329811601154   41.54201978320184    6.08978637849282
C        10.02534178163237   42.58004750715618    7.01956645776042
C         9.34142374568358   43.73198265485464    6.69777041926411
C         8.79103477417385   43.84385230240402    5.43194545312009
C         8.90700431979223   42.83461837449020    4.49081038876251
C         9.59163055431972   41.68326924044054    4.81783497964736
C        11.44811287979513   37.24148346711857    5.46654491921342
C        12.42666158208011   36.25147254002751    5.61682528193393
C        12.32260756492167   35.04844181411654    4.94966764162247
C        11.23334599652535   34.82769688195319    4.12697606095765
C        10.24650353906628   35.78244540990865    3.95600450446080
C        10.35611138651484   36.98158448595294    4.62572672655015
C        13.20587522237659   39.70724755719790    9.81882726834625
C        13.26513506439804   40.57384731007699   10.90687495484866
H        12.67793792530468   41.48623722148349   10.91982934137265
C        14.07403730624818   40.30876618056195   12.00193478023393
H        14.09937987250315   41.00148508849702   12.83228094242275
C        14.84513929209875   39.16143718416101   12.03040436018756
H        15.47542188452057   38.94709664149826   12.88163282141889
C        14.80496700082223   38.29213857227568   10.95582746387436
H        15.40882565089667   37.39391838640643   10.96562592882722
C        13.99855625982035   38.55651991601028    9.85549499840437
C        13.99098811971210   37.60114130467077    8.69169227581664
H        13.68835358436813   36.60412220585374    9.01278516177905
H        14.98931331504970   37.51716589844755    8.25866370651412
H        13.28981576609356   37.96880288617231    7.92650211211706
H         8.53860527927197   40.04737764634474    8.01452331489189
H         8.92932548927826   38.41956650658841    7.47803839122832
H         9.75533522741331   37.17065099225613   10.66287459635494
H        11.50209453791870   37.36959881365273   10.46915717142348
H         9.01832032810244   39.45830153994356   11.31171468673695
H        10.74021449115194   39.79637971953048   11.54495506776356
H        12.57531797996136   43.13558321882969    6.50209949181622
H        14.30136805762143   43.49167011348354    6.65586146721020
H        15.68450278825051   39.95860758435507    7.95711901811518
H        15.32101996217950   41.32790298053310    8.98622193985505
H        10.46913352010063   42.44302086805302    8.00193521033340
H         9.22761024104104   44.53749637469205    7.40645598580998
H         8.46314371763341   42.96219475824346    3.51578448822407
H         9.70024051206942   40.88171138082102    4.10389490858338
H        13.27756785783004   36.43420949997603    6.25413372296482
H        13.07523567806166   34.28324594819851    5.05878553734223
H         9.40787862839662   35.57641629175848    3.30882504459628
H         9.59620064449989   37.74040761523018    4.51487849788367

