73
CSD_code = AZAVEE | q = 1 | S = 0 | Stoichiometry = C36H32NP2PtS(1+) | MND = 4
Pt        4.15133280152865    2.40114005299406    1.92047779320283
S         8.19780016022362    4.26455685420068    1.75683504643189
P         1.91219035895974    2.02209714754345    1.32617826989200
P         4.31613926669605    0.34987526611208    2.88391320489466
C         1.67801895774105   -0.56752024460030    2.41077361228203
H         1.48672398997078   -0.03391975507844    3.34850385893885
H         1.06638123246714   -1.47317409963048    2.41481553640174
C         2.21120476626761    2.39158124801088   -1.35437887190418
H         3.15203715748916    1.88396540939469   -1.16476632628803
C         1.56230166266378    3.63603248162527    3.49577166084429
H         2.63474304798564    3.79311077209394    3.36816406439349
C         1.26034021724571    0.29879520221018    1.22548572117593
H         0.17003890936233    0.35789329880489    1.15776107157579
H         1.62293836672529   -0.13840914980863    0.28944809445131
C        -0.47750113309475    2.58723790130269    2.77101408339663
H        -1.01734737060253    1.93095749971496    2.10342817914516
C         0.88933608174700    2.79546678923728    2.61063951211790
C         4.22865099155701    1.71592208807179    5.24702457973373
H         4.43660944359851    2.56340159851066    4.59829437026534
C         1.34478514205079    2.63198382326551   -0.29059633644990
C         8.33228468485003    2.99153802232252    2.89232784539318
H         9.28425055059681    2.79948205758590    3.34782913977965
C         6.50622284551687    3.90571142735176    1.56604382412665
C         3.85971365241972   -0.64940877131898    5.49767537635578
H         3.76080440626550   -1.64000419585837    5.07794265832571
C         0.88328066171529    4.26419023634076    4.52229316874488
H         1.41208006792225    4.91154362416896    5.20508376693608
C         6.08663410006561    2.84107906469930    2.34337285122571
C         6.39339125018830   -0.22472780388996    1.22668629398860
H         5.85512007795575    0.45576809285514    0.57015552046945
C         0.68314712356449    3.47427925086105   -2.84395697702730
H         0.42103584415869    3.80166391745456   -3.83810438567881
C         0.15398517683408    3.31344287276451   -0.50563715450128
H        -0.50789105803266    3.52950474870178    0.32099043883930
C         4.09169840252591    1.88680691196350    6.61143980214147
H         4.18122708330868    2.87101231620171    7.04517040981067
C         5.88507988755592   -0.47192637290891    2.49889634790796
C        -1.15507113693891    3.22264677590593    3.79618371491594
H        -2.21592384479852    3.06233506375496    3.91532772785475
C         6.56310925600535   -1.31135162243371    3.37188506051584
H         6.17924503804363   -1.48680370859872    4.36683866918015
C         7.57337478960945   -0.81864305452865    0.82508413934354
H         7.97174534795661   -0.62573860201823   -0.15933299488193
C         1.87938285525178    2.80677205093616   -2.62902931829166
H         2.55009865440814    2.61661040139078   -3.45311142883601
C        -0.47907885765236    4.05938756794904    4.67034807250280
H        -1.01522406217975    4.54898166346192    5.46849833318365
C         7.74778453255751   -1.90188146082047    2.96498851436122
H         8.28230020929928   -2.55080807759393    3.64187938443540
C         3.14980104419548   -0.96539910699122    2.33063667057958
H         3.41988475667099   -1.22823236417714    1.30243390106244
H         3.34696802700006   -1.84533244657644    2.95024183739564
C         4.11635496888422    0.44796039772957    4.68066666958131
C         8.25026079324449   -1.65828742714779    1.69731058011503
H         9.17635904434584   -2.11866795649595    1.38949991430373
C         3.72668913931607   -0.47320716585797    6.86360419623220
H         3.53121951481126   -1.32605358646955    7.49581718236931
C         7.15795000931159    2.33136234558664    3.10749556619696
H         7.07629800954838    1.51815598147818    3.80914366270545
C        -0.17264984550239    3.72974064913580   -1.78504610697298
H        -1.09883863702169    4.25758399822275   -1.95445511267009
C         3.84179526589698    0.79029233951301    7.42130751314550
H         3.73547947971370    0.91870324204278    8.48739508194478
C         5.86245877161460    5.82916506268497    0.08899518697823
H         6.89594459462348    6.11052733733154   -0.03505474110744
C         5.55655767056328    4.69161904561133    0.84116301447171
N         4.27601627394919    4.28264341300305    1.00700485621180
C         3.29492439337284    5.02418994175013    0.50291755800936
H         2.28026601320674    4.70451207600067    0.70546741870188
C         3.52486496826819    6.16718433760683   -0.23688631058880
H         2.69308781974822    6.73162093827787   -0.62376211638726
C         4.83844581586732    6.56382480189919   -0.46813767443187
H         5.05013051882978    7.44103756509949   -1.05901467341107

