66
CSD_code = AZECAL | q = 0 | S = 0 | Stoichiometry = C30H30AuN2OPS | MND = 2
Au       10.39427775480747    0.93927782808559    1.70766008840679
P        11.75872498831148    1.12959580335447    3.50373127523516
S         8.80790017442593    0.72028993628646   -0.02290810170100
O         6.30515624882183    0.99371221745397    0.90979771524922
C        13.51528687039948    1.42452267280475    3.17595272222606
N         6.68891033044468    1.36217813024371    3.04171428062581
C         5.77760334285330    1.23721268920385    2.14091271969741
N         7.88460160811361    1.19873875249291    2.42009110708504
C        12.17292246519186    3.26118428230805    5.32002925091657
H        13.23721365714125    3.12163061601609    5.18435698270874
C         4.30327034621489    1.32872347729016    2.31119624724158
C        11.11383100486942   -1.47988905030249    4.15695954835865
H        10.67068622560984   -1.50046611674108    3.16936102964970
C        11.72728747203361   -0.31456912168371    4.60040988080249
C        12.24019787167787   -1.37633974635399    6.68983855740438
H        12.67451893196666   -1.33840310748836    7.67806791098049
C        11.63321104163128   -2.54063666216870    6.24301667635023
H        11.59679304974240   -3.40803508053506    6.88522260681270
C        12.28748115452699   -0.26171514051378    5.87453997680952
H        12.75362338197851    0.65156978407756    6.21888150784852
C        11.26687232244227    2.46935357110637    4.62204673427091
C        11.70288140806459    4.23797336760579    6.17974366941969
H        12.40403941713708    4.85718149920493    6.72037216569967
C        13.83772861492673    2.61269798917951    2.52095242679018
H        13.04856306007346    3.31682588638054    2.28843176976142
C         7.62625547526075    0.98411418580251    1.15730962041347
C        10.33987511188448    4.42314660336553    6.34708624559934
H         9.98127890260525    5.18862673977130    7.01942642474253
C        14.50963062233333    0.49339070167963    3.45237957301294
H        14.25782889080900   -0.43923925917164    3.93769890119613
C        16.14237879976014    1.95994423456789    2.47692650935768
H        17.16741825972848    2.16908707578601    2.20991119389468
C        15.82114831744919    0.76862294476151    3.10554731472662
H        16.59478355691677    0.04769638504880    3.32525564616743
C         9.89609960708113    2.65810140365317    4.78404200277264
H         9.19950350551898    2.04971662680518    4.22192927246833
C         9.43844297563266    3.63420703607160    5.64972181186492
H         8.37622553792872    3.78059277785318    5.77410779335560
C         3.65516066084210    0.02053109962996    1.83739668942848
H         3.91142766473131   -0.15743150917429    0.79060482708419
H         4.04374613352829   -0.81350087138364    2.42747167318577
C         2.25214074338641    2.58069154511577    1.62795277699179
H         1.87411946715972    3.41324570649218    1.02373073492745
C         1.91202781077288    2.82083191871875    3.09824899544208
H         2.35917567457661    3.75879071207832    3.43508434242790
H         0.82937678429115    2.90263173229378    3.21974506665441
C         2.14001762523014    0.11822401521630    2.00168170785853
H         1.68132603616493   -0.81882912323640    1.66597976763481
C         1.60804328462352    1.27677395393969    1.15946917641790
H         0.52214357624269    1.34143981377959    1.25987299085970
H         1.83746694182632    1.10634522965150    0.10519885544163
C         3.96046326492591    1.56782823754944    3.78219170141058
H         4.43833840728913    2.48820602465299    4.12127628246286
H         4.35927609807111    0.75094781182865    4.38576114098929
C        11.06950339626622   -2.59212317130738    4.97901410120097
H        10.59243048654467   -3.49746205953802    4.63461320462549
C         1.79949013451872    0.35564167277792    3.47231891851736
H         2.16527709744643   -0.47643142507538    4.07808913088525
H         0.71558276634728    0.41057469390128    3.59752686820574
C        15.14878463371235    2.88158557359816    2.18132130082966
H        15.39879845569940    3.80568513162804    1.68169329502371
C         2.44383438708258    1.66055203556610    3.93876688139176
H         2.20033625460538    1.83152492720187    4.99333231619840
C         3.76756116818213    2.49008145618097    1.46211039703496
H         4.23730776074304    3.42331931156148    1.78322222575856
H         4.02409097885695    2.32570362306902    0.41310357288769

