41
CSD_code = AZEGIV | q = 1 | S = 0 | Stoichiometry = C14H22AuN4(1+) | MND = 4
Au        1.78231920072930    1.57737827783208    9.71847864151730
N         2.83379449820033    0.24885326458435   10.65902513459047
N         2.14085607285792    0.86243834097122    7.95338679921976
C         3.03159946685080    0.56975465608863   12.06380129776169
H         3.96506692982259    1.13909571185406   12.16093459132852
H         3.11131729745118   -0.33282907320000   12.67245552585740
C         1.70470347121098    1.74480441814848    6.88258421455840
H         1.40204560038863    1.18084436748329    5.99847034834916
H         2.54329626979571    2.39806371648343    6.60896647483209
C         2.82136025419371   -0.24597507951472    7.71131632726493
C         3.38018249201716   -1.02696455505360    8.71860281720534
H         3.88254263110099   -1.92081401070622    8.38722224435372
C         3.43078384897838   -0.78455477709828   10.08809639525371
C         3.02971992827997   -0.69176342785802    6.29635896808605
H         3.54421011767871    0.07948055143835    5.72566691391052
H         2.07390123971424   -0.89109609293656    5.81324332746031
H         3.62306943566463   -1.59918058159912    6.26462796818424
C         4.21864920369909   -1.74123711697812   10.92971509511393
H         3.57695260932337   -2.21773904402155   11.66995085290782
H         5.01469976419363   -1.21820009791611   11.45707864279635
H         4.66243833414115   -2.51657575374369   10.31414650368097
C         1.85993009427883    1.40983907567951   12.55440813572081
N         1.42348085987598    2.29207117607413   11.48360771870491
N         0.73075159968486    2.90581731495989    8.77793340393372
C         0.53315254624017    2.58508751577214    7.37309657826198
H        -0.40041456162638    2.01594948753362    7.27575675794557
H         0.45371835904351    3.48773616801726    6.76450215110569
C         0.13354259304434    3.93907319852952    9.34890091949512
C         0.18378564629127    4.18125126397365   10.71843874339421
C         0.74255766163012    3.40021722395875   11.72571965899018
C         0.53382215401737    3.84583975601514   13.14067349654129
H         0.02019485205844    3.07431232698389   13.71121622062639
H         1.48943717110298    4.04563993666601   13.62390471280627
H        -0.06014724633194    4.75290644713104   13.17271098037968
H        -0.31870487415526    5.07502595851805   11.04981938114343
C        -0.65405906527684    4.89588439081140    8.50719883586824
H        -0.01226961367757    5.37242619931087    7.76701583811585
H        -1.45009377436026    4.37293893801242    7.97981170552027
H        -1.09783496842066    5.67117503861166    9.12273487024957
H         2.16253356130485    1.97391605252850   13.43847199811268
H         1.02150833898343    0.75640883665436   12.82814880885126

