25
CSD_code = AZEMEZ | q = 0 | S = 0 | Stoichiometry = C10H7N3O4W | MND = 9
W         1.02716914635119    2.69241612256429    0.40831626356894
C         1.74859885813328    3.80302894440418    2.27619957396559
C         0.38260063251192    3.44877106071467    2.51894201922284
H        -0.39868472419307    4.15264595054130    2.77525411633259
C         0.30351375115154    2.04563952747627    2.58010585405924
H        -0.56780396180187    1.47314824789789    2.87046664503078
C         1.60437326427195    1.51857233457594    2.37379603440524
H         1.88352568218213    0.47782898523954    2.47833833605103
C         2.50285926668314    2.59398173811371    2.18302723341443
H         3.58248717635925    2.52566073193807    2.15400954728271
C         2.24978749051438    5.17207563484059    2.22243562797569
C        -0.46570403580143    2.01967152326971   -0.69168637116537
C         1.74334144334364    1.33323515068076   -0.83843946241767
C         2.02108556907143    3.63508858918430   -1.00871190767840
C        -0.29344795987150    4.44446548000653   -0.26196727666588
H        -0.37533812962107    4.64477639737296   -1.32787115317614
H         0.14144592698627    5.32657308434549    0.21041677679733
H        -1.30265558081522    4.31172505885312    0.12790132795711
N         3.62634285651805    5.20188787986270    1.99331068634050
N         4.35010033154708    6.14347762875750    1.87642870837884
N         5.16914619505107    6.89101910326007    1.73985777607815
O         1.58755606796396    6.17656025922905    2.35684158769132
O        -1.33939486998185    1.63565947938352   -1.32639027096252
O         2.13980103335797    0.57903747081064   -1.61031908635096
O         2.62909457008843    4.18615361667688   -1.80826258613542

