39
CSD_code = AZEPEC | q = 0 | S = 0 | Stoichiometry = C15H11CrN5O7 | MND = 8
Cr        0.76063812490775    3.08993426531216    0.62272102682373
N         0.27454083901574    3.73130508209476   -0.81859267379368
N         1.06860340333270    3.15562797271588    4.35239722847352
N         0.59517856630524    2.99782549741804    5.60093529982911
H         0.61069917842709    2.08862785574449    6.07328562474637
N        -1.42465027692650    7.38740155256217    8.38977915442771
C         2.00802411717717    2.43338000268741    2.36458944496579
C         2.43645943570422    3.73086540817776    1.93787198871930
H         2.49944856880390    4.59317618971071    2.58411407763779
C         2.96329184094253    3.61671695569744    0.64552380578574
H         3.48660996157284    4.39070211144465    0.10219536077442
C         2.84913607377055    2.26329704620978    0.24079011438512
H         3.27107359962330    1.83947754093468   -0.65922846870957
C         2.28080144930438    1.53443572091225    1.29799135700886
H         2.16628357865074    0.45980179882942    1.31808651448697
N        -0.32121286453281    2.67949399431644    8.34669151261635
C         1.50055636097769    2.13909856844152    3.69053785346152
C        -0.60423234910698    1.86231028106627    0.43389041595531
C        -0.48583471490093    4.13413973342607    1.49677064367789
C         1.50704486746221    0.72840637019452    4.21222588247651
H         0.48598844703464    0.37290033989011    4.35734128672449
H         2.01760347034420    0.68168923411394    5.17530875314251
H         2.01624662631100    0.05819628774906    3.52830749756909
C         0.09623682786803    4.03778226319602    6.29072506655609
C         0.00842881033351    5.31164274518678    5.68061933627889
H         0.34155756073455    5.38951400524760    4.65915533757158
C        -0.48368896802671    6.39112106428048    6.35322970441263
H        -0.55192154721754    7.36240218103676    5.88831267402020
C        -0.91699203612384    6.24742236254952    7.68172946017494
C        -0.85654728435219    5.02063319671936    8.30838875863116
H        -1.19520865046031    4.91360129424965    9.32958625978558
C        -0.35705230636440    3.90986925052083    7.63353414803989
O        -0.08557026954798    4.18296020438024   -1.83723511511766
O        -1.80363452835609    7.22149983918786    9.52982023518816
O        -1.44226052587175    8.44887425310523    7.80030580738965
O         0.10120999692733    1.67942251379392    7.76893885115913
O        -0.70546395357207    2.66566547842752    9.49510226683554
O        -1.28674406604380    4.77162495732184    2.00307407950541
O        -1.49424736411771    1.16455458115514    0.26367942838041

