58
CSD_code = AZEQUR | q = 1 | S = 0 | Stoichiometry = C24H28ClN4Ru(1+) | MND = 9
Ru       -3.09033677305276   11.77869598489046    8.64321305676300
Cl       -2.32258629446328   12.49194747593303    6.55852743683105
N        -2.13587849019281   13.41529395293924    9.30550845339045
N        -4.44860853636468   13.13452700466965    8.48300835247035
N        -5.63978390978551   12.71494778447636    8.09287788580025
C        -8.36842182895957   11.98830120575261    7.40442906978065
C        -3.37032880497609    9.64914416186334    7.78070771780566
C        -4.46587166310363    9.83069554067953    8.64666964224722
C        -4.24000799852780   10.36481076974117    9.95509446565367
C        -2.91111074012113   10.45546737315620   10.46379998923130
C        -1.80521149522523   10.04954879525669    9.63887580965190
C        -2.02385596033856    9.70181110337352    8.29310171284431
C        -3.59563259432203    9.24901036865518    6.35124990010548
H        -2.84334166151215    9.70228231380893    5.70975359419003
H        -4.56929809308160    9.57989774915169    6.00094142766875
H        -3.53564387291477    8.16504780931587    6.24200785687237
C        -5.83872547110811    9.40139415843332    8.21025390306239
H        -6.46439720995758    9.18002199004838    9.06938836844780
H        -5.76322328954391    8.49687678050103    7.61038650933357
H        -6.33245787287151   10.16410954957297    7.61017506123533
C        -5.42575769193824   10.72082487052488   10.81218094378069
H        -5.71883835701028    9.87268446311040   11.43229952426210
H        -6.26898468075098   11.00864664112026   10.19086823248625
H        -5.20267578962173   11.56352670872039   11.46235049885311
C        -2.65595623932115   10.75667312953061   11.91795673082218
H        -2.17163817701540    9.89874085386628   12.38410955199237
H        -3.57381577273481   10.94798799548958   12.46161070801492
H        -2.00715485324198   11.62413094588412   12.03986244875758
C        -0.42714019887081    9.92787469631206   10.23470577937005
H        -0.22629105750377    8.87671904928326   10.44940716736805
H        -0.32953261550133   10.48038464489314   11.16307881326940
H         0.33956749796591   10.27996123689315    9.54845890738339
C        -0.90746365886118    9.26137151685720    7.38970771854903
H        -0.67941901970641   10.04718500431784    6.66732082113010
H        -1.20445442407735    8.37388215384664    6.83504975956401
H        -0.00259692866507    9.02618490672239    7.93835601367401
C        -0.86298168341731   13.46161514657721    9.68902269426389
C        -0.21305394430647   14.64573251080697    9.97682165818062
H         0.81912118278722   14.62954044684822   10.28528824893230
C        -0.90387697418961   15.84870170226905    9.84853199055489
H        -0.41451296658867   16.78599086415321   10.05887581722726
C        -2.21785994707265   15.81776556251874    9.43379219454959
C        -2.81639847050348   14.58351046212567    9.16253549145039
C        -4.15011318428386   14.38571920345733    8.69520544071057
H        -4.86771852511260   15.18383913805945    8.55546322136751
C        -6.14473173985567   13.04052924160160    6.96432400639542
H        -5.59036007394383   13.64471887752005    6.24345517442730
C        -7.45596512270109   12.59815521575509    6.53804078808332
N        -7.74026083316249   12.84921986519777    5.25878963871122
C        -8.91815975717939   12.49760144656180    4.79286024536701
H        -9.09426398612190   12.72448358027698    3.75051682011301
C        -9.89112909365845   11.87523444996536    5.57134938558558
H       -10.84357915926882   11.60558235883584    5.14451646736429
C        -9.60650681048787   11.62195083301689    6.90465385248349
H       -10.33842335999804   11.15198369758259    7.54437536307238
H        -8.10770933771650   11.83215366889749    8.43916439823185
H        -0.34051605520132   12.51719259656581    9.75239215600841
H        -2.78892563074679   16.72156844183334    9.29713111425835

