56
CSD_code = AZEVIL | q = 0 | S = 0 | Stoichiometry = C16H25B10Cl2PPtS | MND = 4
Pt        3.24659797766675    4.92656952024090    3.56860834811344
Cl        3.30672169587357    6.59481780204179    2.02337578814375
Cl        1.07404454661065    4.44248886466810    3.01311839294941
S         5.49473201672033    5.38297661197009    4.18293301985420
P         3.28867109318820    3.17528092745665    4.99681685834239
C         4.85403460120543    7.45308242124384    8.15531231483030
H         4.69139444780020    7.23575880188750    9.20304184948247
C         4.93141226583063    8.98475304472901    7.75165074093775
H         4.81578114551528    9.70028636986268    8.55530613568597
C         6.00584431067584    3.82522589102986    5.04128421948778
H         6.31584216322926    3.16824647350681    4.22799705783983
H         6.88126776432847    4.07681214929355    5.64040650679415
C         4.92666468732070    3.16559011247763    5.88657294992291
H         4.78570000305220    3.72250396281356    6.81431741170240
H         5.21824988214948    2.14510292355824    6.14818511860968
C         3.14196938197899    1.52839492148409    4.24801125442657
C         4.23447173564568    0.74394393463454    3.89582007441394
H         5.24088592293987    1.07355804597138    4.11055818082443
C         4.03919590488810   -0.46769720881445    3.25662492011993
H         4.89172146214903   -1.07454937390783    2.98790373388555
C         2.75868113196863   -0.89697053275665    2.95231011497097
H         2.61244442134031   -1.84111261831684    2.44901781137208
C         1.66768204382631   -0.10713154960648    3.28079453471777
H         0.66962138445743   -0.43184165900405    3.02818972407261
C         1.85564027138343    1.10176996032593    3.92171242857171
H         1.01575631004185    1.74038187060701    4.15666087143898
C         2.11875818669670    3.05829641687350    6.38422938846798
C         2.18795558623196    2.01158202498413    7.29789485943731
H         2.92310819448879    1.22944897917956    7.16642950916838
C         1.30840089405940    1.96978384032890    8.36378324713043
H         1.36071360415120    1.15730457773164    9.07387207747666
C         0.35681605570933    2.96626699122855    8.51898627873759
H        -0.32982943501024    2.92700019457465    9.35184658807098
C         0.28042162154098    4.00398986057439    7.60463302143906
H        -0.46778823013054    4.77355612868111    7.71969863393399
C         1.16112087926179    4.05274767726193    6.53818978524155
H         1.10775901752416    4.84579267436770    5.80414664199547
B         6.39788598807374    8.09399843371185    7.75529578216267
H         7.13480057618315    8.28560156987341    8.64705301344960
B         5.89184869446569    6.49103169352359    7.21244844181413
H         6.37967796335515    5.55163006917550    7.72444411887875
B         4.12524363561385    6.51548072707113    6.94817786761319
H         3.48409662889435    5.59179491896031    7.28901114867600
B         3.51431748637009    8.12805096989795    7.31021646749011
H         2.54900633503500    8.33544045259171    7.94109930512357
B         6.02604608808995    9.25845283945481    6.48107078727293
H         6.61317701301219   10.27332327111553    6.46671770450406
B         6.66055712827330    7.64450797832721    6.08269293488221
H         7.73644544707473    7.46483652773071    5.65024753552399
B         5.25071381927572    6.66355545748767    5.57769740450160
B         3.76442137129218    7.66436645693624    5.63826927628932
H         2.86763975773873    7.49406370231181    4.90243573584998
B         4.27205252171748    9.27274950977232    6.20400806150150
H         3.74258146377245   10.30108097943760    6.01693142715107
B         5.33392758953711    8.37355823254387    5.10444083661237
H         5.51259554591302    8.70396517689881    3.99580175809595

