84
CSD_code = AZEWEI | q = 1 | S = 0 | Stoichiometry = C40H30ClF8P2PtS2(1+) | MND = 4
Pt       11.57325999756170    5.75112392904912    3.45895518004849
P        10.60194395608704    6.35644557991352    1.48487049273616
P        13.52897058400303    6.93951857721467    3.36361840872169
S         9.78160075001351    4.16919654928819    3.68656691861730
S        12.96812926160676    8.91110078571017    7.27462232512877
Cl       12.32295739069226    4.99786243426649    5.51708940058484
F        14.47990330820930    4.58719102415866    9.56392199596410
F         9.93568558041556    4.95337030236486    8.40020196516279
F        10.38522119818968    7.42448041296790    7.40866881384595
F         9.38059950242140    7.04573607238474    4.62187685863957
F         8.20246851746181    2.58196049359780    5.52504903083056
F         6.65176104419701    3.41624062527697    7.60833390463184
F         7.71418360442100    7.87824359100822    6.60530532411786
C         8.80703820963704    5.94604613466915    1.72369200187316
H         8.37664991192509    6.68150724780649    2.40796378597787
H         8.27927341652489    6.03343711065118    0.76888970828077
C         8.67677028176504    4.53177671434848    2.26091137192002
H         8.98633235579249    3.80502017970420    1.50656064600351
H         7.66056259225555    4.29884501379613    2.57815746934460
C         8.79379421122571    4.80028142795945    5.03651892904485
C         8.68025150229727    6.14953298067397    5.34224500946757
C         7.85373128533325    6.57752368818326    6.37591102659133
C         7.16747596603717    5.65752925550142    7.14918301690054
H         6.54228950978951    5.98753799058176    7.96330317840274
C         7.30538590388133    4.30758733379985    6.87503473490419
C         8.10438163961592    3.87731177558758    5.81766741062163
C        11.06990865482709    5.29766570049003    0.09400437956043
C        12.15887018328680    4.44921135074131    0.27370904383584
H        12.68932166247444    4.46718446016097    1.22063344987722
C        12.55037800376268    3.59371017163719   -0.73943385612352
H        13.39508357609696    2.93763332139462   -0.59608979134278
C        11.85163284729669    3.57959798902883   -1.93625894151399
H        12.15427306846877    2.91391653725893   -2.72941525372270
C        10.75774006265143    4.41284630480809   -2.11517227897773
H        10.21015391592730    4.39228282257099   -3.04495131226275
C        10.36047284823077    5.26956740887055   -1.10438639305119
H         9.50134903969339    5.91013468754429   -1.24752021462955
C        10.67777307737118    9.84024608630939   -0.67561526622745
H        10.82931721876012   10.15884343785508   -1.69541565212420
C        10.76013284783066    8.49505044088497   -0.36039222152362
H        10.99221257130320    7.77287604125568   -1.12852498403396
C        10.55259854846255    8.08468152825202    0.95049301274206
C        10.30783927520918    9.02877273642952    1.94643245846672
H        10.19182671784293    8.70314482377810    2.97138058073673
C        10.22584776792926   10.36901928731182    1.62303224027357
H        10.02534947493719   11.09833957621365    2.39269395839462
C        13.90485434448845    7.85876363860791    4.90986962202093
H        14.28763575977836    7.10229371435138    5.60317319796047
H        14.70245015219113    8.58358095599644    4.72551931201198
C        12.67120585573822    8.51867404714634    5.50930805129108
H        11.80416881428628    7.85911982567844    5.43711231241087
H        12.43272858937323    9.47102419378181    5.04005340652583
C        12.67786723147690    7.29270746113796    7.95239716368265
C        13.71352978589757    6.55157743334024    8.51289031757085
C        13.47242489062250    5.28696855817899    9.04290910268604
C        12.20285871895586    4.73643475694630    9.01947069941298
H        12.02460058089626    3.75117842139761    9.41797788666425
C        11.17440096627425    5.47048202224725    8.46057308205157
C        11.40258928057944    6.73862022753652    7.94603498811053
C        13.70308201873046    8.10559047252353    1.98326729412576
C        13.61508193582804    9.48382101924495    2.13664886424930
H        13.43818881900904    9.91594033721805    3.10906728150700
C        13.76816650451229   10.31237212280563    1.03860481259171
H        13.70856408138270   11.38243045126623    1.16464794050137
C        14.00452072840150    9.77426899066839   -0.21467958609539
H        14.13241820086567   10.42508884188070   -1.06549210864264
C        14.08302613184830    8.39946787144736   -0.37466896273419
H        14.27207512105639    7.97694833204379   -1.34966267014264
C        13.92779189672338    7.56797681497663    0.71707746944218
H        14.00254654340359    6.49560660429025    0.60011283962703
C        14.94280980055460    5.83110595571558    3.15123606701457
C        14.77926964326379    4.45142192959815    3.19569581416077
H        13.79325541011993    4.03242430620354    3.36045876481265
C        15.87798935476479    3.62192615993549    3.05709720305382
H        15.75193662847626    2.55077507984568    3.09771767103888
C        17.13820546736632    4.16728768669781    2.87495296996869
H        17.99535591247116    3.51991605707006    2.77293360130191
C        17.30289028518152    5.54364571449151    2.82578241058723
H        18.28598265170140    5.96560896145563    2.68482629068816
C        16.20983911378132    6.37852746354170    2.96034664300488
H        16.33152740602339    7.45180602290755    2.91410623782071
F        14.95168740442194    7.04926616878290    8.51480894437358
C        10.40210417225286   10.77433087430157    0.30884523613581
H        10.33306695372957   11.82038856121064    0.05385796333380

