175
CSD_code = AZEYOT | q = 0 | S = 0 | Stoichiometry = C68H96N2O8Pd | MND = 4
Pd       -0.38504275764618    4.60586137899433   -0.00045482676892
O         0.45264050589604    4.40142417600110    1.84099078468367
O        -5.38565677466691    2.05542650190822   -3.07286573542596
O        -5.79153522017798    4.27235324097944   -3.22986223822999
N        -0.82455020113581    2.62730738533698    0.05820378641751
C         1.01063355644484    3.32916564523373    2.22167998354229
C         0.78516596373260    2.05128938962140    1.71327665766733
H         1.31943605966495    1.23564583519832    2.17452127904741
C        -0.18230973388550    1.71803129744264    0.75305880671907
O       -10.56046985855562    1.67523406994223   -6.55147219579153
C         1.96582390944058    3.47013188893640    3.38468481963239
H         2.95741085088865    3.72456837059021    3.01097029355978
H         2.03482153866282    2.55373097045972    3.96224900422794
H         1.63669295069719    4.28775531227327    4.02176689421309
C        -0.52506818803756    0.25514404527268    0.61004019371248
H        -1.57399357793887    0.12452358082709    0.35272129852986
H        -0.31432269690398   -0.27438339996764    1.53500809574352
H         0.08111585515878   -0.18835141993043   -0.17901479392686
C        -1.95916482749745    2.39273965616217   -0.72032303573881
C        -3.09308061045111    3.16039435660312   -0.41595096777561
H        -3.04220806321073    3.84775764184155    0.43284186867700
C        -4.23860141704143    3.06805757869764   -1.17651023371506
H        -5.10468535616788    3.66453732185536   -0.93727452327034
C        -4.26101572388810    2.21188375704118   -2.27133906936295
C        -3.15023408753064    1.44022989187213   -2.58185550520354
H        -3.18855829897253    0.78776770770380   -3.44072507663838
C        -2.00810411010530    1.52176895524902   -1.80835230644138
H        -1.13469937743325    0.94948749506591   -2.08084694833681
C        -6.08945437560041    3.12854480420340   -3.48148831308997
C        -7.26032532173681    2.73624261497820   -4.29011664460328
C        -8.06887440845438    3.73909717440612   -4.81761635474177
H        -7.80900912270567    4.76794414157039   -4.61910751746615
C        -9.17928898202810    3.43200115701527   -5.57768352766446
H        -9.78618460189109    4.23140902366199   -5.97239548301155
C        -9.50190573678845    2.09833109374334   -5.82572214006846
C        -8.68804952132291    1.08915526893510   -5.29670583502412
H        -8.95459801156742    0.06401977762651   -5.50018335936950
C        -7.58421965676535    1.40137897006362   -4.53996918397768
H        -6.96430863673863    0.61747068550970   -4.13464123426473
C       -11.44973503126709    2.62505055465920   -7.10818404913641
H       -10.91428320021052    3.28318002328346   -7.80610483755325
H       -11.89141459347097    3.24132296495744   -6.31307987918017
C       -12.54162309167030    1.85502159795897   -7.84285477627353
H       -12.07598151488678    1.24622280383500   -8.61952959373389
H       -13.02332206331338    1.17823356749664   -7.13520033389757
C       -13.58021815928657    2.78576523922439   -8.46181360252105
H       -14.03466948704109    3.39563185756370   -7.67749197325572
H       -13.08966431746452    3.46322546942412   -9.16460524885040
C       -14.67102758835140    2.00345137778525   -9.18946883363614
H       -15.15086006046722    1.31832168962636   -8.48705950859447
H       -14.21621812835128    1.40080499520331   -9.97869934269329
C       -15.72936757162259    2.91843258368735   -9.80088236747336
H       -16.18577988007281    3.52106056398223   -9.01214996031078
H       -15.25278952811205    3.60398870027718  -10.50541624405893
C       -16.81623707123498    2.12595568498341  -10.52327089666325
H       -17.28504079281124    1.43432183185996   -9.81928802408963
H       -16.35973665836836    1.52878661137804  -11.31613851336005
C       -17.88755502392891    3.03026745086392  -11.12769041720869
H       -18.34758680672368    3.62504100387814  -10.33500570198196
H       -17.42099781123517    3.72384456792128  -11.83121804596772
C       -18.96851055812012    2.22939454938383  -11.84959703375058
H       -19.42845851916590    1.53054496879965  -11.14678152880504
H       -18.50836159667428    1.63950535008429  -12.64591445308604
C       -20.05012491871839    3.12552807970821  -12.44779215191079
H       -19.59181123645044    3.82609738834803  -13.14987381972371
H       -20.51326875506571    3.71315205845372  -11.65154912707479
C       -21.12602824676607    2.31814764129139  -13.16996157090463
H       -20.66279584422601    1.73426400930590  -13.96895277152727
H       -21.57913686365524    1.61359278868347  -12.46836255822679
C       -22.21552555059456    3.20798573919844  -13.76326709254394
H       -22.67999143365153    3.79115541194349  -12.96447710839505
H       -21.76388608258067    3.91290260334148  -14.46537890811411
C       -23.28849732243224    2.39520461394395  -14.48374398297706
H       -23.73580817615747    1.68717343600699  -13.78187994181053
H       -22.82390327065616    1.81503319927275  -15.28469299891782
C       -24.38433083944928    3.27994538719766  -15.07304866720223
H       -23.93813627606521    3.98799947173078  -15.77562783238923
H       -24.84935579741518    3.86011298202511  -14.27228016141737
C       -25.45540890869465    2.46301249966393  -15.79150178307836
H       -24.99035875126419    1.88497529353573  -16.59378070743043
H       -25.89907410035308    1.75326070433782  -15.08901064649169
C       -26.55605611749799    3.34297673300313  -16.37900045615694
H       -26.11352224555777    4.05256220054730  -17.08199807598987
H       -27.02231875627475    3.92022992119836  -15.57716697277134
C       -27.61989926854554    2.51886653233267  -17.09383303151256
H       -28.39387392779808    3.16343027801795  -17.50414035531737
H       -28.08641211913578    1.81830080096585  -16.40446943546970
H       -27.17779924802299    1.95108664215643  -17.90980134329412
O        -1.22264635665099    4.81031130662055   -1.84192640094627
C        -1.78060988435506    5.88258824178522   -2.22263948939775
C        -1.55528938968038    7.16043589497454   -1.71410412197777
H        -2.08960448078436    7.97608255582768   -2.17529171016445
C        -0.58791315814281    7.49369136648108   -0.75378321900352
N         0.05444092221030    6.58441099994706   -0.05905561589443
C         1.18898699961677    6.81898399550729    0.71956491922330
C         2.32303191792443    6.05152362062958    0.41517427168469
H         2.27231753365773    5.36428429164437   -0.43372169024703
C         3.46847520216322    6.14389966908577    1.17585360650239
H         4.33467119729927    5.54758409374568    0.93660776332690
C         3.49067817063482    6.99992373015235    2.27080740033318
O         4.61519871758597    7.15642473745812    3.07249740400986
C         5.31902594564973    6.08336142685587    3.48121642520505
O         5.02142021622772    4.93953924585463    3.22926840770283
C         6.48992636649446    6.47579532043173    4.28974694874234
C         7.29857833881391    5.47303894862274    4.81727515740649
H         7.03880045435920    4.44416088708612    4.61881211014249
C         8.40879785257108    5.78025959720054    5.57758029093768
H         9.01571088598009    4.98092337396676    5.97241086630626
C         8.73118047695974    7.11396554770527    5.82572656542045
O         9.78954099569455    7.53720400474188    6.55169120917136
C        10.67881235822776    6.58752050259157    7.10861680188951
H        10.14328826391466    5.92927516093942    7.80637298391387
H        11.12081488506693    5.97134992267663    6.31361254247218
C        11.77037856480172    7.35772291193083    7.84358837044882
H        11.30445664822815    7.96633213425280    8.62024277430715
H        12.25206068231390    8.03469531124096    7.13609807136524
C        12.80906923137409    6.42714041293196    8.46262521744664
H        13.26365547690280    5.81733776144760    7.67833277826547
H        12.31857657360776    5.74960956938940    9.16539008340710
C        13.89975731609927    7.20957414364581    9.19033003767520
H        14.37946777073249    7.89483575473615    8.48796745858318
H        13.44486884496046    7.81208435861320    9.97961605619049
C        14.95825965853829    6.29471286956355    9.80163562867862
H        15.41457287358862    5.69207773578328    9.01285157561969
H        14.48182717950661    5.60915835912815   10.50626817906092
C        16.04521523066102    7.08725752719904   10.52381563652648
H        16.51387025966509    7.77888495845462    9.81972741454777
H        15.58882551779423    7.68443406305139   11.31674127372543
C        17.11665479882503    6.18297652474622   11.12806575627333
H        17.57656648525413    5.58820330582640   10.33530992042027
H        16.65022329203835    5.48939525372334   11.83167456312744
C        18.19770896890630    6.98388074218543   11.84978870633599
H        18.65760439468779    7.68267347719224   11.14688100602344
H        17.73766494219217    7.57383048596847   12.64612253250010
C        19.27933615973193    6.08772429731981   12.44792314112250
H        18.82103664056272    5.38713056302399   13.14999164594412
H        19.74246013454724    5.50012576119084   11.65164953448261
C        20.35526125532249    6.89506014603287   13.17010768886727
H        19.89203967128034    7.47897127565949   13.96908535154575
H        20.80842965996724    7.59958906875908   12.46852123107229
C        21.44468032734127    6.00514926949608   13.76344669657701
H        21.90916185672164    5.42198324976356   12.96466329689011
H        20.99295789053574    5.30023030439892   14.46550338853567
C        22.51765129300421    6.81783931907645   14.48402161232317
H        22.96504336976510    7.52587723130917   13.78221557305025
H        22.05304032580569    7.39800193576976   15.28496745639560
C        23.61340198163943    5.93301536030309   15.07335831032388
H        23.16713998477419    5.22498552005990   15.77591954244735
H        24.07841830941296    5.35282357252267   14.27260196714887
C        24.68449323816698    6.74990063408559   15.79184211453619
H        24.21944615314147    7.32793293805467   16.59412687232353
H        25.12817712801409    7.45965690233936   15.08936717284354
C        25.78513422058900    5.86992770533553   16.37933576645979
H        25.34260540814548    5.16035307280797   17.08234656084130
H        26.25139057573205    5.29266244280665   15.57750699035655
C        26.84897500486759    6.69405964520691   17.09414727404375
H        27.62296929654995    6.04952161842462   17.50445652337756
H        27.31546098959864    7.39462239438048   16.40476222041616
H        26.40687261405168    7.26184761572221   17.91010912246784
C         7.91728127460835    8.12304605177963    5.29659377538900
H         8.18368877169187    9.14820792951538    5.50012349785303
C         6.81361209019810    7.81069743344347    4.53967609461735
H         6.19366458702450    8.59453577121558    4.13426924806307
C         2.37974378252958    7.77133248883955    2.58137544499441
H         2.41787353125004    8.42361205976253    3.44039238478654
C         1.23769168851766    7.68974933100949    1.80776628409060
H         0.36415718613661    8.26182168224061    2.08029199718509
C        -0.24524969476185    8.95659295521246   -0.61071300918310
H         0.80347104496842    9.08730670324072   -0.35262956351112
H        -0.45533878975385    9.48601807793477   -1.53588987748183
H        -0.85205929427204    9.40013010079279    0.17783222677961
C        -2.73595391948135    5.74158804607166   -3.38551614953770
H        -3.72745504939882    5.48684268690287   -3.01175565671112
H        -2.80522193260573    6.65807030012281   -3.96292060167010
H        -2.40666672980632    4.92415066787419   -4.02275966630781

