105
CSD_code = AZIBES | q = 0 | S = 0 | Stoichiometry = C44H56N3ORh | MND = 5
Rh        1.38906095691225    2.07779305889206    3.70004406073366
N         3.27610288240764    1.50071573612764    2.77349047705044
N         2.16520853394969    0.43217991525313    6.07464714619281
N         1.09562662612088   -0.72019072037446    4.57029696472334
O         1.60861250152733    3.56257469913186    2.28243038832162
C         1.42127624044181    0.55772731444358    4.93060168274561
C         2.34958106998155   -0.90421554169718    6.36556223133845
H         2.93420565486552   -1.22362595510667    7.20419687421426
C         1.68942171095324   -1.61846258093140    5.43100067862056
H         1.59974831247165   -2.67728784656946    5.29445542719968
C         0.04438641470739   -1.13273961834983    3.68834161169315
C        -1.24970082280460   -1.26739040278590    4.21769848798540
C        -2.25197139347236   -1.78929344045500    3.41273801106856
H        -3.24488893613585   -1.91508275407506    3.81307259831924
C        -2.00202530130035   -2.15359289547015    2.10475644571750
H        -2.79455268328161   -2.55920568945405    1.49373901278870
C        -0.73777800159211   -1.98447231862257    1.58371846154070
H        -0.54778335649364   -2.24913248823613    0.55562651344028
C         0.30007051471787   -1.48456782090969    2.36144299524724
C         1.64551077120350   -1.27099221066995    1.72163333834956
H         2.36376015431849   -1.01321444588906    2.49973131926210
C         2.16797069250227   -2.51570777770466    1.00378898135240
H         2.17127472103523   -3.37277767565166    1.67482269986148
H         3.18648060773780   -2.33945828429758    0.66423225819161
H         1.56266796551852   -2.76145188033124    0.13539833698672
C         1.52439801313091   -0.08214499753408    0.76460058430603
H         0.80678150493471   -0.29356877134160   -0.02487567122065
H         2.48592407689010    0.14307906323569    0.30823924095515
H         1.17968555600391    0.79765729407500    1.31858327555674
C        -1.58012516476189   -0.87890815461938    5.64068566543182
H        -0.83543697590482   -0.15301375117650    5.97743237032347
C        -1.52596224427106   -2.11429516436647    6.54555996524952
H        -1.79425649512251   -1.84700449767769    7.56512968787695
H        -0.52999988931527   -2.55088480774391    6.55566034178488
H        -2.22617767933856   -2.86818587015030    6.19171566846552
C        -2.95201306837282   -0.20965570310489    5.76128635452877
H        -3.75750972456779   -0.93365393683895    5.66865485366709
H        -3.08004286478004    0.55183186238217    4.99573223995836
H        -3.04449540586555    0.26615553866301    6.73449520971690
C         2.40847700741583    1.44815956842892    7.05390819362430
C         1.60192449838658    1.46437756527210    8.20365330874708
C         1.82506615191833    2.43712632268282    9.16879085367997
H         1.20948843297056    2.45576393393140   10.05461529528834
C         2.81896574830125    3.38181048296937    9.01954563677080
H         2.97145073846336    4.13636213202373    9.77666479887626
C         3.62185914768959    3.34251095116537    7.90055663825684
H         4.41041235103756    4.06980634609432    7.78877750772298
C         3.44334144898549    2.37821884196725    6.91592027875875
C         4.38516874830185    2.37952638982151    5.74175718922938
H         4.16960424161833    1.50730803318107    5.12664114307233
C         5.84592621000362    2.27775063932200    6.18706929815786
H         6.48498843362872    2.16040593177380    5.31430722725617
H         5.98984609002092    1.41726122337030    6.83808543169312
H         6.16447878876706    3.16889160070156    6.72135550896919
C         4.14712226131099    3.63485430166849    4.90073320753271
H         4.30411321377701    4.53585571154827    5.48912494963614
H         3.11267369752598    3.63383677332765    4.53203759698255
H         4.82366632017850    3.65640661720029    4.04873268466641
C         0.49874120993126    0.46351641860554    8.46218821420360
H         0.41870696145218   -0.22205302160583    7.61810612038804
C         0.81703606907999   -0.37990106425388    9.70031070176229
H         1.77857282513668   -0.87655778926533    9.58894784500037
H         0.05211861663972   -1.14092140950012    9.83945455118898
H         0.85437276744628    0.23514939972936   10.59550489071069
C        -0.84844339032640    1.17137773584839    8.62356811525873
H        -0.84638658545813    1.83134124425910    9.48675162917794
H        -1.63962271510076    0.43785082089811    8.76247507697417
H        -1.07391417477449    1.76605268917331    7.74074883358696
C         4.10823609514270    0.50545770245137    3.01565746306791
H         3.85231182125635   -0.19044448784031    3.80612879609260
C         5.30010448901434    0.31070994481690    2.30777215024954
H         5.93178293228739   -0.52834323196736    2.55910438273038
C         5.63858414758256    1.18648385498927    1.31287051034137
H         6.55042285241840    1.06424168223149    0.74476988683488
C         4.78414193484011    2.27099667329627    1.02415622188471
C         5.04785315334410    3.22279294564060    0.03195798069916
H         5.94986575183703    3.13717063836594   -0.55546663173644
C         4.15673473003706    4.25351787765996   -0.17970069825411
H         4.36784455231107    4.98496492043979   -0.94805225785605
C         2.99667282055726    4.38301307498036    0.56478313011015
H         2.31675102806891    5.20146763561378    0.38090101700662
C         2.66985943223571    3.46547399177448    1.57446758408210
C         3.59432819101638    2.38250931302148    1.80011039946126
C        -0.70995706217048    2.38308772841940    3.81961547628302
H        -1.17691151229352    1.45168185027407    4.13812795995533
C        -0.06691128471241    3.15505929037386    4.79055159668231
H        -0.07282867408462    2.78933832562784    5.82084232715808
C         0.03027613061900    4.65427042604427    4.71016864173117
H         0.07830330439499    4.97183953393575    3.67107952565302
H         0.94033492480033    4.99916036270860    5.20943148013681
C        -1.17327659563670    5.30157860581743    5.41003605013097
H        -1.16482661432656    6.37427462297785    5.20214755065280
H        -1.06479481957364    5.17528335533861    6.49134546510869
C        -2.52685426375446    4.71845961124748    5.00039530489095
H        -2.58045792277056    3.67731816586696    5.32114522204644
H        -3.29698665931087    5.26415779706840    5.55233882426391
C        -2.82835585397203    4.80042478215158    3.49716878785621
H        -2.15300528635252    5.51374710092529    3.02333059843067
H        -3.84354486208655    5.18338806604719    3.36219360513774
C        -2.74395031787091    3.46252287200808    2.75894634061217
H        -3.19634526005154    3.59392209905427    1.77210055543228
H        -3.34080513043654    2.71752219760182    3.29297070477630
C        -1.31993554775159    2.92811951549176    2.55299859192455
H        -1.36795166652129    2.11485486123670    1.82149799647528
H        -0.69839954737011    3.71715142389083    2.13260794321714

