30
CSD_code = AZIFAS | q = 0 | S = 0 | Stoichiometry = C13H12Cl2N2Zn | MND = 4
Zn        6.07863252635713    8.51272134518249    0.21432593183899
Cl        6.95360312316319    6.56525869579869    0.70841759975740
Cl        5.98996765031265    9.83512860443143   -1.53957914788413
N         4.06934006604985    8.35723082866955    0.95481716484728
N         6.12253050102178    9.69238064285456    2.00182192462561
C         3.88223687547021    8.98936123959267    2.11649744627036
C         2.67059502287891    8.88660251557250    2.79983778846061
H         2.52330834843387    9.38255264364830    3.74495618615032
C         1.65180722052768    8.12145158723799    2.25576239806176
H         0.70825753408158    8.02746947555572    2.77210492396992
C         1.86340395104054    7.48221969635946    1.04576111843415
H         1.09608886341755    6.87993641462758    0.58733730085754
C         3.09954292597916    7.63098327605613    0.43236616558893
H         3.32167904811980    7.15152583047678   -0.51082109954985
C         5.01900887931540    9.77138797313940    2.63707027443557
C         4.78982270146397   10.63832922381632    3.83691227569161
H         5.63134780540104   11.31129685651609    3.98342483173819
H         4.67076096604463   10.02998649287978    4.73253751523954
H         3.88548650236966   11.22807607623389    3.69912107379836
C         7.31971771169244   10.28465568418571    2.39106554806124
C         8.04495531270185   11.00055394184599    1.43802205411637
H         7.63302793532930   11.12824723343613    0.44788970544904
C         9.26439882076702   11.55307009433714    1.77578411113708
H         9.81505705964089   12.11644631308903    1.03813067858373
C         9.78844622442238   11.37341842427856    3.04707774491652
H        10.74880311395298   11.79507418370075    3.30161802644014
C         9.08546199852369   10.63475656792411    3.98397131227358
H         9.49933515895433   10.47160677319449    4.96780041869627
C         7.85094047039478   10.09871081580493    3.66802388541175
H         7.32243568217108    9.48646054955371    4.38344484258234

