36
CSD_code = AZIFEW | q = 0 | S = 0 | Stoichiometry = C15H16Cl2N2Zn | MND = 4
Zn        1.37911117885918    8.40165499003351    6.87562207251213
Cl        1.58833595708627    6.65767021751641    5.51754327588386
Cl        1.93181293688425    8.78144735581499    8.94967513195859
N        -0.73629642089268    8.58855174873597    6.59414392878834
N         1.23159775459431   10.03457672020584    5.51630185724148
C        -0.98659558064030    9.24833554777913    5.45982747933431
C        -2.20137832322144    9.10128416662830    4.79377849500140
H        -2.39185917850086    9.62033486118181    3.86888582069075
C        -3.16158904183919    8.25520623358795    5.32516773705654
H        -4.10466417041563    8.11705236185837    4.81807871970420
C        -2.89172371063611    7.59320512063950    6.51097957993957
H        -3.61402853620329    6.93151695159795    6.96070698890316
C        -1.65518782832811    7.79226391681249    7.10853137718928
H        -1.38908413476884    7.29842924322914    8.03292470770492
C         0.09001628535712   10.12387020437033    4.96166403330514
C        -0.22676109422564   11.08580852690960    3.86021994749316
H         0.60268239624632   11.77480066106171    3.71586822825308
H        -1.12610137860896   11.65084173342060    4.09817855634252
H        -0.39719705578426   10.54630419102737    2.92948409384881
C         2.34497866525390   10.80439125539051    5.13633763829093
C         3.08418900731630   10.47400258444665    3.99597398009261
C         4.21829068420238   11.22278859847879    3.71151614366896
H         4.80260204052579   10.97324136022306    2.83831737084741
C         4.60743300705480   12.26904167161616    4.52640156196647
H         5.49211374746465   12.83941217601568    4.28755455291953
C         3.86777495698394   12.57757610211464    5.65397740769983
H         4.17460889069447   13.38906667095620    6.29671325953480
C         2.73467056583627   11.84992287658113    5.98184896367488
C         2.68834069166975    9.32675253463158    3.11699965689934
H         2.35944832447664    8.47362224661780    3.70809132737164
H         3.53104951783298    9.01830859197528    2.50411352015419
H         1.87383190453094    9.61015978233369    2.44955819311071
C         1.92822359815761   12.16674038438207    7.20173151972531
H         1.91545477949166   11.30960984785881    7.87563088599602
H         0.89528989590168   12.39630095419186    6.93958958797866
H         2.35150966764641   13.01680760977606    7.72926239891541

