78
CSD_code = AZIJIC | q = 0 | S = 0 | Stoichiometry = C35H33BN6S2Zn | MND = 4
Zn        4.08128169417219    8.56787640025787    1.09341150443810
S         5.92767025867711    7.78731003942478    0.00496727824954
N         2.03241666828710   10.31096253573063    1.96208846526801
C         3.21728256338759   11.58571918306530    0.66505735709690
N         3.09705508215308   10.34583607975282    1.14328117634588
N         1.38642684790359    7.89938899002856    1.72767402980595
C         4.87634203988932   11.06680797393036   -1.10722758064741
H         4.53400562133509   10.04206239766109   -1.12164120793937
N         2.33022322921700    7.55794032235208    0.83674419032326
C         4.84741221448484    8.10357949379916    4.11901519071366
C         0.60665562465366    6.17582273414895    0.59529743827808
H        -0.02722086894489    5.39446374756643    0.22891712982258
C         2.18756528249312   12.37268093093882    1.19555723402222
H         1.98763690142441   13.40570512003692    0.99806259557227
N         2.80040078202369    8.62407996135297    3.63637149702671
C         6.27575890224948    7.89233879364254    3.91732659227556
N         4.03095930830575    8.46262716617842    3.12856066530617
C         0.32594253061914    7.08040665968506    1.60299151828914
C         6.32978852506735   12.77302002989914   -1.96110255367521
H         7.12759235066507   13.07807719888768   -2.62207240092718
C         4.71962646769206   13.30967792561810   -0.26555863690127
H         4.27330046329981   14.03032049375134    0.40356554305749
C         1.45719540455464   11.52730995568984    2.00861971310293
C         2.68646113833811    4.52792762936305   -1.09344644669157
H         2.14161002008452    3.90622907937536   -0.39712015247153
C         8.34758602733415    8.50740389844190    2.85986269484842
H         8.89131514196119    9.13692739116998    2.17206669308376
C         0.25031223604085   11.85421350117993    2.81193219387136
H        -0.58977094860424   11.22782093295361    2.51840783993066
H        -0.01585610663645   12.89603239393253    2.65545224865204
H         0.43825706704965   11.69467019574481    3.87210918675284
C         4.10865286140364    8.01906958010464    5.30454196090590
H         4.47213834648393    7.76755845559175    6.27986489193115
C         2.65410922382487    5.91296737479470   -0.94581888566306
C         4.28111080131792   11.98578386312807   -0.24608740942650
C         1.88137088530115    6.51902528362332    0.13247938059465
C         6.99304598732067    8.70948088897592    3.04565912297852
H         6.48791430885652    9.50978816921724    2.52316967186220
C         3.36306687939820    6.71106282489191   -1.84040799884150
H         3.31426987432353    7.78644062364582   -1.74733025202446
C         4.14720459889645    4.75359055369215   -2.98211470724906
H         4.73642095054839    4.30133108432151   -3.76530572569247
C         3.43141853835973    3.95387026481814   -2.10605228655789
H         3.46181801285814    2.87893918371741   -2.20730513176865
C         5.89717854002228   11.45738251062375   -1.95248243264678
H         6.35547227700938   10.72800600267691   -2.60255015456388
C         5.73520832870631   13.69797953742225   -1.11822581250449
H         6.06897841927158   14.72563661107542   -1.12159820557649
B         1.62810171446917    9.03949507910902    2.72886726950659
C         1.61956554576888    8.44754624301041    5.83480356825701
H         1.19246700284547    9.44824707668454    5.81025075138411
H         1.90297611440141    8.21020394979728    6.85659299500102
H         0.85358130746625    7.74551325738311    5.51006079877678
C         2.81530647252502    8.36418273769230    4.95646809549538
C        -0.90488253877202    7.17899728712356    2.42985424124003
H        -0.67676495876936    7.02036607830550    3.48238923992466
H        -1.61851287523673    6.42545403121891    2.10800468627408
H        -1.35930551752827    8.16253119242701    2.32738465332158
C         6.94151189456575    6.88220123643740    4.60885588683144
H         6.38736631974047    6.24141153631342    5.27968175488196
C         4.10853175463373    6.13124251734870   -2.84938830984489
H         4.66626150105199    6.75715716126653   -3.52903405619537
C         8.29693003368847    6.68709557660510    4.42255892386995
H         8.80452929657580    5.89706940636465    4.95712439184928
C         9.00187083221387    7.49752569072565    3.54646461860180
H        10.06147564209671    7.34243187381169    3.40181661584481
S         7.02495234710860    4.41819224554425   -1.30884350668423
C         8.39678774594289    5.34244916234603    0.64267453490486
H         8.67359714428376    5.86875913051274    1.53870410096058
C         7.12945508302914    5.35157876918860    0.14635299145979
C         5.95193689123810    6.06863307113483    0.67784495341812
H         6.01176612812568    6.14034892991631    1.76516960063739
H         5.02470602262698    5.58113981532023    0.37562420972911
C         9.29429800007166    4.58046237982281   -0.13734263948046
H        10.33600923104183    4.45717278216481    0.10089670094087
C         8.69753725091156    4.02105449826088   -1.21890027539924
H         9.13175802262843    3.39900598276010   -1.97613819328528
H         0.66027528894274    9.23687933357126    3.37059437517422

