55
CSD_code = AZILOK | q = 0 | S = 0 | Stoichiometry = C22H28N2O2Zn | MND = 4
Zn        2.78344204328802    5.52809374313137    2.33631729082846
O         3.67931483130692    4.08928050948026    3.04808814479369
O         1.13589122057152    6.03943702811268    2.97265248107080
N         3.73217289522352    7.20408641320748    2.77195359725469
N         2.61058152417146    4.81334621663797    0.50348757308611
C         3.08919935127947    8.20966217823503    3.25671298776498
H         3.66392983602442    9.11179134246375    3.50252698453157
C         1.69900167582603    8.30225403662498    3.53064104482997
C         1.21735673413377    9.54395077365024    4.00003091614809
H         1.91781801923426   10.36295502979754    4.09281840723708
C        -0.09554788736498    9.72347531090369    4.33077483143066
H        -0.44965495657745   10.67897203214104    4.68636783115946
C        -0.98490620498076    8.64942616342832    4.21233888528248
H        -2.02240992239032    8.79158954579904    4.48200745869597
C        -0.57101855383550    7.42208129415008    3.76437148605768
C         0.79432619502231    7.20683813080487    3.39901648103074
C        -1.52047401538723    6.27082449421276    3.62789284333573
H        -1.02695038285235    5.35110536576037    3.93490333202476
H        -1.81984250225480    6.15031606985677    2.58595191981249
H        -2.41266519471115    6.42806383083948    4.22877876565293
C         5.17591801865371    7.29460156461848    2.68406592367097
H         5.48101467781468    8.35347967129128    2.72691541261867
C         5.78313105504283    6.55146335908043    3.87471966001590
H         5.48584211056680    7.02534331889870    4.80778300760216
H         6.86817755168192    6.55370961183178    3.80652228765378
H         5.42443401428098    5.52545501010504    3.87832728649204
C         5.65591616729350    6.68865389137323    1.37055509452183
H         6.73824995131611    6.76438283779327    1.29888772956404
H         5.21409374078692    7.21193181538158    0.52564568089635
H         5.37555614278488    5.63904144234680    1.32236435271296
C         3.15214845153017    3.68729255784279    0.19000471220200
H         3.00810110014336    3.31992641737370   -0.83415610634309
C         3.92362326693372    2.83239254111888    1.02078766182877
C         4.46958579517379    1.67568924566471    0.42239521383181
H         4.30349566149721    1.51894300124371   -0.63491136143352
C         5.19236788394248    0.76943327671876    1.14469774086296
H         5.60514818018847   -0.10916027085530    0.67288245887765
C         5.38937890543849    0.98502645962719    2.51333283629331
H         5.95548779205560    0.26247530940310    3.08498284700397
C         4.88024985573204    2.08936659809675    3.14554640167991
C         4.12964695035549    3.06146990117169    2.41386788854725
C         5.09465596576057    2.32970552262112    4.60897166216751
H         5.37964827280804    1.41196734840920    5.11707416199117
H         4.18434689913448    2.72834044648700    5.05179694670404
H         5.88235574593068    3.06916653409599    4.75810828555373
C         1.76620677773200    5.46187277217620   -0.47982252841658
H         1.99305986381561    5.05969151974323   -1.48128047491591
C         2.02191474217075    6.96443406528604   -0.47500871864111
H         1.78579319474044    7.37757076724961    0.50286009007441
H         1.39660230397442    7.45099961218396   -1.21968823482510
H         3.06399607042155    7.17413073209011   -0.70541052695843
C         0.30554487925273    5.16189905284994   -0.14047512444234
H         0.11409760856540    4.09293785871032   -0.20582290294486
H        -0.35567726410719    5.68272840027464   -0.82861467338346
H         0.09832296085585    5.48878829845969    0.87516204690834

