83
CSD_code = AZILAW | q = 0 | S = 0 | Stoichiometry = C38H35BN6O2Zn | MND = 5
B         2.54884721039918    2.89120442603173    8.20995757418716
C         2.78665088402164    5.80989940059959    9.42731181685865
H         2.68031586724100    5.22775394622305   10.34071051849101
H         2.64743742744539    6.86201059884674    9.66075930807868
H         3.79752474925519    5.66369022376563    9.05099614916363
C         1.78166873114141    5.38634893240468    8.41706998468578
C         0.81588802680188    6.15543256668918    7.79322313660339
H         0.62167323839220    7.19768536677299    7.94570761835837
C         0.13184175270898    5.27417334419769    6.94666196585346
C        -0.95802084523071    5.52605650528690    6.01371898973375
C        -1.04101020452377    6.73869033373513    5.33360178440769
H        -0.31074251596761    7.51028348546644    5.52886723208913
C        -2.03251039073804    6.94464835756562    4.39239961583049
H        -2.08378186753111    7.88593283866881    3.86371919791963
C        -2.95083855619915    5.94491361935593    4.11646524388202
H        -3.71668270869170    6.10305717995159    3.37100270886553
C        -2.88591904177469    4.74220119278333    4.80126664280800
H        -3.60024993733811    3.95956775059682    4.59085415569609
C        -1.90287578312530    4.53666987222216    5.75013630017789
H        -1.86078307630156    3.60400371072947    6.29272101496497
C         5.60186268340226    3.17526925073999    7.34882762557707
H         5.42210378697295    4.21486469296760    7.61864946220578
H         6.55117704392354    3.10923036259675    6.82424701551863
H         5.66225956499239    2.59458856755088    8.26709184803951
C         4.51139489035362    2.66756449126003    6.47544800917009
C         4.58191824549060    2.26564417625452    5.15280422425740
H         5.45349424920227    2.23409265941243    4.53090414394673
C         3.27895578070279    1.88446488345828    4.81354561532326
C         2.73219984536914    1.40917541158539    3.54934191932745
C         3.16722860790510    1.95132240119660    2.34305764947971
H         3.94479804990887    2.70129555488842    2.34647432038779
C         2.58549286419648    1.55698149902625    1.15254354028699
H         2.92187951109740    1.99015357979080    0.22096471900702
C         1.56765024854362    0.61752054910554    1.15198010003637
H         1.10390648402110    0.32109802678473    0.22253914820348
C         1.14569414448964    0.05792131881509    2.34663289923066
H         0.35460719730547   -0.67724783676800    2.34874006406105
C         1.72660133285849    0.44525249139295    3.53951412483773
H         1.40442199525017    0.00264692270016    4.47056774888958
C         2.85654932428191    0.84872967608027   10.58267581458909
H         3.82673509940636    0.74915959216958   10.09902881354836
H         2.72631911492558    0.02844480892028   11.28335393486820
H         2.84785616050701    1.78770584228266   11.13311840804048
C         1.76399415269066    0.81982738630059    9.57494818746247
C         0.72175209362204   -0.08122681120075    9.46579768869661
H         0.51066689605093   -0.91255319468401   10.10728501108652
C        -0.01882972939265    0.34423303885154    8.35639667971496
C        -1.25901889588986   -0.21780543456131    7.83276289841397
C        -1.40298452151013   -1.59322362599287    7.67952547828242
H        -0.57782613052641   -2.24581821932672    7.92636764596931
C        -2.58603952715157   -2.12068362534842    7.19541154802590
H        -2.68753597591355   -3.18939643609360    7.07020416919483
C        -3.63845932608649   -1.28213189772709    6.86769545187871
H        -4.56125900595314   -1.69578405054022    6.48660882107795
C        -3.50538963095250    0.08768278424712    7.02950041334795
H        -4.32641541781380    0.74287762754440    6.77608089379491
C        -2.32365910969273    0.61811114882740    7.51012891117168
H        -2.21868405908918    1.68230625140601    7.65473484296220
C         0.26919348747423    4.49580426270517    2.20340120142725
H        -0.61968321608418    5.08382658956297    1.98800567595090
H         0.61258353053786    4.01551033661810    1.29038815501887
H         1.04965135182416    5.15382450243388    2.57714774982196
C        -0.03032870747357    3.45779652854473    3.26444733364270
C        -1.03952314116290    2.46999071858231    3.01304754542423
C        -1.34026489489907    1.48109710933168    4.00618678538154
C        -2.32813706820924    0.50935842220908    3.67883373629280
H        -2.53990828227712   -0.23709331482953    4.42980727684961
C        -2.97831091851579    0.51434703687095    2.47921608242015
H        -3.72346172187510   -0.23911878182018    2.26360321293174
C        -2.68627913414567    1.49110058480746    1.51901302262584
H        -3.20627997641420    1.48971399098450    0.57271080055285
C        -1.73792006591854    2.43871672521267    1.78891861680937
H        -1.51708891348778    3.18265149650746    1.03970538644933
H         3.34153518498531    3.10445167511604    9.05665633759538
N         1.66872488877420    4.12838317909213    7.95141360750559
N         0.66643530112643    4.06177959496644    7.06973043540610
N         3.23510537946262    2.53276946683947    6.87670671251235
N         2.49261628286630    2.05127672904296    5.87465328067794
N         1.63854680979770    1.71393150228969    8.57650712628182
N         0.55887894867740    1.42298947970459    7.83496271498664
O        -0.78726264424043    1.41140868460189    5.15874508507331
O         0.63104634381984    3.52058337590286    4.31025795308773
Zn        0.54688017789951    2.37578258889230    6.02808341671033

