37
CSD_code = AZISAE | q = 0 | S = 0 | Stoichiometry = C10H16N2O8Pd | MND = 4
C         1.43042868825727    0.09136245912875    9.81132844280208
C         0.90742861053100   -1.29347392147418    9.28445456133545
H         1.67601922373097   -1.78613371625405    8.67596833800549
C        -0.34732042868256   -1.05310453591075    8.42955367980936
H        -0.80100434614580   -2.01873863496171    8.18204615483787
H        -1.07694933939980   -0.45599211597174    9.01780108037861
C         0.00592359890632   -0.32717923119351    7.13326514571096
H        -0.88382665624428    0.06599802532739    6.64018089279779
H         0.67443515932221    0.51372022032149    7.33461371844988
C         0.71207501884864   -1.24171925837960    6.16163341750052
C        -2.70513011241765   -1.54830211898289   13.10824738322608
C        -2.14933719428539   -0.20153595514675   13.72186421883618
H        -1.27231459773541   -0.46468912501326   14.33640412046713
C        -3.17883041292004    0.55355975032133   14.56153575078386
H        -4.10409186656418    0.66361273218698   13.99160566278949
H        -2.80536794208488    1.55545385053205   14.79474813068611
C        -3.50246091755931   -0.17436928831266   15.86251360284148
H        -3.92145019148993   -1.15702423304909   15.63451495393242
H        -2.60866351387866   -0.32745211200625   16.47035616796850
C        -4.50405822466386    0.59294248728659   16.68237172597496
N         0.52884876472875   -2.10393015450006   10.45949708622980
H         1.36311345258072   -2.36446380502840   10.99514211455592
H         0.05060433087348   -2.96268209804253   10.17013852119337
N        -1.67059969116005    0.62365731146077   12.58481550770336
H        -2.48097773923358    0.96944858205548   12.05842162773335
H        -1.14379802429703    1.43740607414385   12.91694214147327
O         0.85506653364920    0.49871265793910   10.87712660649805
O         2.28670311678891    0.68344567788900    9.19141941617622
O         0.96299608512091   -0.62857938948322    5.00410017992304
H         1.43943047335889   -1.21769067162763    4.39795998541222
O         1.01614257181352   -2.38560969792288    6.37383014316672
O        -2.04327922671492   -1.96834677878628   12.10133536866187
O        -3.67005556249047   -2.09067716402072   13.59791033959692
O        -4.77030333388026   -0.02334244379163   17.84019156678329
H        -5.43057341680722    0.47525160941607   18.34674449248264
O        -5.01495356931175    1.63532177443531   16.37153800284637
Pd       -0.59056932053312   -0.73795676258384   11.49627975044007

