62
CSD_code = AZISIN | q = 0 | S = 0 | Stoichiometry = C27H29BrN2O2Pd | MND = 4
Pd        4.93263062161821    3.22683675331291    1.36485425002478
Br        4.39619154102143    4.88538077745718   -0.22664292544849
O         5.80052154816100    0.47462624918691   -2.04107280620838
O         6.37908294927028    1.58486063762379   -0.18468691131351
N         5.35621134288368    1.90472936163136    2.87578800746329
N         6.71071733517724    4.06630492946582    2.20554043368985
C         3.53862746575489    1.79528606528651    4.48511839961945
C         3.17573560481124    3.11860342540393    4.25276104459028
H         3.48425331416855    3.61939839749720    3.32776245788526
C         2.42379117072342    3.81066060760636    5.18458278763133
H         2.14857045681160    4.83697453921836    4.99373436068164
C         2.02091599773943    3.18904396331662    6.35499902750337
H         1.43237770570205    3.72926446294548    7.08114270299379
C         2.37396878907977    1.87159287524655    6.58973227461425
H         2.06215200709577    1.37985339909834    7.49932673805000
C         3.13268887385931    1.17946536042436    5.66150279512193
H         3.40692295745365    0.15064872734126    5.85080861002351
C         4.36050406971059    1.03617171805404    3.46294552262925
H         4.81827353289136    0.15608604827725    3.93229351728139
H         3.69593977817120    0.69137003196627    2.65966451230537
C         6.45412952521349    2.15831262886507    3.50475255717462
C         6.81801421941766    1.51501506090089    4.81343194931113
H         5.97482152948299    1.58316148766526    5.50070880946579
H         7.67017910763377    2.00316538334360    5.27375208993116
H         7.05414894938722    0.45902651100095    4.66981531521487
C         7.31086156024661    3.20675089648538    2.95102182936988
C         8.76421864642215    3.26775414406195    3.32966184146119
H         9.36197805773979    3.55901582111079    2.46755098330614
H         9.12044084250107    2.30110818918038    3.67374858192255
H         8.92270659263580    4.00834124865732    4.11498561193183
C         7.32287643294100    5.29755681916687    1.78014801205998
H         6.91972011963336    5.55429189129535    0.79263274899762
H         8.41653985364576    5.25400300481879    1.72389353536482
C         6.89010971136989    6.35222657436989    2.77707156306392
C         7.82045425809067    7.13499915595511    3.44316073693263
H         8.87460541340711    7.01993299299572    3.23086433434245
C         7.40303849655471    8.07613107511487    4.36947495152694
H         8.13406144803157    8.68846377349355    4.87723994774638
C         6.05592443331305    8.22963596245073    4.64567641661763
H         5.73320338983764    8.96231872488414    5.37059573248106
C         5.12358892679716    7.44389621445198    3.98768082357488
H         4.07110424899061    7.56539387505930    4.19625027398289
C         5.53717244734572    6.50923175800852    3.05752673790242
H         4.80542370453914    5.90297791594980    2.53199290116412
C         3.56875228178750    2.09047112187577    0.46013228643247
C         2.25843417831018    1.95759050523332    0.90470418083429
H         1.89410270741195    2.55815337405445    1.73351531998980
C         1.38577274538733    1.07628801420496    0.28283159954909
H         0.36998502027928    0.98773255202093    0.64152118075019
C         1.80910607596582    0.32682645854087   -0.79996356104163
H         1.12880103807009   -0.35315360974987   -1.29123501633473
C         3.10374628106641    0.46555588409578   -1.26759468436393
H         3.44131073853460   -0.09047951597842   -2.13056458907544
C         3.98241023505170    1.34020718957461   -0.64334865915402
C         5.38781197862929    1.52408944346319   -1.20684161404558
H         5.44605345253609    2.46209157098495   -1.78029721390725
C         6.32522012588362   -0.52102558620273   -1.19312852330214
H         7.16208362638265   -0.99340025923424   -1.70993457239558
H         5.56485698740763   -1.27680367170283   -0.95753373587194
C         6.75024683363494    0.24811828477834    0.07855545950490
H         6.22841942064472   -0.13672630816929    0.96537948173568
H         7.82918729575410    0.22739511256820    0.25030957670428

