45
CSD_code = AZIWUC | q = 0 | S = 0 | Stoichiometry = C23H14HgI2N4O | MND = 4
C        12.15968420698891    2.98309052760447   -4.27340887650229
H        12.94433232567661    2.68134355676386   -4.94816692898067
C         8.88781010151057    5.02212672493824    0.65660522178514
H         9.29869248943280    5.30661794957415    1.61684337772869
C         7.51596544795262    5.12048440750392    0.42290033728001
H         6.86165641199232    5.47810103849591    1.20132867696014
C         7.03169955009975    4.74967495205952   -0.80694517038833
H         5.97505664007986    4.80535398121715   -1.02603212991202
C         7.92944732303345    4.29631414367341   -1.78461192579336
C         7.55802214968914    3.89328541802648   -3.08767261912447
C         6.55414571027989    3.35027101839288   -4.97323550616641
C         5.53563362526370    3.22005302502294   -5.98926524766515
C         5.93031436801431    3.35524970373980   -7.32402786611050
C         4.15316662301313    3.03538314844157   -5.67935142581822
C         4.95381835810730    3.47653397276979   -8.33624038245522
H         5.30391932760364    3.61927023434215   -9.34607042349937
C         3.62822264443068    3.43334089140522   -8.03374321027255
H         2.88694988489817    3.55849498954686   -8.80889736631494
C         3.19095003075357    3.18648556296226   -6.71254430798347
C         1.82129626143417    3.05717785578602   -6.41288583163609
H         1.10548265043835    3.19618181726424   -7.20980835110837
C         1.40293761939967    2.74074546519654   -5.14966679937136
H         0.35173092176515    2.64285997581402   -4.92574260950248
C         2.35145255515010    2.49886194513464   -4.14976266693955
H         2.02354120568448    2.18420034119155   -3.16984649275653
C         3.68976332063239    2.63952847283490   -4.40755714949050
H         4.39739361779344    2.37378526220532   -3.63619700344271
N         6.34065887077126    3.81797655098020   -3.70449226162788
H         5.45547237428183    4.12213129054695   -3.33522450955616
O         7.20694771296897    3.41846032650628   -7.70571380748078
H         7.78601304480162    3.29212153832314   -6.91625809952788
C        12.47431697993167    3.36807797191316   -2.96985238870262
H        13.50435800016926    3.36589645614486   -2.63544007375059
C        10.84212159117049    2.99463661249645   -4.66072425277553
H        10.53095451528449    2.69970774260827   -5.65101482370204
C         9.87175563095664    3.40443893586437   -3.73811302697617
C        10.27990063517784    3.78459905984248   -2.43782205269460
C         9.30997133035581    4.23232932457567   -1.45857644072861
C         8.48380442423652    3.46042068652405   -4.03652761454333
N         9.74791990450394    4.59259970285168   -0.24214486166125
N        11.57686434476494    3.74765552500618   -2.08443305809922
N         7.84284529555950    3.14225864435235   -5.18998459649981
Hg       12.13278945868269    4.09114666129073    0.31561673550738
I        11.78481020304330    1.64417078278927    1.17305093959367
I        13.20351031422639    6.46735580519435    0.32105686937544

