65
CSD_code = AZIXEO | q = 0 | S = 0 | Stoichiometry = C33H25BrN2NiOP2 | MND = 4
Ni        6.30519885915078    2.39048498454695    3.11646206720238
Br        7.48106359096313    2.53558634995312    5.03430779218747
P         7.51892011331647    3.88527629514516    2.25446192653608
P         4.84426816542898    1.12548999185349    3.99144996246234
C         5.36518232502974    2.42174474833518    1.36578336233559
C         5.70134758400247    3.52306795381690    0.55555544009480
C         5.07502044816915    3.82344004551408   -0.64181721222598
C         4.03895476048952    3.02204046634271   -1.07966735811048
C         3.68986233777231    1.91167230335505   -0.34253547365870
C         4.35903178976678    1.59157280269469    0.84087600779747
C         4.00896494195391    0.09888661201781    2.79810294523910
C         3.41842527177972   -0.70651857511829    0.86339119533318
C         3.16219001844201   -1.60735374711611    1.85948796982527
C         8.03696117488048    5.46776315797477    2.95517388432744
C         7.35133202587773    6.63904198772839    2.65895747010560
C         7.76201629367520    7.83463751900997    3.22065581214412
C         8.84188330216382    7.85974265427168    4.08769987195345
C         9.51342608067402    6.68724259260124    4.39810996182200
C         9.11323936147065    5.48961902128755    3.83713913738675
C         9.07277873608789    3.20357947369552    1.59102994754319
C         9.97114936026447    4.00037603192601    0.89331133302492
C        11.11486113431855    3.43246194405698    0.36373702057236
C        11.36211715138897    2.07819037151165    0.53192453742976
C        10.46401343000713    1.28266147802885    1.22418150475463
C         9.31640919329760    1.84645282297634    1.75070858366335
C         5.06001991554258   -0.07661151772252    5.33054385542321
C         6.27942176203637   -0.72197795640627    5.48610733394414
C         6.42450293603383   -1.69513455692570    6.45788254298732
C         5.35278220886911   -2.02741951458869    7.26841647845480
C         4.13313904819594   -1.38925266626934    7.10648423418078
C         3.98076425438251   -0.41528051128553    6.13867874535394
C         3.57643212562617    2.27014454649846    4.61660005727739
C         3.80343355258300    2.89555057346932    5.84093880735576
C         2.89697709000387    3.82351312794408    6.31740694631204
C         1.77053213726431    4.13984860557963    5.57396495663100
C         1.55085567571497    3.52860174376492    4.35035268095082
C         2.45304066492132    2.59850025828092    3.86619959321820
N         3.96948207667214    0.38897300023303    1.46583363333334
N         3.53842976697444   -1.10036188991019    3.05451633114277
O         6.72142294463630    4.38302093825157    0.93296219243410
H         5.40662940787067    4.68277103699366   -1.20310485263609
H         3.51383640626771    3.25730619011925   -1.99219619749344
H         2.87313889573318    1.28817261622335   -0.67263024518642
H         3.28685198148385   -0.78731161996788   -0.19551462339533
H         2.73627456829398   -2.58800825680992    1.78466495530669
H         6.50603534535131    6.61142153449721    1.98665371859830
H         7.23432062681799    8.74733848599094    2.98483058387816
H         9.15704570908488    8.79459143576289    4.52724006415264
H        10.34829616552159    6.70576534830616    5.08206439871388
H         9.62153139926209    4.56910961221987    4.08623667646454
H         9.76691062493251    5.05517687823297    0.77160662772605
H        11.81855865785942    4.04601993386889   -0.17953616218605
H        12.26025847785892    1.64198542263225    0.12021682200612
H        10.65882943059180    0.22843127643521    1.35295328995636
H         8.59809822052053    1.23852838975788    2.29899649514731
H         7.11687952551671   -0.45218261350374    4.85723636083138
H         7.37484888369432   -2.19198501900601    6.58311203413081
H         5.46597848573381   -2.78616726609645    8.02887801264544
H         3.29660816508580   -1.65402833636630    7.73663876351855
H         3.02997418134587    0.08033739468746    6.00572409564950
H         4.69045495191754    2.64996171889537    6.41062600925846
H         3.07247346653291    4.30497311709980    7.26792237319923
H         1.06426706452467    4.86715006991754    5.94648703394289
H         0.67509081296719    3.77871600608980    3.76915903622560
H         2.28155493539376    2.12415317669410    2.90925865079463

