39
CSD_code = AZIYEO | q = 0 | S = 0 | Stoichiometry = C16H14Cl2N6Zn | MND = 4
Zn        5.04589754761813    3.87427673850460    3.98011057312053
Cl        2.98531446084896    3.14817843358268    4.33705633063250
Cl        6.95947006283996    2.98376939250179    3.31520920018706
N         2.88201329683576    9.04242022848315   -0.41377292679069
C         5.72409117561905    5.81902897505253    1.76325612334675
H         6.66543170402825    5.30071553517761    1.88340947042353
N         4.76786833101485    5.48621936614384    2.62601095353407
C         4.30217424118633    7.38951986946358    0.64654308098089
C         4.03049966374588    8.37028322341735   -0.38634857521276
C         5.54035311149599    6.75589131595494    0.76609113625863
H         6.35050048446430    6.98520502512876    0.09293367115918
C         3.30857149083007    7.03617393369213    1.56375931433050
H         2.34001690538974    7.50384724791029    1.50111345872166
C         4.10826303055851    9.70662837359834   -2.14290015058342
H         4.31994416373160   10.27692207149652   -3.02428353336149
N         2.94656505501954    9.83558892980280   -1.46664576992814
H         2.17201957833484   10.44489466996190   -1.68071926909679
C         3.58330202834176    6.08659030190406    2.52465951356650
H         2.83442066993914    5.77025450478436    3.23666256033061
C         4.84634691759952    8.76520601997346   -1.47294906610077
H         5.82099498070666    8.40512593192276   -1.72788748321188
C         6.56851370492332    6.28888864756046    9.64990438276152
N         7.83327096739741    6.98428429539790   11.20134037323611
H         8.70064589880299    7.25664514612193   11.63800581161239
N         7.83338609893554    6.57961836165778    9.94520513981969
C         6.59977155536063    6.96946519754638   11.75065939149621
H         6.42404257613613    7.26662900035326   12.76428071713570
C         5.74430856194375    6.52510102006131   10.77555719122555
H         4.68726109063626    6.38427204139760   10.85805444949018
N         5.53540416738119    4.82136788432689    5.81409504802304
C         4.87233564715354    5.53697950957448    7.98553380988745
H         4.06819055398797    5.70318658570905    8.68374274583345
C         6.19796951134181    5.79715424850704    8.33708696267976
C         4.59284635971518    5.05294193177858    6.72350118740817
H         3.58106905225649    4.82428890684583    6.41887735339584
C         6.80367520180223    5.06949158385803    6.13581297779209
H         7.53330441185234    4.85146470786998    5.36873726277617
C         7.17805454963682    5.55456879802415    7.37080504365606
H         8.21239118969700    5.74151204639268    7.60759153925610

