51
CSD_code = AZMTCO | q = 1 | S = 0 | Stoichiometry = C12H28CoN10(1+) | MND = 6
Co        0.00072245412988   -0.00034850400482    0.00007262959747
N         1.36738032995432   -1.32791442700103    0.51811499922246
N         0.05533720704046    0.61914406799877    1.92680778838471
N        -1.38473081612704   -1.14533747873763    0.58057800193509
N        -2.09667956539488   -1.86644526997782   -0.00927246421197
N        -2.82544874736167   -2.58248169324808   -0.49996969615914
C         1.38337360187450   -1.40189477968393    1.98586927965056
C         1.24900223861039    0.01064929463624    2.53823572202791
C        -0.14348932480154    2.03491520250245    2.30037240070016
C        -1.40231797336773    2.58197751863962    1.61830980932056
C         1.30841409462237   -2.65883060681280   -0.09773876492381
C        -0.28305707775657    2.19602476630241    3.81552537543900
H         2.25780877349117   -0.91119258336441    0.22651492151608
H         0.52781613003443   -2.00417791590142    2.30349241438559
H         2.30087003925683   -1.87638560901300    2.34985048135358
H         1.16641645403390   -0.03041224914299    3.62758130191214
H         2.12567569367736    0.61335420649439    2.28238554499720
H        -0.75122022766755    0.10931856683474    2.30257938624130
H         0.72831105574679    2.60547028048366    1.96401166658329
H        -2.26447260452231    1.97417842662897    1.90555090302732
H        -1.57335395343549    3.59163732538674    1.99095214990503
H         0.37337384693703   -3.14079041166616    0.19707578191367
H         2.13732072174712   -3.26886473800275    0.28098207821007
H        -0.55501203505058    3.22107821381848    4.04856568900627
H         0.64934229228737    1.98594999678306    4.33015789578642
H        -1.06150402597156    1.54265164423387    4.20484880079805
N        -1.36533363207290    1.32768457643457   -0.51862912360831
N        -0.05340913315024   -0.61964593841582   -1.92681137411278
N         1.38741675615621    1.14316041526565   -0.58071853991787
C        -1.30814433911883    2.65804491098884    0.09867738018024
C         1.40114752915393   -2.58457303958207   -1.61753742217187
C        -1.37911187415137    1.40303978758762   -1.98636528948439
H        -2.25623994621971    0.91063834707628   -0.22899421782221
C        -1.24541494303672   -0.00921248732022   -2.53965373621708
C         0.14259801319113   -2.03617086587287   -2.29901284812333
H         0.75449883266220   -0.11181565619224   -2.30236168234357
N         2.09091527376912    1.87434369157825    0.00688605037018
H        -0.37335241207385    3.14138255518751   -0.19463498916134
H        -2.13727919468227    3.26765775792781   -0.28023277955635
H         2.26398640931809   -1.97848377586425   -1.90630523655078
H         1.57019952426802   -3.59492513494809   -1.98922567083421
H        -0.52251821896190    2.00477249038743   -2.30223779463912
H        -2.29562859672389    1.87875260301448   -2.35123830374048
H        -1.16105389553173    0.03266379853312   -3.62883025355995
H        -2.12325754326209   -0.61105800691174   -2.28571606972223
C         0.28025831622391   -2.19956021327587   -3.81411014951486
H        -0.72985916136730   -2.60476970911935   -1.96106737333020
N         2.81243349012286    2.59880384213997    0.49592464418179
H         0.55020999848039   -3.22538576784685   -4.04611052434383
H        -0.65233953579979   -1.98856578909792   -4.32801069787126
H         1.05939970081905   -1.54805163586249   -4.20513809472482

