51
CSD_code = AZOCEY | q = 0 | S = 0 | Stoichiometry = C23H23Cl2NOPd | MND = 4
Pd        7.06162094827631   14.67716448738063    2.14480305282141
C         8.40890042102083    9.97799642923861    2.66802964882252
H         8.11909320734948    9.45209619846635    3.56338500702249
C         9.13144116554129    9.29801709070612    1.70281018591407
H         9.38680315653449    8.26160365576687    1.86540692007934
C         9.52644089163355    9.93833227842848    0.54163421661836
H        10.08933174259623    9.40558590115912   -0.20916058878019
C         9.19771127432831   11.26961848964113    0.35443304915589
H         9.50339897487493   11.78601739769552   -0.54233630821180
C         8.47607834029711   11.95486978101622    1.31685688358254
H         8.24883926785933   13.01747511520844    1.12725038393753
C         8.06804188026316   11.31572878700417    2.48816162616928
C         7.26156862623284   12.08119937218471    3.53789598709022
C         7.20595577779827   11.38223548811541    4.90333525652507
H         8.21489825958709   11.18277697644170    5.25825208681520
H         6.64185085271768   10.45623126561033    4.86700916773510
H         6.71960714808924   12.05253305722082    5.60973817310046
C         3.61880743745855   11.65551192989550    3.90643779250092
H         3.47238102284701   12.67029668635593    4.24107953382474
C         2.63309907138738   10.71150780219860    4.12665663600008
H         1.71934830555938   11.00144632977118    4.62243272929131
C         2.81422619451478    9.40306173211550    3.71180121958002
H         2.04119449870532    8.66885181832521    3.87965033478380
C         3.99116988096811    9.03931733284959    3.07855007617661
H         4.13714415340114    8.02181333863442    2.74807287094833
C         4.98389852203361    9.97665186500444    2.86072210034867
H         5.89141094108458    9.69235033791680    2.34901290103756
C         4.80637057799897   11.29712389711086    3.27285590626728
C         5.84186988578314   12.31431233096131    3.00736112907818
C         3.75247479519061   13.13875569668780    0.80964954447419
C         2.49729138200022   13.54964532334962    0.38651968887625
H         2.05313342080735   13.07454384249609   -0.47532999687659
C         1.82327314394813   14.56386670758744    1.04015373250275
H         0.84524880612729   14.86827346923511    0.69996663136165
C         2.41748763850861   15.21729682822002    2.10554601327873
H         1.90843778306553   16.03988544649678    2.58537291540562
C         3.67285338352292   14.84331788516564    2.55518385014388
C         4.31248665712707   13.76620524217997    1.92500495838796
C         4.53160952661324   12.10901763783405    0.04976520707654
H         5.55883547995682   12.45316986186924   -0.08698669528931
H         4.08571267023625   11.94890243219131   -0.92795131092516
H         4.55400303187567   11.15528795535609    0.57792188281942
C         4.36124938701713   15.58647238030869    3.66298585269011
H         4.63940235603119   14.92189699573462    4.48520495857020
H         3.71737568022359   16.37081053460948    4.05261177772124
H         5.28719180961154   16.06113249314814    3.27351427572377
Cl        6.19054714445274   15.69246828481514    0.36894587336566
Cl        8.89857945014800   15.93361065420116    2.11606259720699
N         5.58974926299324   13.40781241940745    2.38685521511429
O         7.83032206624378   13.38345596449244    3.78215735440473
H         8.79863269756668   13.34494477218523    3.73820769572426

