57
CSD_code = AZOFOL | q = 0 | S = 0 | Stoichiometry = C18H20FeN6O10S2 | MND = 6
Fe        0.00016432528228    5.35403263419523   -0.00025441259980
S         9.20594508647389    6.04555784061761    2.62163707475561
O         0.17211782188999    3.23715385461867    1.09066237770889
O        -0.93645718340805    5.98426706323735    2.10238717738972
O         6.63920088911680    6.00791056403482    1.93092699733674
O        11.53233382162617    5.71026684968851    3.05699444100363
O        12.25560597601199    7.42236916014136    4.34284805117267
N         1.71966686916523    5.81597069345884    0.62812634794125
N         5.85180475782858    7.83947413920483    2.86658373963785
N         7.14396818208956    7.77068491262751    3.15342183541836
C         2.78804272620380    5.03821867618765    0.38587945938334
H         2.59790429596242    4.16354911980437   -0.22142838692623
C         4.05207672231187    5.31031851419332    0.84928181546212
H         4.87704111500620    4.65234494210386    0.62954127055162
C         1.92847411269615    6.92543663143667    1.35990282859765
H         1.05135030263251    7.53059926857578    1.54519780573903
C         3.15128765719953    7.28691236404384    1.86648254968528
H         3.28096360731744    8.18198218765011    2.45108563208696
C         4.26100646956981    6.46402651205929    1.61892743638221
C         5.54496858952792    6.79755097799647    2.14203280788885
C         7.61243058668033    6.67459254356591    2.59398888917051
C         9.97300600110391    7.32979986351684    3.63157605251930
H         9.93565846879448    8.29667161089184    3.13648966518296
H         9.51579462950626    7.38433785102816    4.61607963449313
C        11.46993131044327    6.75833505975646    3.69968892343230
H        -0.29975104291548    5.85273876865569    2.80937850243605
H        -1.68990850718680    5.42519783896395    2.30757333887238
H        -0.34860092327873    2.52881264289005    0.70417737733289
H         1.06425159350448    2.90037304499086    1.20468689644919
S        -9.20613459029172    4.66489599542292   -2.62072882026533
O        -0.17064307450458    7.47030700105629   -1.09206669555757
O         0.93724849346617    4.72285101326260   -2.10251724771025
O        -6.63927801443961    4.70170587706550   -1.93042612598728
O       -11.53247898009000    5.00105723323859   -3.05555658002485
O       -12.25690878386247    3.28838643718205   -4.33996495417340
N        -1.71931557088188    4.89197031438779   -0.62862947313139
N        -5.85244109714400    2.87026431615258   -2.86677351405611
N        -7.14466983954148    2.93934214287174   -3.15325537256071
C        -2.78730866652937    5.67027082763221   -0.38643152466210
H        -2.59675744710298    6.54471441815621    0.22106878076924
C        -4.05152719958351    5.39868254473168   -0.84961089039764
H        -4.87626387349695    6.05676945299143   -0.62940710297146
C        -1.92870827635863    3.78248458440011   -1.36023847192687
H        -1.05177163870202    3.17720940311581   -1.54601434859994
C        -3.15172346068880    3.42160477217963   -1.86676658829470
H        -3.28180737497911    2.52689056816714   -2.45181767357792
C        -4.26105287352331    4.24501742826530   -1.61915170238531
C        -5.54522054671235    3.91197306018693   -2.14207366133326
C        -7.61272253066325    4.03555537890464   -2.59372057938277
C        -9.97384106165494    3.38084729004701   -3.63040759401181
H        -9.93621139087705    2.41382162574461   -3.13560028323884
H        -9.51717837197696    3.32661083540386   -4.61518323757012
C       -11.47069968324144    3.95258299679091   -3.69767890607537
H         0.30044591242890    4.85168902703830   -2.80990034473466
H         1.68933841419407    5.28351948413757   -2.30834393138135
H         0.34982432643608    8.17866724421600   -0.70520741248684
H        -1.06247106082195    7.80732259712768   -1.20747187277173

