80
CSD_code = AZOHAY | q = 0 | S = 0 | Stoichiometry = C36H38ClN3OZn | MND = 4
Zn       11.11299459531000    2.59460003392474    8.82597022790635
Cl       12.58428401559510    1.79089034682891    7.41250011248518
O        11.66212236161379    4.13263916915230    9.77561501018298
N        11.12692689913002    0.00668142702356   10.53268355553276
N         9.84865313190138    1.48875296869496   11.38996954330597
N         9.50235007858404    3.43617105098382    7.95118190146818
C        10.64019343710330    1.23971309520726   10.33511454482072
C        10.64386560162846   -0.52150046342029   11.69822192178446
H        10.91298317453871   -1.50145220042055   12.03544313295498
C         9.83304377220812    0.41834692610560   12.24250292428988
H         9.25831973336186    0.41613213470790   13.14619585050060
C        12.07564878340881   -0.63528793667494    9.68856745292564
C        13.42361141326381   -0.30029850372335    9.83731748772496
C        14.34762486952267   -0.91852820812859    9.01473742705156
H        15.39146712762331   -0.65763535095365    9.10767570625332
C        13.95971419437513   -1.84310098523177    8.05363263752398
C        12.61722407186704   -2.16036072047104    7.93738297801031
H        12.29845829147796   -2.87366466683768    7.19101458652862
C        11.65675055143274   -1.56664078423458    8.74560234592701
C         9.16972588983195    2.71314487838915   11.63674985378955
C         9.80310357874185    3.69032195790420   12.40513823428143
C         9.11911051109197    4.86748664834449   12.65952347041044
H         9.59576433328192    5.63660459424384   13.24872468804313
C         7.83965065912516    5.08665389859397   12.16702006314136
C         7.23787899559329    4.09589466718488   11.40668821747460
H         6.24109918550206    4.25274968147122   11.02011218160806
C         7.88409149312599    2.89911396794174   11.13591914167575
C        11.00597895594995    5.22732169692121    9.88696792634054
C        11.53342928656251    6.25367792035171   10.71732253253632
H        12.47872722764133    6.05330801030455   11.19968180623527
C        10.89081389541500    7.44498615561338   10.90037633828238
H        11.32556185987802    8.20136008683924   11.53928786397087
C         9.67194862834177    7.69804905770309   10.26187544080261
H         9.17264520773471    8.64558283938058   10.40174435052866
C         9.13620916350095    6.73943881886089    9.44612575583776
H         8.19924897398733    6.92955854243299    8.93894689624114
C         9.76608560878686    5.49753695912245    9.22909463487763
C         9.13880790009605    4.61954910445578    8.30604920636216
H         8.24332436001637    5.03770809514539    7.82842868852314
C         8.72687241244369    2.82061301379286    6.87994282199819
H         7.65534320447169    2.92829833021660    7.11605823474551
C         9.05977119566222    1.33815950888646    6.74647379286188
H         8.79679009847372    0.80059489953779    7.65543751551601
H        10.12157484492869    1.20736995137589    6.55782783872875
H         8.50048616515430    0.91380432575545    5.91501399474742
C         8.99959623069826    3.53611952219345    5.57206042906962
C        10.29962586236678    3.66074025480592    5.09746611698225
H        11.12091428108930    3.24165296346761    5.65868414966915
C        10.54444046584560    4.32233075287077    3.90791820539836
H        11.55850599341610    4.41463488866567    3.54874579317571
C         9.49819346234409    4.86303974459706    3.17905778550751
H         9.69197792391594    5.37912526068556    2.24991564973043
C         8.20162497897008    4.74044530598231    3.64611255725818
H         7.37930258363593    5.15917458940422    3.08361387188679
C         7.95531710784938    4.08266095102227    4.83903196880128
H         6.93899408426881    3.99044706798643    5.19923385769909
C        13.84720197392560    0.73029449033070   10.83808124823634
H        13.39661525344897    0.54999587246659   11.81425009686451
H        13.53465927731737    1.71816091329795   10.49459486787451
H        14.92837361915930    0.73450828723545   10.94518452324205
C        14.97707979478838   -2.45368510876468    7.14118526232750
H        15.90354083078457   -2.65916307764315    7.67316355291810
H        15.20037444171577   -1.75530941178103    6.33491951857091
H        14.60666655682172   -3.37611126649836    6.70076443602205
C        10.21297842667264   -1.93003699816626    8.56109311872973
H        10.08636246524161   -3.01014348741395    8.62410043986811
H         9.88243866081604   -1.61180083314964    7.57353283451990
H         9.57318523874046   -1.46212254330564    9.30512766412178
C        11.19134706487973    3.47097707241279   12.91825740297933
H        11.48147470145990    4.27547757201444   13.58823460558648
H        11.88363021182823    3.45261440393307   12.07630416932527
H        11.27429547054937    2.52248983512442   13.44888673913271
C         7.13173179508691    6.37032720853847   12.46954797745608
H         7.02137154749633    6.49719946593115   13.54584017013017
H         6.14561709525487    6.39116709695977   12.01323003247415
H         7.71228693104920    7.20954811484215   12.09097516857757
C         7.21678837948183    1.81768139624488   10.34200197613158
H         7.83649787655062    1.53590415541371    9.49322413966644
H         6.25080147337929    2.15226550158006    9.97416798917424
H         7.06290819983244    0.92904509536437   10.95563084411526

