89
CSD_code = AZOKUV | q = 0 | S = 0 | Stoichiometry = C32H14F36O6Pd | MND = 4
Pd        4.25363404991911   -0.01975258003291    8.02578495068585
O         3.41785366830292    0.04642959852455    9.80894512885297
C         2.39270003511171    0.70166453484040   10.15380393865232
C         1.61486076422765    1.58920197183464    9.40748101339089
C         0.48081897314387    2.36904494208271   10.03768871061942
H        -0.40440194007802    1.73017023020650   10.10308273651126
H         0.74676530670821    2.66631765651446   11.05011510371529
C         0.13469049491951    3.62643707617292    9.24961061780144
H         0.97300137626766    4.32316232896732    9.28031803882359
H        -0.72625107852297    4.11081863366338    9.70970098967782
C        -0.18133775143420    3.25421045627984    7.81262925345288
H        -0.96497651447702    2.49612525141965    7.78671998377392
H        -0.52894505213594    4.11835851438751    7.24425606677728
C         1.07731352902808    2.67712816193319    7.15034747672176
H         0.81670187612387    2.13599900800847    6.23676076747471
C         1.88903753407536    1.72486155146051    8.03010985595757
O         2.79129642119967    1.13998948401702    7.36967257061772
C         2.01653995531352    3.81239986125166    6.81770716117617
O         2.68539559251893    4.42365424919977    7.59248394148120
C         2.06008947066587    4.19626862505189    5.30288746296835
F         0.86035355461413    3.99662085418778    4.71138901338377
F         2.34074335656072    5.50389025675040    5.17069697939189
C         3.13051302536472    3.33341541301297    4.55777345272472
F         2.69752678475594    2.05845099729200    4.53949460238584
F         4.28565804078998    3.35284677035043    5.24124757171403
C         3.37891568932683    3.79866759310624    3.08947525094955
F         3.76032235124637    5.08625549698187    3.06334842585914
F         2.22953357863869    3.70790734730578    2.39766904374373
C         4.47189184917512    2.96952179230271    2.34409657822525
F         4.48725829827629    3.31077771201066    1.06021236664614
F         4.23167551745419    1.66535715778871    2.41230342204860
F         5.67189409848417    3.21503686294684    2.84697355935652
C         2.07372258650932    0.39613411317191   11.64099536754067
F         2.39043103493696   -0.89219632136369   11.87769731971699
F         0.78027517789812    0.51980459620149   12.00080549973841
C         2.96370555558553    1.27928333708318   12.57181653395654
F         2.88242310880430    2.57117674993172   12.18474616043572
F         4.24745655923343    0.92059281637493   12.42756678981815
C         2.54674666994703    1.21686288743202   14.07305560374580
F         2.18331039604498   -0.02233413852947   14.43329736169113
F         1.47318530687564    2.01082419953843   14.24786438549376
C         3.67878271339883    1.70029330514129   15.03165162649212
F         4.21153078965295    2.84146103156555   14.60736978075393
F         4.64541462587768    0.79820925300463   15.12797192769941
F         3.18647007482139    1.90718496886392   16.24744487704674
O         5.08941082258559   -0.08591516536653    6.24262049754374
C         6.11455641225400   -0.74115132581332    5.89773694182934
C         6.89238162617220   -1.62870231487907    6.64405107899588
C         8.02642022856217   -2.40855374231183    6.01385071265326
H         8.91164709314897   -1.76968541038769    5.94847153455476
H         7.76048062008781   -2.70581662580167    5.00141933684086
C         8.37252618176617   -3.66595408845351    6.80192522103391
H         7.53419763288784   -4.36265866768954    6.77122273281879
H         9.23345334738066   -4.15035632703693    6.34182943499123
C         8.68856548259138   -3.29373314920875    8.23890640215176
H         9.47221496278032   -2.53565934861463    8.26481802069827
H         9.03616022233679   -4.15788652985189    8.80727823420610
C         7.42992295557274   -2.71663370025096    8.90118581585475
H         7.69053630013802   -2.17550007045475    9.81476985608735
C         6.61820364421927   -1.76436192604862    8.02142753273774
O         5.71595481609497   -1.17949893108475    8.68187865997149
C         6.49068032637742   -3.85188719047627    9.23383361970635
O         5.82180416273604   -4.46313094822469    8.45905940310897
C         6.44712667064427   -4.23575457108542   10.74865387161362
F         7.64687378497100   -4.03614103177577   11.34014179161890
F         6.16643754180343   -5.54336927904710   10.88084045063430
C         5.37673847663393   -3.37287588382108   11.49378629115460
F         5.80975159681838   -2.09791992430732   11.51204296239002
F         4.22157515099342   -3.39229224442479   10.81034186545305
C         5.12836810938393   -3.83811074924944   12.96209955041183
F         4.74696993686924   -5.12570121670212   12.98825378197004
F         6.27776138574388   -3.74733009018865   13.65388635810191
C         4.03539178976216   -3.00895512883188   13.70747599986365
F         4.02004978833923   -3.35018269968416   14.99136823231747
F         4.27559958696396   -1.70478992791852   13.63923592039656
F         2.83538368158953   -3.25449238422695   13.20462118261771
C         6.43352849986135   -0.43560288399598    4.41054799967362
F         6.11682440569173    0.85273099062760    4.17386067769046
F         7.72697486617263   -0.55927851157924    4.05073751534255
C         5.54353814729556   -1.31873918805670    3.47971861083541
F         5.62480720807492   -2.61063347667973    3.86679054680756
F         4.25979064722255   -0.96003315373554    3.62396167772847
C         5.96050533586771   -1.25632623964223    1.97848150543006
F         6.32394979664237   -0.01713303850181    1.61823450736042
F         7.03406431850322   -2.05029401997683    1.80368578431557
C         4.82847587175825   -1.73976080368329    1.01987908486629
F         4.29572359050085   -2.88092553056862    1.44416400792067
F         3.86184399730203   -0.83767847252056    0.92354324280270
F         5.32080152175781   -1.94665968670160   -0.19590772480169

