53
CSD_code = AZOLAD | q = 0 | S = 0 | Stoichiometry = C24H20N4O4Zn | MND = 5
Zn        2.03423996298845    1.50204320312541    2.80025060041791
O         0.01143123047865    1.83757643177255    2.89608300388338
O         1.50409190976617    3.32496654301117    3.46277527858814
O         4.06905356699642    1.28977866823492    2.99656377441586
O         2.63121277023032    0.47626021104142    4.42241876101518
N        -3.79736998493671    6.62868873202212    4.67032028714054
H        -3.55519454586508    7.38824143048521    5.28534492977688
H        -4.72402065204608    6.25680987223580    4.79999748567254
N         8.06074381248503   -1.22428685414824    7.27703984381588
H         8.97035357579057   -0.82005989874493    7.12512765454631
H         7.84947905716468   -1.44323176687174    8.23702145124912
N         2.29508283337758    2.17911032458818    0.79962003495120
N         1.73386423458664   -0.25633371534133    1.64191124507521
C        -0.77354377848467    3.92594078024714    3.70312585260321
C        -0.45894595169602    5.18054593447425    4.21932386969560
H         0.58045360720402    5.43790720366906    4.35270375097138
C        -1.45695231895092    6.06593549396142    4.56054532608519
H        -1.21135560605537    7.03836833173098    4.96424699982843
C        -2.80018793305577    5.71901916277497    4.39204461610830
C        -3.11202811432933    4.45958309475430    3.87290278252003
H        -4.15002386565670    4.18628776390279    3.74215119560471
C        -2.11082316623362    3.57664928666661    3.53405066566370
H        -2.34244507757904    2.59986878911447    3.13785927477886
C         0.30174052699085    2.97402393923367    3.34093161790892
C         4.93096564733001    0.19003739513898    4.91273474556315
C         4.66637794901313   -0.48047382511584    6.10427514313595
H         3.63814532543242   -0.63151009406735    6.39465356190700
C         5.69892614107356   -0.92967790838376    6.89721094550195
H         5.49205249121607   -1.44751423216428    7.82363661601890
C         7.02729649888003   -0.71916999595216    6.51768883606874
C         7.28893290967493   -0.04676578663463    5.32083043365294
H         8.31524794515789    0.12028453475686    5.02428048909085
C         6.25343310691487    0.40041672852063    4.53075517275204
H         6.44575216659213    0.92611205231564    3.60795667891916
C         3.82031756407887    0.68417016506281    4.06665507046659
C         2.72049096098527    3.38949303033929    0.49824526763444
H         2.70094185034797    4.10299748861790    1.30929573915561
C         3.16354037499768    3.72676255674905   -0.77299574825155
H         3.50356384005872    4.72746563591610   -0.98672165890326
C         3.16732341995059    2.74415150163721   -1.74938357920841
H         3.51808436300892    2.95946763230309   -2.74819504960321
C         2.71943724638177    1.47367348984719   -1.42724763093920
H         2.73365490128090    0.69023426034225   -2.16802947777447
C         2.27936860858974    1.22460905366901   -0.12843333284380
C         1.78688361958550   -0.08767154576070    0.32237331045650
C         1.38518393516108   -1.09759894677601   -0.55032936672425
H         1.40081477031361   -0.94689801462112   -1.61789160873805
C         0.93804958361720   -2.29796697519592   -0.02348990361414
H         0.61830751539962   -3.09391492820958   -0.68018461375597
C         0.90315081992357   -2.45797712969515    1.35208876874631
H         0.56293010108116   -3.37865057851655    1.79848915199178
C         1.30852783575653   -1.39608488758489    2.14852509842256
H         1.29804241502338   -1.44869363847919    3.22754663855095

