73
CSD_code = AZORAI | q = 1 | S = 0 | Stoichiometry = C36H32N2OPRu(1+) | MND = 8
Ru        2.15334543929512    2.73074243623193    7.74631381941887
C         0.77556567184969    0.95650986544116    7.69330667604751
H        -0.18999908990710    0.83254455796238    7.22142743172535
C         2.02678004257609    0.52460284506614    7.16816405795176
H         2.17976686894303    0.03049153891859    6.21960838868486
C         2.99241303159185    0.66403441464195    8.18694660116604
H         4.01464892680175    0.30640391336582    8.14735446071128
C         2.34341882615946    1.17018772465048    9.35701655904134
H         2.77990165948097    1.19387030358571   10.34492555008841
C         0.97329323449628    1.32530528096718    9.04888537018383
H         0.18728930595034    1.57644099122620    9.74882803777073
N         1.46201615821794    4.44012487268988    8.52543953423686
C         1.16155245150375    5.43092814647594    7.64325014985105
C         0.74609149990406    6.69824857125583    8.06879886864548
H         0.53025136340023    7.45443784285530    7.33164348823336
C         0.62702919261092    6.94798936499117    9.41633644312849
H         0.31075631440103    7.91388346546742    9.77509816072191
C         0.92050281440217    5.92030189078580   10.31352460246968
H         0.82897693606827    6.07275428071679   11.37626519351031
C         1.33154396974443    4.69742809897043    9.82873697105582
H         1.56902805021351    3.88928726899044   10.50848663897088
C         1.29068614921499    5.01707998418389    6.28627933353287
H         1.04549266424327    5.67781149037522    5.46244785974198
N         1.66152182139576    3.77994882230000    6.09745514043721
C         1.82263041613330    3.31605402184649    4.78540964159200
C         1.25148153038271    2.10545124283793    4.38262353716042
H         0.61755424222028    1.56499898809349    5.06701035816861
C         1.44485760743903    1.62893296103683    3.10950978928791
H         0.99570676248353    0.70255147675101    2.78945396680595
C         2.22556374496517    2.33812170821603    2.18713423015695
C         2.77129075294919    3.56128377882845    2.57481998955939
H         3.36516065861607    4.14600456061087    1.89142438299923
C         2.55696345436229    4.04382372355126    3.85013257529674
H         2.99809593829093    4.98799326145523    4.13183159103104
O         2.37993209947738    1.76468843453664    0.98096990314592
C         3.12311973247872    2.43590374056742   -0.01391440508197
H         2.67057625251187    3.39815453104212   -0.26895211334042
H         3.09948459709175    1.78475219052761   -0.88542667593120
H         4.16070830319207    2.58833079717749    0.29753582239778
P         4.26967442457486    3.66220875987244    7.68614525332577
C         5.40816146131753    3.05988571610206    8.97287262000721
C         6.68963605713750    2.60433640339532    8.68296956848834
H         7.04619589639664    2.59438269451541    7.66346262314199
C         7.50984614763299    2.15731853534316    9.70504183186619
H         8.50340550537121    1.80421976811205    9.47454790146876
C         7.06224474610657    2.16018318196671   11.01532735908075
H         7.70644581383488    1.81149585852954   11.80749813533664
C         5.78203835959878    2.60410759645303   11.30838112167344
H         5.42870493186295    2.60145473914082   12.32880709981385
C         4.95642647884405    3.04478411708958   10.29185730561906
H         3.94943548156112    3.37683558324497   10.51023811682381
C         4.28941690549848    5.47523186368518    7.90219590728654
C         4.02603971313381    6.27474380351856    6.79021948202518
H         3.94946415394481    5.81430231741937    5.81560838061971
C         3.90410553280220    7.64484460289904    6.92275899670760
H         3.71268169151493    8.25455710392622    6.05251722321218
C         4.03021965233416    8.23424333466405    8.17016423252893
H         3.93249291538712    9.30353067573573    8.27567037079251
C         4.29855114120900    7.44844795608769    9.27836833193871
H         4.41519016425889    7.90572628254150   10.24913016807187
C         4.42446957942329    6.07639208682108    9.14994271632227
H         4.65175302846652    5.47857510658797   10.01949956637305
C         5.19658882058573    3.42369156865812    6.14035816677525
C         6.25014543501536    4.26104697009377    5.77740941096610
H         6.53106899940457    5.08399327439729    6.42013487535809
C         6.93252594039667    4.03229063605416    4.59696089178214
H         7.74803672480624    4.68143065286632    4.31612534320619
C         6.57586704440427    2.97169259102572    3.77734507698234
H         7.11347379624235    2.80065793166136    2.85713361353171
C         5.53921934901006    2.12894672698831    4.14249240679350
H         5.26513710452584    1.29753353135273    3.51080238360282
C         4.85200643877587    2.35372123444124    5.32181084941849
H         4.03923116947072    1.70268340562251    5.61760073847019

