14
CSD_code = AZORIS | q = -1 | S = 0 | Stoichiometry = C2H6Cl3OPtS(1-) | MND = 4
Pt        3.67899478527197    2.62906143188087    1.56095452697481
Cl        5.04210577746498    4.43565209982893    1.15713590511251
Cl        2.44978380907369    0.73159614622471    1.97588321784800
Cl        1.97325301191107    3.95835540743336    2.16595246888846
S         5.42198810425450    1.30535243637792    0.94624324256321
O         5.64900451294227    1.07192878683011   -0.47196340366408
C         5.46603182935309   -0.34758998607783    1.73312372244466
H         4.56235474057655   -0.86907660611264    1.43764396305403
H         5.47425321854460   -0.21393949505349    2.80814103345926
H         6.34873840654618   -0.86957365005440    1.38142639108367
C         7.01819140883106    1.88854409371700    1.62536216237285
H         7.80654572145747    1.23306859963340    1.27310688749094
H         6.94581807539166    1.88717893622581    2.70687736165404
H         7.16383659838140    2.90144179914585    1.26481252072199

