119
CSD_code = AZORIQ | q = 0 | S = 0 | Stoichiometry = C46H66N6Zr | MND = 6
Zr        9.75642499508987   14.35542479091936   14.98506157732542
N         7.79191412157333   13.46624472941903   13.69486666985080
N         7.95030872157272   14.44864766690777   16.35623540287189
N         8.77279719196675   16.08509770319043   13.65649848637049
N        10.72879468906694   14.33950742583622   12.97800688875383
N        10.78212845643157   12.65883640554150   15.57745088639483
N        10.83711730829171   15.82310842650678   15.95561124836796
C         6.69068859237173   13.68624355749674   14.42625847580303
C         5.42575677295941   13.79970707744329   13.83538685440454
H         4.57255548405991   14.03751791040168   14.45015069314921
C         5.28731169485863   13.62343283030114   12.47531191620298
H         4.32041593363889   13.71087032709015   12.00184651094872
C         6.42194498972697   13.32851189915475   11.73145484610930
H         6.36708740086489   13.15784234672534   10.66821537420354
C         7.63929425362469   13.27697836068521   12.38386198538945
H         8.53927266012255   13.07345529676651   11.82369692978593
C         6.83299881032710   13.81122136179259   15.89093547282108
C         5.84639853423873   13.26321623555511   16.65046922442904
H         5.89103374222294   13.28536487432622   17.72405210669754
H         5.02607669189968   12.72722328140044   16.20943932572933
C         7.81950253209180   14.91928171143909   17.68622569347864
C         6.92809720351446   15.97860402821556   17.98817243710183
C         6.89942498632981   16.50710031007746   19.27124668609930
H         6.23336815489207   17.32784443320806   19.49164931005734
C         7.68829526329064   15.99756092433684   20.28084948517456
H         7.65887850109951   16.42919329370511   21.27058758608596
C         8.47323078256780   14.89200944368265   20.02003413017254
H         9.02857930369272   14.44720840685374   20.83030525995450
C         8.53887056178377   14.33354075561895   18.75218043017930
C         5.92674301736781   16.53792799668247   16.99377656762554
H         6.12592222278940   16.10754964554766   16.00860896633719
C         5.98200341630938   18.06678404043821   16.88731818102590
H         6.99752951476663   18.42882795122988   16.75249507558478
H         5.57954303465643   18.53079569438018   17.78420712722698
H         5.37896559782394   18.40109763887650   16.04443697661992
C         9.28441827127278   13.03023119539885   18.55886460689876
H         9.63940974979300   12.99633218124518   17.51741091572685
C         4.50453960874421   16.12521241107581   17.39125367692578
H         4.26483410441311   16.48221155922162   18.38982665283068
H         4.40928027827642   15.04238659063776   17.37931851884544
H         3.78359389230977   16.54568008577986   16.69159311716185
C         8.31968711178594   11.85863598898053   18.79495266076334
H         7.90004802029077   11.91534012271721   19.79887839710326
H         8.84757263928745   10.91224356369225   18.69594790577623
H         7.50192239385148   11.87076956562005   18.08125060055312
C        10.47540919505991   12.85389430127323   19.50646687675180
H        11.09229317187718   12.02607770829087   19.16356177294096
H        10.14031256246479   12.61395818877700   20.51398859317410
H        11.08889233590949   13.74957633247691   19.55159432718667
C         8.94965494004172   15.83883346391675   12.34945967143973
C         8.02752985832735   16.30110342638886   11.40061650497200
H         8.15118137508840   16.05101585143029   10.35976227950087
C         6.94942289988502   17.05784809547530   11.80631508123203
H         6.22523363758908   17.41107001002642   11.08678049705224
C         6.81919352462891   17.36762953785325   13.15540882817309
H         6.01046390502598   17.98477454320173   13.51199178332376
C         7.75450111512609   16.85306587942535   14.03286692173091
H         7.71504044776392   17.07719597589188   15.08826870457823
C        10.17156357644323   15.09551970268001   11.99061419398369
C        10.66011509811772   15.25252043041197   10.72499498700391
H        11.58482600304567   14.79645645218451   10.42255252764478
H        10.19887923501715   15.90840415123220   10.01112953584811
C        11.99373261392608   13.80342005989294   12.61487927588340
C        13.16052109916855   14.58194289366605   12.75148681224330
C        14.46416150221100   12.84173027340652   11.70553359333630
H        15.41229061252338   12.48067727295474   11.33441714398849
C        14.37159134332996   14.09102425034978   12.28726384242556
H        15.26028010548979   14.69761260735556   12.36837491817024
C        13.33259547142152   12.05730837077517   11.60742504442464
H        13.40790497670884   11.07744059851104   11.16116100812785
C        12.10211443991674   12.51703286055434   12.05339539706218
C        13.10230924414893   15.93941945841877   13.41453365086270
H        12.20044046387216   15.94850234139016   14.04521558862602
C        14.32238475335798   16.19083559090315   14.30588844267241
H        15.20337369646269   16.42897314948859   13.71329820176182
H        14.54324527799710   15.31564892709924   14.91305557431977
H        14.13001849581962   17.03466162075952   14.96454124557294
C        13.00037717559577   17.06286085790661   12.37758883069182
H        12.11454598556012   16.93828781154289   11.75977025267651
H        13.87510275044947   17.05731032631761   11.72873895018691
H        12.94553680044098   18.02884231879704   12.87598173287868
C        10.87823537142710   11.64229153097319   11.90694407070339
H        10.15117176342706   12.00349756170576   12.64745638982906
C        10.30396732004226   11.78095690768480   10.49173234395425
H        11.02275119895869   11.40470449091151    9.76562829534451
H        10.10558328883211   12.82421180895662   10.25206730054006
H         9.38365131462274   11.20678054314384   10.38994645965041
C        11.15876290700402   10.16473743193061   12.19213193231105
H        11.75804264081706   10.05119391318003   13.09203609165523
H        11.68912872208960    9.69660549748221   11.36585481586412
H        10.22142258595609    9.62895030490107   12.33139081961328
C        10.36317286319048   11.27124475955010   15.68768205278223
H        10.49393215930948   10.89933162579632   16.72376089523256
H        11.00122332364997   10.63205434212570   15.04845504254396
C         8.90527564648754   11.03811606879294   15.29504085052831
H         8.75858215946464   11.22093649779261   14.23070704056495
H         8.24838560267158   11.69378036650476   15.86616186914810
H         8.62984545054018   10.00495964783199   15.50590474709949
C        12.23114429961872   12.73776766108810   15.49467992541430
H        12.60395177024620   12.14340918339251   14.63481711612776
H        12.50538579968585   13.78740697129456   15.32904499574698
C        13.00146958153464   12.22937729975890   16.73176067430954
H        12.82624377022650   11.16814168361929   16.89232400970958
H        12.70794361737115   12.77294754991149   17.62485955235380
H        14.06764488626669   12.37528063576624   16.57193884869200
C        11.29287366318087   15.51269912106040   17.30220290162671
H        10.60631731114291   15.91838958055759   18.06969786543668
H        11.29205137809676   14.42434085008869   17.38748392274502
C        12.71251346639329   16.00354552406531   17.64864371954188
H        12.76375572359157   17.08893383671095   17.68161175407230
H        13.42369956983640   15.63920394810981   16.91374389562824
H        12.99830717624881   15.62527671815006   18.62812998897762
C        10.75462106994304   17.25646443777473   15.73402065828883
H        11.75565000606317   17.72215874875220   15.79864007043601
H        10.39563614481093   17.43153510103089   14.71130933784990
C         9.83209917162197   18.00183012604468   16.72361968652598
H        10.35154055035705   18.22622165405606   17.65249377773641
H         8.97349319238728   17.37552459613234   16.96315924307588
H         9.49490263519304   18.94229378625094   16.29129260501851

