77
CSD_code = AZOTIS | q = 0 | S = 0 | Stoichiometry = C38H30Cl2O2P2RuS2 | MND = 6
Ru       -1.78523673306916    6.95480509360395   -8.60787028402177
Cl       -1.18547774472868    6.91756235255087  -10.88281722831701
Cl       -2.32412536517393    4.66683170735674   -8.70206855096736
S        -4.16951231086064    7.16128453687330   -9.36496001626355
P        -4.57747585081388    9.08954789362501   -9.08797950160594
C        -6.36669179090044    9.29585578502372   -9.32152674628400
C        -6.93593626805780    8.66969388410820  -10.42547861967956
H        -6.31254271757115    8.06321064879437  -11.06749179461601
C        -8.28716329202253    8.81602783145766  -10.67573350484057
H        -8.73254377260554    8.32819310750142  -11.52947359058528
C        -9.06849564962617    9.58696159499141   -9.82883577124413
H       -10.12456911836264    9.69946277619238  -10.02335940350800
C        -8.49940964862565   10.21156802929404   -8.73121360316173
H        -9.11048178966346   10.80957933949680   -8.07138734801885
C        -7.14675929899192   10.07156349103346   -8.47392671012275
H        -6.70079813742560   10.55496504602705   -7.61562758426946
C        -3.85085962634579   10.25945189484364  -10.27404179760935
C        -2.96402637361264    9.81607762432676  -11.24560088470997
H        -2.65155457080762    8.77777033286435  -11.27838553625365
C        -2.45747206918374   10.72264651336369  -12.16180161727620
H        -1.75832083075783   10.38200442751845  -12.90975891099354
C        -2.84401504848818   12.05113697929486  -12.11473043213898
H        -2.44529038172748   12.75551033080870  -12.82982693011769
C        -3.74865372056471   12.48410927428472  -11.15552515247787
H        -4.05615583847745   13.51930515850670  -11.12770300548521
C        -4.26024035681869   11.59060932012850  -10.23498003152429
H        -4.97530205057368   11.91314636335182   -9.48937348334641
C        -4.23287330000760    9.63869782433196   -7.38709619189706
C        -3.48313615720236   10.76441630560528   -7.07509923668554
H        -3.05764933413661   11.37114137863350   -7.86086607329682
C        -3.28465628457545   11.09700867800833   -5.74648882758583
H        -2.70748319522674   11.97484047011717   -5.49863880588074
C        -3.82548233911233   10.31361393208255   -4.74075793256787
H        -3.67072850319908   10.58321439678360   -3.70660731759305
C        -4.56914502228459    9.18654534360455   -5.05460228932694
H        -4.98508561356646    8.57283766163980   -4.27023268599584
C        -4.77451187340587    8.84707875530420   -6.37750333202447
H        -5.34704561607388    7.96777971290001   -6.64585683516621
S         0.61071838450610    6.25001918716836   -8.34691774568956
P         0.96270528320664    6.49725096546224   -6.40312968399354
C         0.56641842691274    8.17751926329795   -5.82522358286753
C         1.08070047238295    9.21714890077890   -6.59564869614402
H         1.65894696807155    8.98247663242660   -7.48077845174543
C         0.84313777151901   10.52685511479285   -6.22707228541224
H         1.23847488634014   11.33441945601396   -6.82404130585348
C         0.09507475944127   10.79744739947925   -5.09183981829085
H        -0.08290467128121   11.82132141176282   -4.79822402946729
C        -0.41981728505001    9.76175392189056   -4.33031467017515
H        -1.00111379040160    9.97616368707863   -3.44639155950588
C        -0.18898484846955    8.44611740491556   -4.69217896487681
H        -0.59379932171204    7.63681750966606   -4.10256930748488
C         0.23879826956252    5.27039368652022   -5.27402450061681
C         0.63912800535755    5.27599267030466   -3.93944081430814
H         1.34569992736833    6.01840728846477   -3.59170296931059
C         0.13065023984364    4.32629298553035   -3.07518833970860
H         0.43238733770510    4.32728551386877   -2.03793277173495
C        -0.76300253789988    3.37187072190977   -3.54033619156580
H        -1.15924363080360    2.63358953270775   -2.85884886874853
C        -1.14099453404880    3.35878342605789   -4.87200993886709
H        -1.83120623885840    2.61444622244417   -5.23788212807988
C        -0.63665197961099    4.30391040872722   -5.74977194420583
H        -0.94039359249884    4.29489219064128   -6.79128647662655
C         2.75176420257588    6.30205518951782   -6.15859727844591
C         3.49678246553981    7.16191157437095   -5.36228484564866
H         3.02200051284560    8.00672829780354   -4.88261492013249
C         4.85182470927642    6.93402426793403   -5.19637629203021
H         5.43563851718069    7.60334963693276   -4.58193382765330
C         5.45799468931002    5.85364470635432   -5.81604466348390
H         6.51567443027257    5.68202238469738   -5.68324287931641
C         4.71162480803451    4.99451298852425   -6.60782049264668
H         5.18586842911784    4.15419297486185   -7.09171904461464
C         3.35833932168271    5.21535280156719   -6.77991554657466
H         2.76187742971111    4.56345245986790   -7.40269570232347
C        -2.24002861469866    6.89225504497390   -6.82714149243934
O        -2.53668333130822    6.84943467566677   -5.71695590040521
C        -1.36544499458476    8.74517872938487   -8.65340958709589
O        -1.07805328162332    9.85765296906970   -8.69326491450766

