80
CSD_code = AZUDAA | q = 0 | S = 0 | Stoichiometry = C38H31CoO8P2 | MND = 5
Co        6.72338373094381    2.48807435092007    4.85665188794521
P         5.50589583231180    2.47446820794182    6.79229959140014
P         4.97340255345204    2.66479336477367    3.44323939091880
H         6.83974015410483    3.93045659844813    4.92634121926705
C         6.80447745451454    0.74319476211741    4.79697961229372
C         8.45008245972691    2.61194263469924    4.69245247171582
O         6.93621687732989   -0.39717060820353    4.84162908646097
O         9.59198115077403    2.69701304414374    4.60566775019177
O         4.07928471698769    3.16471378629175    7.08054051813718
O         5.16232444934469    1.05182422209705    7.46988867351665
O         6.29548336692658    3.09275085965877    8.05150181552202
O         4.46329285532151    1.31209937897665    2.72901705161848
O         3.57586542059271    3.11623899714060    4.10484459497881
O         5.01762691380802    3.53884975987842    2.07217815404253
C         3.68476116903725    4.41541358934923    6.68595835795915
C         2.33036786882929    4.61192285873519    6.44071211789529
H         1.65151863923950    3.78010818341683    6.54715904363412
C         1.87614399303209    5.85950470184752    6.05695035886161
H         0.82507024083842    6.00536904707124    5.85761757555091
C         2.76350234063880    6.91483588893761    5.92021969434084
H         2.40651613552345    7.88736884292501    5.61641172772562
C         4.10908610934636    6.71761871168015    6.17717092736729
H         4.80594579151130    7.53695790228830    6.07987753532282
C         4.57456157122377    5.47091985285435    6.56003605180054
H         5.62234483357806    5.30554812070507    6.76107744720772
C         4.59164368162633   -0.01948617974295    6.83198641695006
C         4.98944197511143   -1.29184346792932    7.22532426366405
H         5.73631465162154   -1.39287017550677    7.99777718655321
C         4.42976529668357   -2.40118437525613    6.62004289829348
H         4.74529736382598   -3.38867379762361    6.92118305564840
C         3.47335341221793   -2.24908456719907    5.62981085558139
H         3.03967009139054   -3.11813099004240    5.15832142349639
C         3.07312342847465   -0.97994702023038    5.25088432823904
H         2.31415442038311   -0.85835128587083    4.49139358475447
C         3.63134491145633    0.13815153729193    5.84518532778481
H         3.32842552474200    1.13570869217021    5.56561764370829
C         7.66453281724238    3.05585395559428    8.16170867527348
C         8.31200032826805    4.18677066521351    8.64240966826951
H         7.72817684965743    5.05655768128410    8.90223621782424
C         9.68782983517044    4.18095740106638    8.78021369750903
H        10.18998238503335    5.06154221576479    9.15188778569306
C        10.42060945960549    3.05736418066582    8.43476090179806
H        11.49529677096631    3.06026020199635    8.53497902639326
C         9.77139288568279    1.93051602302090    7.96268650209127
H        10.33624329950239    1.05015121550764    7.69514180492631
C         8.39370926730406    1.92491661533712    7.82590350218141
H         7.87220865073284    1.04292399196953    7.48331894608441
C         5.32614868415234    0.37595655672328    2.21212693983275
C         6.59483786467914    0.70785251662633    1.76090530330805
H         6.92233071683207    1.73746252915575    1.79971678608661
C         7.42623648840838   -0.28153199500259    1.26413540730305
H         8.41642034143438   -0.01936453400767    0.92299253622001
C         6.99514282063129   -1.59510003663093    1.21071586646153
H         7.64881487624484   -2.36438721265168    0.82882956714489
C         5.72224293405107   -1.91960548028841    1.65043474412762
H         5.37993726604548   -2.94270611100725    1.61184856730330
C         4.88576141702945   -0.94018327325222    2.15184775569573
H         3.89769080163991   -1.18126543586495    2.50968179735707
C         2.42119386055387    3.31969771104509    3.35870284129542
C         1.56811109197370    2.25793631319316    3.10249015954536
H         1.83845533295843    1.27094566307857    3.44192056961528
C         0.38766075437447    2.47929512258371    2.41527369418659
H        -0.27666648596320    1.65170720678670    2.21568904554529
C         0.06042665001500    3.75301391918786    1.98290147275603
H        -0.86036238189778    3.92199989390537    1.44522077668945
C         0.91868893626451    4.80861521770493    2.23959572043476
H         0.67106950312413    5.80399081927569    1.90267141707334
C         2.10161058457489    4.59762120998521    2.92576141950440
H         2.77528173030838    5.41493369359241    3.13192820612341
C         5.51933414546761    4.80892109493120    1.93687985694452
C         6.03762391607490    5.15862680172513    0.69583934291496
H         6.05488946268602    4.42086280577862   -0.09156022668426
C         6.51590016136269    6.43926154042905    0.49018324394133
H         6.91802527028677    6.70942693444621   -0.47466858496456
C         6.48476587083348    7.36953780391055    1.51613440378046
H         6.86287261283846    8.36742049553869    1.35343272276621
C         5.96849468586451    7.01469753172092    2.74993365380806
H         5.94046296427139    7.73450201536259    3.55390656484213
C         5.48167276898273    5.73712906616304    2.96545671113856
H         5.07533041824729    5.45351003968736    3.92487534951942

