57
CSD_code = AZULEO | q = 1 | S = 0 | Stoichiometry = C21H29ClN3ORuS(1+) | MND = 9
Ru        2.93435168678123    6.07801627685008    2.63493511099542
Cl        4.60981006322308    4.45422684747018    2.60303886774428
S         4.68437864793014    7.59510514187371    2.18097660485709
O        -0.84967997920298    1.83057525560423    5.90946984440914
N         3.47637212241642    6.38145881255104    4.55189709102232
N         4.58045673148844    7.17812460681954    4.76158744616365
H         4.93209800723464    7.22758742849988    5.71741127489282
N         6.41356761040041    8.38310830097948    4.02468098377735
H         6.69912509417675    8.49976368085006    4.98677561862915
C        -1.86455496855546    1.76709680275368    6.89072354099498
H        -2.56872291968515    2.59799901704034    6.79143767428471
H        -1.44270793638441    1.75920857406353    7.89911115372250
H        -2.38614165981943    0.82927967481860    6.71061941695084
C        -0.00607169516807    2.87309979913287    5.89350765818380
C         1.01493212185222    2.81976473000543    4.93133765312311
H         1.07901942478905    1.93925491582066    4.31249271799168
C         1.92096534820898    3.84268793637722    4.80452087709655
H         2.73740188776739    3.75708269117105    4.09671914227200
C         1.86013431176468    4.95386713863593    5.66238939689606
C         0.86864159670923    4.98182883497616    6.64910538938236
H         0.81976449266023    5.81884577483260    7.32981482623940
C        -0.06482024170306    3.97342517551903    6.75399890695827
H        -0.82424120766056    4.03707815821065    7.51633406389595
C         2.86931315292708    5.97934263541283    5.62246163858254
H         3.16708617235271    6.40458307936988    6.58202339413630
C         5.28872602789552    7.72925016610493    3.75054085427508
C         7.19371832658950    9.08065666182631    3.01919336705399
H         7.10201277742277    8.52757946738283    2.08225143139741
H         8.23609644314857    9.06670059642682    3.33963614211926
C         6.71196146730940   10.51422024006628    2.82972887304696
H         5.67626859879794   10.52385262399603    2.50123486161758
H         7.31884160455245   11.00325157208923    2.07468587854646
H         6.79544583971205   11.07660986699362    3.75624185178706
C         0.93102743745105    3.15358880015425    1.32316888202448
H         1.88033016258396    2.62956525099967    1.43429901910377
H         0.57056420630403    2.96519500856414    0.31224003755577
H         0.21772686584182    2.74772022054383    2.03498290243015
C         1.12419591072315    4.61940877370715    1.52908517813892
C         1.96652357832661    5.35566540729777    0.64388017838644
H         2.45380027640413    4.82966589880763   -0.17096527776075
C         2.00164204576870    6.75359687809488    0.68095433008886
H         2.50551492579254    7.30058963327290   -0.11121075653360
C         1.34913152347653    7.47361783301532    1.71656343611641
C         1.32859483538680    8.98336139069628    1.70736418503675
H         2.11337655350704    9.32922634638303    1.02544999024003
C        -0.02499677397215    9.46318589527338    1.17300127671624
H        -0.20387812949688    9.07232052549530    0.17426476115793
H        -0.03979720372324   10.54842767800685    1.12558246477977
H        -0.83319052924701    9.13424750290140    1.82218459018241
C         1.60871941348841    9.57055381223155    3.09189283767680
H         0.77596927002748    9.40237127181335    3.76986171946362
H         1.76395200447372   10.64280927998456    3.01155873520814
H         2.50704640811880    9.12137081514373    3.51877200840716
C         0.66804369810922    6.72164258275147    2.69096557246586
H         0.12238519121056    7.23212630314938    3.47592146003604
C         0.48178414023607    5.32302812929513    2.54422126166405
H        -0.19411476070704    4.80898227790630    3.21547765436441

