73
CSD_code = AZUQER | q = 0 | S = 0 | Stoichiometry = C36H24F6O6W | MND = 6
W         1.74340675116033    1.44926043443639    5.46337923053188
F         5.73427631403547    4.71129238543881    1.53573272918239
F         4.07459482446307   -4.86432728281172    6.23376182810416
F        -4.59682323361499    4.10903071171627    5.77209117897722
F        -1.14100329009188   -3.28731449711004    1.38597651019963
F         1.48332449392523    8.22541155151546    5.53925110596289
F         2.86824995496989   -0.66279038787015   11.48165405568787
O         2.35882721798669    1.03630450416547    3.73184625390288
O         3.18572703437066    0.52489449813091    6.26858791779192
O         0.49638504287382    2.55764606827283    4.57974176467070
O         0.75644934480053   -0.15882096583788    5.43308474328892
O         2.87349206526412    2.94621873863451    5.70998820346208
O         0.82078017459784    1.79752823361675    7.06841619289376
C         3.18044030009969    1.96873212691149    3.22119429362728
C         4.55528825166061    1.91296711550508    3.49555273590034
H         4.92249299845128    1.13613271740745    4.15779413901570
C         5.41358743780308    2.83526428035115    2.92661175901558
H         6.47425077579762    2.80761890247926    3.12128398977366
C         4.89420648646624    3.81103887372755    2.09098691641411
C         3.53998431848341    3.90017500773936    1.82020456424029
H         3.17459584825976    4.68191582693589    1.17349294762811
C         2.68004555569839    2.97572017835103    2.38586445380624
H         1.61568835060890    3.00878192691497    2.19088890490668
C         3.42460078438085   -0.79855811896283    6.26456369865608
C         3.80208470323821   -1.46614165621557    7.43557470613278
H         3.91987947608288   -0.89743185068882    8.34407165667767
C         4.01783999130723   -2.83098837856903    7.42756827262703
H         4.29787875677643   -3.35390697214119    8.32819521585999
C         3.87477771316880   -3.52863070854354    6.24157526072902
C         3.54066832590966   -2.89152962328085    5.05950028137549
H         3.45471537237176   -3.46214223487670    4.14827764667991
C         3.32138345762435   -1.52603189537227    5.06997730297561
H         3.07562156327569   -1.00207924175673    4.15004853943605
C        -0.75722768687932    2.95202986135360    4.86642528745521
C        -1.61841191829119    2.07773954995781    5.54322071257053
H        -1.24798350941978    1.09220421509759    5.82132791779647
C        -2.90857194065998    2.46710878048751    5.84980501687452
H        -3.58325145156135    1.80967928283276    6.37500474139038
C        -3.33784792429760    3.72747147957602    5.46953403748043
C        -2.51429744569484    4.60294200766663    4.78500545144297
H        -2.88451386328647    5.57452771123652    4.49890058295119
C        -1.22453831838343    4.21213633104909    4.47845879945200
H        -0.55827907012147    4.87573681265567    3.94863349621063
C         0.28946272508550   -0.94151030835599    4.44382699399261
C        -0.12686725326112   -0.35749109272283    3.23986656524582
H        -0.06209081951579    0.72456608845191    3.13547516300112
C        -0.60578428720116   -1.14601677174818    2.21079548624953
H        -0.92551806270822   -0.71465696650481    1.27542109124621
C        -0.67633745057986   -2.51696512614392    2.39232877191282
C        -0.28886263440318   -3.11700868865483    3.57685119751465
H        -0.36389645668187   -4.18727789998771    3.68536711571304
C         0.18916669915213   -2.32733044645443    4.60544891350104
H         0.50229399056750   -2.76808684662067    5.53960592391943
C         2.54783328506465    4.25055584658823    5.67786552139636
C         3.34658021731136    5.17602022776159    4.99602221087648
H         4.24428333917852    4.82976284016557    4.50918632432533
C         2.98930846295077    6.50989253366892    4.94625626677944
H         3.59391295221920    7.22700644820159    4.41408554256018
C         1.83992449899783    6.92399513736336    5.59529792915561
C         1.04980813380428    6.04020419485981    6.30908881562941
H         0.16944413396431    6.39891222215266    6.81860552795346
C         1.40706702648029    4.70488552461649    6.35530680332292
H         0.81235979212950    3.99623358216479    6.92579244896265
C         1.34818709412670    1.16749012732270    8.13139596558103
C         2.40012550788049    1.76299736380573    8.84386609265406
H         2.79789145550915    2.70853410969714    8.49058513956594
C         2.90942897153422    1.14709111820017    9.97180819962246
H         3.71544914915078    1.58966891294550   10.53582742807018
C         2.36896785894821   -0.06194022347873   10.37978391692676
C         1.34413108757267   -0.67941715122694    9.68427991021915
H         0.95908811435746   -1.62603526602139   10.02860481828408
C         0.83100162095434   -0.06278838410755    8.55706817263572
H         0.02424681381089   -0.51170740606475    7.99183069942104

