92
CSD_code = AZUVAS | q = 0 | S = 0 | Stoichiometry = C44H44NNiOP | MND = 4
Ni        6.82031449326617    4.65848766889954    2.93490704206742
P         7.36607550355063    6.63012149924817    3.62583487937813
O         8.68872622309269    4.64139233600817    2.44096278024772
N         6.70894152603775    2.72277354990853    2.52296761405764
C         9.44518167461769    3.71908060540764    2.91865704910333
C        10.76853446120182    4.03743645464925    3.30889536433693
H        11.07667079967419    5.06896926319282    3.21124029403981
C        11.61163212213927    3.09255256412924    3.82853140388645
H        12.60662901174844    3.37420181926242    4.14376665056807
C        11.18965219478611    1.77097829020826    3.96548520371987
H        11.84873193625814    1.03155233420738    4.39498987054498
C         9.93048460724311    1.41395891376182    3.54493199854625
H         9.61367371918083    0.38769867537321    3.66457493302117
C         9.03631724949609    2.35197753003708    3.01985145923071
C         7.74686289482883    1.95376432357989    2.48638443361138
C         7.70703412232296    0.61162940857775    1.80298482836096
H         7.94255290275671   -0.18330023970542    2.50762809763687
H         8.46359752150452    0.58395704064070    1.01946694188506
H         6.73056039748009    0.41737788763271    1.36598066294553
C         5.50805962020989    2.33929045289003    1.87291233389743
C         4.47694059055380    1.74675774037552    2.61336455760874
C         3.29864722080649    1.41496927735612    1.96112089413535
H         2.49806581243796    0.94661935369971    2.51089727785214
C         3.13160489948976    1.67910415821637    0.61609985869909
H         2.20423078572323    1.42273029495195    0.12530178260809
C         4.15127889667377    2.27334014377836   -0.10384702174101
H         4.00352484219759    2.47941033618574   -1.15201345492731
C         5.35646205841609    2.59698612222245    0.49962315373868
C         6.47091610111803    3.26328340890201   -0.27997200862602
H         7.42980747566213    2.96220688286883    0.15429651516528
C         6.35546816527746    4.78443704846711   -0.13318500039987
H         7.14853906234138    5.28001833075395   -0.68924566501931
H         6.44755300431844    5.07351713922924    0.93298646918636
H         5.39456694626994    5.13388816988855   -0.50709093473272
C         6.49609314064089    2.86957148388644   -1.75663930477221
H         6.44025525923205    1.78876684532878   -1.86921864542425
H         7.42262674824450    3.21480554592001   -2.21101876730766
H         5.67077688113725    3.32130591070645   -2.30173496361785
C         4.65159329526775    1.46463334901504    4.08791409359898
H         5.42967461492628    2.13794478927330    4.46552609707108
C         3.37193003590755    1.72671703762839    4.88281705769252
H         2.93398814976780    2.67877560883076    4.59814676178423
H         3.59986452409208    1.75701561944802    5.94611333746149
H         2.64013186610304    0.93860443995959    4.72085359911646
C         5.10382635260409    0.01807286508358    4.31043178445003
H         4.38430006605644   -0.67297672281402    3.87503921632042
H         5.17989520446951   -0.18856464880297    5.37593312812768
H         6.07299057382802   -0.16445938664493    3.85675495104913
C         5.06440403631281    4.84765262943272    3.57781273167293
C         4.82619920461199    4.94086953264060    4.95116052673737
H         5.63690518864570    4.82672647558376    5.66311883455454
C         3.55874417441224    5.19541046007669    5.44743285193011
H         3.40770714399136    5.26922200219012    6.51557754031818
C         2.49363023976476    5.36691815886304    4.58189414536909
H         1.50611343190891    5.57805391029771    4.96689414438488
C         2.70613310247685    5.26348618465105    3.21939811309120
H         1.88049916678778    5.38556958427376    2.53170496586602
C         3.97533056149911    5.01157806503888    2.72248210545624
H         4.09670543697776    4.93909408200309    1.64940162693237
C         8.10793097014253    7.87893803756172    2.52255882871329
C         8.77923332165073    7.46914953559890    1.37578096227354
H         8.84621327341596    6.41483659016669    1.15665482810941
C         9.36806147050595    8.40202958929635    0.54129732820016
H         9.89010346819777    8.07602037150676   -0.34674810276326
C         9.28954833830244    9.75175917404229    0.84115544370413
H         9.74841693145701   10.48093536622807    0.18941573265633
C         8.61947096661483   10.16608070077221    1.98069881246804
H         8.55630002021139   11.21824437682408    2.21886424745406
C         8.02927711101928    9.23747087285533    2.81893794771299
H         7.50356322392684    9.56993169938023    3.70331021485240
C         8.66908450764581    6.34696096129018    4.86728561473922
C         9.66502389489346    7.27190748952545    5.15505440983527
H         9.68321634511528    8.22422152603659    4.64371907517587
C        10.64016952051947    6.96521337875471    6.08797211151358
H        11.41724997161359    7.68376703389042    6.30612156163486
C        10.62969945941192    5.74005807335933    6.73472145565767
H        11.39913875464844    5.50380083816418    7.45495473355174
C         9.64030829766019    4.81344640459942    6.44903210685204
H         9.63820421161022    3.85214891086954    6.94166219146140
C         8.66612206319547    5.11669764943458    5.51739140586854
H         7.90021863155640    4.38628014328104    5.26389170328009
C         6.15263578029987    7.64883538759348    4.53333943119726
C         6.22844613307880    7.90744782021224    5.89476440704293
H         7.07378488302314    7.54986664397820    6.46654983158341
C         5.22047879050997    8.62133501375111    6.52052188873638
H         5.28379549393243    8.82070192332987    7.58068457233635
C         4.13212755023700    9.07307091781446    5.79503778889940
H         3.34431139802116    9.62256489625117    6.28896746105526
C         4.05054133966890    8.81524555081399    4.43510509269010
H         3.19924829598778    9.16245637432651    3.86844893165794
C         5.05393196090667    8.10423480050206    3.80929001122689
H         4.99608637871712    7.88307934117852    2.75137177467690

