105
CSD_code = AZUVUM | q = 0 | S = 0 | Stoichiometry = C48H52N2NiO2 | MND = 4
Ni        0.27936551789524    2.09217281399840    5.16484342055927
O         1.75773576778102    3.14056383638677    4.74280760818675
N         0.03702379815213    3.14777809027017    6.79026173280103
C         1.92589067973289    4.38217570780412    4.99879725149562
C         2.81979319311861    5.14948708853582    4.15440726609666
C         3.53120811938170    4.51876401295902    3.12504372072437
H         3.41508573424518    3.45507451954417    3.00860237747091
C         4.35382780073697    5.23613365469262    2.29518999190884
H         4.89543815948656    4.73692507101835    1.50542120420298
C         4.49266804359849    6.61564417442352    2.46976018316098
H         5.13751746907745    7.17727772581489    1.80884799520126
C         3.82051656205048    7.25237334817276    3.48069866449083
H         3.93465751301098    8.31713773907410    3.62935132462178
C         2.97742432988936    6.53895262575242    4.35040809987153
C         2.28899634795489    7.17201987709786    5.41528356548112
H         2.38998729308245    8.23985582584976    5.54078780769169
C         1.53088586691218    6.44056289272546    6.27085638067134
H         1.01974690802403    6.94085240650751    7.07948914565276
C         1.33610994246898    5.04649034018376    6.10170793024763
C         0.59204133600409    4.29101328923285    7.06725861748198
C         0.53200617893919    4.85923697118536    8.46366269398365
H         0.36215120015383    4.07082776285567    9.19341148065768
H        -0.28349697526168    5.57610244578193    8.54830245322843
H         1.46329570896949    5.36889765184090    8.69859539898353
C        -0.67405100417984    2.48335363418943    7.82004935802269
C        -1.92357574314927    2.97452178285534    8.23049959424567
C        -2.60943769213660    4.07935720008486    7.45728309032152
H        -1.85512425030006    4.66014304859945    6.91919633387141
C        -3.39741318726350    5.03947457519473    8.34903988734055
H        -2.79595189548128    5.36951259693831    9.19408541337960
H        -4.30095441034803    4.57140162615310    8.73151770470322
H        -3.69506913185147    5.91452443623828    7.77478540991441
C        -3.52217148830050    3.44186554678267    6.40375860606048
H        -2.93788796600627    2.79108636651301    5.75624938613294
H        -3.99200474694339    4.21239580321607    5.79566733297244
H        -4.30248394873279    2.85047965247867    6.87892495758741
C        -2.54814504198534    2.36572118191354    9.30970485131848
H        -3.50660658844916    2.72811899060840    9.64658598115781
C        -1.96050786228001    1.29807616128090    9.96321203782240
H        -2.44903904683821    0.85239241567815   10.81690194502811
C        -0.76427111727815    0.77932515969573    9.50495613387785
H        -0.33727227447516   -0.07788237149931   10.00016519744945
C        -0.10957716861322    1.34943050785595    8.42331848536703
C         1.19126445272292    0.78127472373187    7.90011056050374
H         1.27860932117828    1.04954890221590    6.82149321246359
C         1.24090743655273   -0.74375297081138    7.98579363763129
H         0.32920004191862   -1.17828236082334    7.58095755653539
H         1.36384718124342   -1.07965179584961    9.01307024138605
H         2.08513411686822   -1.11644165510684    7.40926347100425
C         2.38123456057207    1.40337267304678    8.63591344881734
H         3.31299112734070    0.97394567522423    8.27424009258340
H         2.30366999050998    1.21405247934301    9.70547201203020
H         2.41766607414426    2.47849750914582    8.47552413364302
O        -1.19900490626413    1.04378263068658    5.58687841732215
C        -1.36715856321567   -0.19782945261272    5.33088922706610
C        -2.26105967600291   -0.96514220408698    6.17527955168606
C        -2.97247411883528   -0.33442067614645    7.20464429139196
H        -2.85635177231520    0.72926863561641    7.32108688690152
C        -3.79509282813926   -1.05179157632914    8.03449796940475
H        -4.33670274211561   -0.55258397442370    8.82426767951164
C        -3.93393173731208   -2.43130212177834    7.85992712706749
H        -4.57878132365319   -2.99293661916321    8.52083836198640
C        -3.26178036275931   -3.06802995134184    6.84898763844285
H        -3.37592122415602   -4.13279415345243    6.70033361005086
C        -2.41868982978567   -2.35460774905599    5.97927782187127
C        -1.73026250889074   -2.98767364533800    4.91440105949500
H        -1.83125265896482   -4.05550961127978    4.78889655243258
C        -0.97215375123112   -2.25621536328363    4.05882785007592
H        -0.46101469684618   -2.75650442679361    3.25019485159651
C        -0.77737901695578   -0.86214274149076    4.22797704826261
C        -0.03331296348962   -0.10666388825976    3.26242579043253
N         0.52170537225507    1.03657078601633    3.53942337972997
C         1.23277674849579    1.70099699812286    2.50963429520247
C         2.48230029162188    1.20982958398664    2.09917968268694
C         3.16816363657050    0.10499225024731    2.87239223535863
H         2.41385078772044   -0.47579397494046    3.41047936956314
C         3.95613654133385   -0.85512424177884    1.98063202484536
H         3.35467264532905   -1.18516282860754    1.13558828294896
H         4.85967603347334   -0.38705051810349    1.59815113104940
H         4.25379521401517   -1.73017397485461    2.55488544377550
C         4.08089974761063    0.74248151766307    3.92591621590363
H         3.49661768993286    1.39326139475210    4.57342623367138
H         4.55073284767819   -0.02804949781067    4.53400680775569
H         4.86121242437771    1.33386635203099    3.45074899137839
C         3.10686659278396    1.81863195933354    1.01997375236564
H         4.06532777939888    1.45623550024329    0.68309020874954
C         2.51922670940981    2.88627687945236    0.36646878035829
H         3.00775500990085    3.33196107043883   -0.48722255265763
C         1.32299070891109    3.40502642293182    0.82472812478047
H         0.89598937208952    4.26223329070341    0.32952005717942
C         0.66830055835919    2.83492031696510    1.90636775885680
C        -0.63253943657375    3.40307590111251    2.42957973946531
H        -0.71988170170600    3.13480106266766    3.50819699192871
C        -0.68218168327862    4.92810369740658    2.34389743445315
H         0.22952625105416    5.36263230942047    2.74873310982559
H        -0.80512164848403    5.26400291672527    1.31662104072825
H        -1.52640775035613    5.30079289972080    2.92042808214699
C        -1.82251136426539    2.78097877961620    1.69377923520628
H        -2.75426709914988    3.21040698094443    2.05545318154527
H        -1.74494791911659    2.97029767263595    0.62422041585304
H        -1.85894362435880    1.70585417074587    1.85416987462034
C         0.02672006264410   -0.67488605426680    1.86602102433583
H         0.19657149467553    0.11352407875353    1.13627239696985
H         0.84222486518059   -1.39174943136726    1.78137924131659
H        -0.90456871044312   -1.18454874897771    1.63108988506116

