107
CSD_code = AZUVIA | q = 0 | S = 0 | Stoichiometry = C50H52N2NiO2 | MND = 4
Ni        5.21004404585834    5.78850069071094    8.48140668455945
O         4.25958997124210    7.36770842467433    8.48888376683997
N         4.00570597491084    5.12304301608142    7.09266106511969
C         3.08777586109496    7.66392480427046    8.07092446348618
C         2.53381658674590    8.90942380717771    8.46900198220574
H         3.13656823276324    9.52106003747123    9.12344851887238
C         1.29601991001895    9.30690939428531    8.05029235899025
H         0.89664549161706   10.25704599588930    8.37553143920571
C         0.54122542406011    8.49506702917585    7.19670145488857
H        -0.43028986135339    8.82202504125635    6.85888168809600
C         1.04353148658810    7.28869549886057    6.78737432850294
H         0.46132366184026    6.67534744442948    6.11583581506077
C         2.30468200438074    6.83008014676865    7.21377680379056
C         2.84377533873411    5.58888738110821    6.73716799239793
C         2.01132721994782    4.81387443765181    5.77415928701021
C         0.84155409774198    4.21307904881449    6.23017908453847
H         0.55436988164567    4.32266266024213    7.26593893329989
C         0.05027948554803    3.47742898246798    5.36662447500965
H        -0.85461886372769    3.01491239809166    5.73278612142188
C         0.41645228211084    3.33486147981835    4.03893503418116
H        -0.20058958603284    2.75904234621815    3.36531944263854
C         1.57327641022232    3.93897619926070    3.57833623430065
H         1.86007419976525    3.83913481747113    2.54195913806740
C         2.36703863248613    4.67647437073168    4.43879849194720
H         3.25525749239679    5.15841412777782    4.06392851055728
C         4.52746481192799    3.97877236135837    6.43347095002504
C         4.18134141789336    2.68632512992408    6.84349441114851
C         3.21713658870799    2.44072407093921    7.98111656178929
H         2.73087377430374    3.38581144109805    8.24086138466963
C         3.97778349269367    1.95535676626820    9.21816856701081
H         4.72148119592245    2.69245643260563    9.50669905632735
H         4.48646986532352    1.01615607827607    9.01313242875474
H         3.28900434705651    1.80324499021520   10.04702806407703
C         2.13363298141239    1.43059193106598    7.59578672334455
H         1.35357029807830    1.41556341729485    8.35429781491262
H         2.54524692654413    0.42738108720623    7.51985608958199
H         1.68377475171318    1.69093559195773    6.64047911810864
C         4.78746974026870    1.60904162618629    6.21184564995863
H         4.54336276883913    0.60461599192710    6.52248773991229
C         5.71018803264864    1.79971651594539    5.20360674431088
H         6.18059322172867    0.94938218213654    4.73136468957155
C         6.04021349482022    3.08134091937098    4.80288004760000
H         6.76842725374947    3.21446145601541    4.01879686144792
C         5.45556081677378    4.18672876343084    5.39892073362076
C         5.82862005625257    5.59321960531743    4.97172162547768
H         4.96222263343083    6.24687490327785    5.12965239109721
C         6.21772386380068    5.68696384984734    3.49494464507931
H         5.49579651788710    5.16995304916004    2.86551882386092
H         7.20110000574743    5.25768612339423    3.31926732993033
H         6.25156068695207    6.73164919412601    3.19143524705362
C         6.96690793434082    6.12642100190410    5.84907865553467
H         6.62047948423568    6.24007566028905    6.89135745033870
H         7.29143465509335    7.10238382691955    5.49345211564664
H         7.81251666788631    5.44155463126037    5.83690761435444
O         6.16049896504692    4.20929311016354    8.47392882193773
C         7.33231241424213    3.91307624998918    8.89188956067109
C         7.88627140978398    2.66757701959567    8.49381196516616
H         7.28351968501445    2.05594194838901    7.83936443238127
C         9.12406747356146    2.27009067934332    8.91252235679658
H         9.52344180953114    1.31995402220983    8.58728339202365
C         9.87886094394755    3.08193184563868    9.76611539391736
H        10.85037606585251    2.75497352120632   10.10393534764339
C         9.37655554825226    4.28830381955776   10.17544186647143
H         9.95876313251105    4.90165121606642   10.84698111277334
C         8.11540581878267    4.74692029921628    9.74903803191646
C         7.57631228086951    5.98811290898300   10.22564711143444
N         6.41438183307071    6.45395736528395    9.87015362039146
C         5.89262313695691    7.59822823703977   10.52934334394341
C         6.23874791354142    8.89067519649904   10.11932023599816
C         7.20295361130682    9.13627538530645    8.98169862173480
H         7.68921548014564    8.19118746004381    8.72195387004413
C         6.44230751995043    9.62164368654332    7.74464646148098
H         5.69860890287173    8.88454500210475    7.45611571604800
H         5.93362237098297   10.56084505000305    7.94968253762950
H         7.13108714035436    9.77375462274377    6.91578724751161
C         8.28645814835805   10.14640622267175    9.36702935288177
H         9.06652138311440   10.16143353378982    8.60851877985235
H         7.87484551916172   11.14961761718784    9.44295923801222
H         8.73631531497718    9.88606212212192   10.32233736193071
C         5.63262010961125    9.96795908324799   10.75096873971763
H         5.87672878262637   10.97238472891315   10.44032771327352
C         4.70990081390346    9.77728478547157   11.75920687862490
H         4.23949654380629   10.62761938120996   12.23144930195384
C         4.37987400140967    8.49566062773784   12.15993324254548
H         3.65165939737138    8.36254050954960   12.94401570624773
C         4.96452616628875    7.39027233586732   11.56389280236328
C         4.59146590068286    5.98378159030235   11.99109140080435
H         5.45786326694968    5.33012607975281   11.83316128726871
C         4.20236061325812    5.89003740495298   13.46786792512657
H         4.92428772566430    6.40704765400931   14.09729417842300
H         3.21898481487060    6.31931607477862   13.64354432729662
H         4.16852270923298    4.84535213842167   13.77137739745654
C         3.45317857499719    5.45058007950177   11.11373377760454
H         3.79960764113462    5.33692742204918   10.07145494723547
H         3.12865276419747    4.47461645989040   11.46935878907493
H         2.60756909635367    6.13544550611855   11.12590554562134
C         8.40875961937474    6.76312507788250   11.18865705505712
C         9.57853350962348    7.36391989756616   10.73263849642175
H         9.86571862197545    7.25433637189430    9.69687891398878
C        10.36980810028942    8.09956895089754   11.59619398470155
H        11.27470699075786    8.56208500366175   11.23003303437290
C        10.00363449210835    8.24213615879119   12.92388322216418
H        10.62067630430104    8.81795456237507   13.59749953068836
C         8.84680959649778    7.63802203367480   13.38448083918694
H         8.56001102040159    7.73786313891871   14.42085775537239
C         8.05304736656251    6.90052490272417   12.52401767978565
H         7.16482796692307    6.41858571871526   12.89888709749544

