98
CSD_code = AZUVEW | q = 0 | S = 0 | Stoichiometry = C48H46NNiOP | MND = 4
Ni        6.54695501003681    2.49254085061660    6.99645012726096
P         7.64082569472466    2.28784329746396    5.12904908548420
O         4.98066217280958    2.18358642402395    5.97244343344273
N         5.45623532545934    2.47402770425646    8.66537357912608
C         4.15484259115068    2.43475511542378    8.71100748045979
C         3.30731550163628    2.70475793535322    7.57892285740775
C         3.79619688932999    2.55947048656837    6.25327686684185
C         2.88421092524429    2.78988609454030    5.14894374010011
C         3.34053990066612    2.67420307864139    3.82772677109105
H         4.37327274426462    2.40611566972559    3.65962955144962
C         2.49452205931035    2.89588256802417    2.77136803991292
H         2.85616331765530    2.80168659140208    1.75746392601592
C         1.16128045123985    3.24505240286657    3.00526966722764
H         0.49958284054882    3.41725742333460    2.16795997624720
C         0.69542445367801    3.37205203196504    4.28838973605280
H        -0.33402814200608    3.64645964832339    4.47339818780415
C         1.54190951009685    3.14977506845926    5.38845626841374
C         1.09775769037184    3.28222667596623    6.72724373846954
H         0.07250779335447    3.56992420852897    6.90972422664757
C         1.94616564144719    3.05984549563656    7.76425450872966
H         1.57178207979073    3.19230963680504    8.76769146985074
C         3.44734229847508    2.05312553526694    9.99079035917006
H         4.15386112560772    1.73729725857555   10.75347388668109
H         2.74812250447721    1.24206989007681    9.79247260395231
H         2.87736534563086    2.89263997657038   10.38389655836292
C         6.20808116533392    2.13794989834049    9.82311841282722
C         6.69585320903496    3.15540032861220   10.65575279797203
C         6.39681192369436    4.60752481227107   10.35900829509746
H         6.22996128711311    4.69712033437141    9.27933832740499
C         7.55228515308361    5.53216182805981   10.74508870440860
H         8.50216724881028    5.11659603867902   10.42230860496406
H         7.58328822074091    5.69094897200011   11.82080103432506
H         7.42076846215482    6.50179629316719   10.26938393790837
C         5.12726206739937    5.06298731159270   11.08577797494822
H         4.25122373106970    4.55041140422111   10.70295423213652
H         4.98324263951553    6.13243916721588   10.94556319558309
H         5.20960662401818    4.86181806282987   12.15250271430919
C         7.45286376890083    2.80082899246068   11.76262343448777
H         7.82718871595328    3.56804024787208   12.42106366430704
C         7.73911276141292    1.47832662425769   12.03719573328146
H         8.33905574893762    1.22155186129531   12.89789271218152
C         7.25272042575511    0.48137912116533   11.21270258930350
H         7.48278269744945   -0.54746150947026   11.43991885620794
C         6.46677907986604    0.78633554930234   10.11287883246538
C         5.92178702703188   -0.30526148498514    9.21493826462294
H         4.97250606017014    0.03632919193089    8.78964225017920
C         5.64545859637037   -1.61563380255506    9.95188910673263
H         5.06859656253624   -1.43556552422322   10.85651978938003
H         6.56941663507131   -2.12167423408216   10.22099733942006
H         5.07582936696700   -2.28368598573114    9.30875898290581
C         6.88946321650709   -0.53797478461182    8.05137572753802
H         7.00429762267268    0.39695693626418    7.47301915106388
H         6.51016609582822   -1.31650886315510    7.39186731600369
H         7.86848417868051   -0.84044504442622    8.41827910543932
C         8.13548077295214    3.12468469047184    7.76243608355124
C         9.09839032505748    2.39523784119589    8.45596775849257
H         8.96185527152415    1.34003009638502    8.64596133108284
C        10.24978084566959    3.00454745500984    8.92817768591135
H        10.97779252585528    2.41747685724815    9.47041300984138
C        10.47702797190550    4.34969050210010    8.69967537400971
H        11.38277150559861    4.81934927963690    9.05644924737410
C         9.53348011942570    5.09035589678850    8.00895718185860
H         9.69781936434659    6.14333411813916    7.82372894406345
C         8.37707578920998    4.48385442268343    7.54486993829801
H         7.65904754999050    5.09220105848114    7.00179184400251
C         9.35859683100294    1.68115539192421    5.08431261732184
C        10.39673282637296    2.51526539530765    5.49138156054209
H        10.18238747246382    3.53551353079866    5.77413265266217
C        11.69404132908702    2.04219229925511    5.53552031521552
H        12.49241316748703    2.69839766029824    5.84927780231122
C        11.96910821270010    0.72975639307752    5.18607952342806
H        12.98333682986533    0.36047000301187    5.22338255893847
C        10.93933730474217   -0.10881664569303    4.79447762948403
H        11.14888842748962   -1.13436466906362    4.52702672754868
C         9.63894469595625    0.36135727330119    4.74779264783859
H         8.83708497504560   -0.29794531387419    4.44579208782684
C         6.85430566150599    1.25009828216301    3.84353386777104
C         6.13960711796401    0.12353588644527    4.23759047894476
H         6.04869874653667   -0.10109613159068    5.28992318733334
C         5.52442997844249   -0.67981748199244    3.29544819944694
H         4.96350146313982   -1.54782369993668    3.61017423231724
C         5.61817811704853   -0.36580101961364    1.94972019138524
H         5.13081809296384   -0.98717209194259    1.21284876360655
C         6.33174202573821    0.75213309213292    1.55126654881781
H         6.40390334418849    1.00234842338397    0.50260843700626
C         6.94827846652452    1.55910572451167    2.49136026056714
H         7.49220005210536    2.43573168451768    2.17010507395106
C         7.72441753755602    3.89832511114438    4.28300135791990
C         6.65793303668945    4.76649853479863    4.49774478430313
H         5.86293742876264    4.46905026584571    5.17202647070069
C         6.61107427420482    5.99186305043762    3.85986240028940
H         5.77887995071363    6.65911541145170    4.03075995256722
C         7.63550903940871    6.36197876883745    3.00372773746912
H         7.60573647705816    7.32044066985968    2.50666710266767
C         8.70025963248231    5.50265384561422    2.78568002780552
H         9.49815931208564    5.79094035384103    2.11653651294344
C         8.74726550757505    4.27248931390475    3.41799530382069
H         9.57969460677263    3.60557565883784    3.24137685293856

