69
CSD_code = BABBOY | q = 0 | S = 0 | Stoichiometry = C32H30N2O4Ti | MND = 6
Ti       10.67910570714829    9.48187815638014    6.06028431766742
O        10.81456325593552    8.53248054492111    7.53757230901644
O        11.50754595855010   10.98104274077169    6.64384576578961
O         9.34929232334187    8.51915552349595    5.29921724440619
O        12.02044991013953    8.85049367459082    5.10924036008721
N         8.92378528117901   10.50695866742401    6.86415107500006
N        10.17867809917581   10.87314573173678    4.45108110231614
C         8.62345997786775   11.72472456971912    6.11365925380868
H         9.34153398999572   12.49631186698318    6.42833231487074
C         7.19517722483706   12.24041402837285    6.33475751941544
H         6.48319360306971   11.46504882461442    6.03810528242742
H         7.03428400471998   12.46198242303202    7.39101723241838
C         6.94987244544172   13.50264142132944    5.51218832003246
H         5.92794116976015   13.85163467604930    5.66773334030503
H         7.62673775105275   14.29039142043739    5.84953206224388
C         7.18447943063044   13.23039312373148    4.03037973510388
H         7.03468284872001   14.14640323723886    3.45688838903539
H         6.46108516666948   12.49282726111639    3.67657318703378
C         8.59782606618777   12.70223656432887    3.79910861312038
H         9.32640342647430   13.46021836054023    4.10047370117887
H         8.73779534734426   12.50177840988922    2.73566111101002
C         8.83466135695569   11.42389141605683    4.61446505019071
H         8.11678494207684   10.65227909891190    4.29936647565440
C         9.08529508750288   10.64889754928752    8.31784846848665
H         8.24682457827210   11.23340537553410    8.73766966171067
C         9.03491373515301    9.26353678344596    8.93416366680570
C         8.13522518421139    8.96094099948294    9.94257519006902
H         7.44943357968333    9.72421463236531   10.28637289323466
C         8.10152673189569    7.70316692629975   10.52075750471685
H         7.39468279515571    7.48765851951368   11.30714965184944
C         8.98270513823921    6.72871955009038   10.08125789268382
H         8.96403865947376    5.74451670099729   10.52625974388043
C         9.88746477598616    7.00715581562821    9.07762065490467
H        10.58245641956346    6.25765036290947    8.72577469232831
C         9.93788001452851    8.27541082298803    8.47990465236359
C        10.37710002995107   11.33370785394134    8.72691111054931
C        10.44636177475943   11.85118165442245   10.01436864397897
H         9.57498034254685   11.77601868353334   10.65099791343705
C        11.59460793532884   12.44813490285790   10.49923301880307
H        11.61916619019527   12.84100863608208   11.50400270122604
C        12.71044792736752   12.53238526799248    9.68171396582332
H        13.61673704538399   12.99416661018061   10.04563611386132
C        12.66603310169338   12.02785262116300    8.40037857318537
H        13.52703420387066   12.08165122003360    7.74834612366378
C        11.51177922704939   11.40894232135836    7.89283700363180
C        10.48059308401476   10.23278632452284    3.16324512503327
H        10.16046797127943   10.88478919784940    2.33060515807395
C         9.81298724215233    8.88191499066070    2.97685869973937
C         9.72899425326463    8.38393265769099    1.68263376136493
H        10.10538220559769    8.98893055478330    0.86867646858352
C         9.18781867836889    7.14110274147583    1.41367116268967
H         9.13694555662896    6.77969342240996    0.39817431649482
C         8.71679834279594    6.36678051381832    2.46207624050260
H         8.29302387243394    5.39185166300063    2.26964741126172
C         8.78740551317420    6.83947512755640    3.75428843606287
H         8.42801062907621    6.24907321356205    4.58597007185640
C         9.34335920073087    8.09520153265217    4.04891177596378
C        11.98507584568691   10.06423928201342    3.06538588389064
C        12.69481784863452   10.57230428064801    1.99028426565137
H        12.16615714420802   11.10883141868041    1.21324454345220
C        14.06536753818698   10.40173715648886    1.89034826956859
H        14.60047846153787   10.80330480021270    1.04360506222583
C        14.73917887460001    9.71163295828008    2.88481409852630
H        15.80829735022647    9.57326103351727    2.81551953031326
C        14.05288081608422    9.19681734878480    3.96531843554353
H        14.56493258006067    8.65430133843834    4.74766972669801
C        12.66445232715577    9.35856660515868    4.08454402044958
H         8.16596873979317    9.83511904566821    6.70612205881208
H        10.85567215922572   11.63199724034272    4.57927187391835

