56
CSD_code = BABDAK | q = 0 | S = 0 | Stoichiometry = C12H25B10IMoO3S4 | MND = 9
Mo        0.36008324871885   -0.13225319805694    3.83907439471775
C        -1.77447493144593    0.06549345597641    2.99559592560205
H        -2.01790754087800    1.12288416492189    2.85794979792736
B        -1.76704467310209   -0.64107437751082    4.52670125182179
B        -0.78054995541552   -2.06608652590198    4.52927835407828
H        -0.27490557035492   -2.60503686084390    5.46240988995056
B        -0.18015734461414   -2.13124234217159    2.85056756647716
B        -0.80292030536517   -0.74175322189435    1.91478281710524
H        -0.32066083119498   -0.19177672701008    0.97697934141108
B        -3.17424744942985   -0.84560353421187    3.44632852660033
H        -4.15701458698764   -0.22926159611270    3.66686987858099
B        -2.57610272297237   -2.22383127333481    4.37705403692443
H        -3.19681248684293   -2.71193865498311    5.25321745863183
B        -1.54446542344618   -3.16110360712055    3.31512431565926
H        -1.42247165685789   -4.32938208767625    3.42993164541073
B        -1.52673657355772   -2.35800633586795    1.71333665126656
H        -1.38086758012435   -2.95582811539222    0.70345739172767
B        -2.55879362411083   -0.93841802567250    1.81432520088064
H        -3.13377323516758   -0.41548439889590    0.93283263098392
B        -3.02541258091422   -2.42381541984983    2.66414899647981
H        -3.96031260779804   -3.05732405070809    2.33929449217668
I        -0.01628567547987    2.61112299042164    4.92067920884838
C         1.45581468644142   -0.28935125593039    5.43677252760575
O         2.13617580708376   -0.43358779083190    6.37086993873674
C         2.22165772930861   -0.61936851842334    3.74255180635497
O         3.36036184104096   -0.87844747806319    3.62968354683837
C         1.43684588571609    0.94186685311360    2.61577108441541
O         2.15667742507706    1.46455281732410    1.88099699908907
S         1.46283426564258   -3.08927779541756    2.42541049320534
C         0.97255380943153   -4.72843834693710    1.74842608157584
H         0.58025401620918   -5.28576261132898    2.59751700098142
H         0.18064242971299   -4.58119720837125    1.01654378444391
C         2.16438219126832   -5.44500483779295    1.14949993698863
H         1.90121220079939   -6.47110767172166    0.89457167216171
H         3.01010937641593   -5.45377291618500    1.83852762231646
S         2.70668467620003   -4.68500907942634   -0.41642448567964
C         3.16253029318455   -3.04930321909033    0.24428454990304
H         3.95563882739546   -3.17659702830794    0.98236428427248
H         3.55496882468069   -2.49338914690837   -0.60673133758419
C         1.97192528881913   -2.32721467664273    0.83893704872979
H         1.11749270660170   -2.34278872147672    0.16292641051869
H         2.24019121789042   -1.29621553170681    1.07135822192102
S        -2.34177127376555    0.53803650755898    5.99650221332715
C        -1.23256040402852    0.08950210721875    7.37972440556872
H        -1.26409146291881   -0.99275462576284    7.50482234895842
H        -0.22877035267894    0.39838205352117    7.09141869837678
C        -1.63416949740096    0.81101699307644    8.64887513089517
H        -1.76486068744401    1.87861629105359    8.46583841568788
H        -0.87280153144500    0.67308335588173    9.41578741559012
S        -3.16960094214344    0.14435650002858    9.36785995071888
C        -4.27485814427525    0.50258221050435    7.96336640412879
H        -5.26301311337060    0.17287520936264    8.28275323517049
H        -4.29187963069974    1.58152619439921    7.80293408489825
C        -3.84982351588492   -0.23627187308688    6.71113182032094
H        -4.61876696022250   -0.16492008277623    5.94403099551347
H        -3.64745187528977   -1.28409693496508    6.92205792077034

