77
CSD_code = BABGET | q = -1 | S = 0 | Stoichiometry = C27H35N4O7S3Zn(1-) | MND = 5
Zn       -6.38671699399302   18.35898946118786    4.29530157799809
S        -5.64224198139020   15.78372916182972    2.48312683929309
S        -9.34860575979985   18.84000747385665    4.56457973432573
S        -3.88349253959947   18.36846082749326    6.30789515251467
O        -5.71482020369445   15.10282677065634    3.76742520180670
O       -10.37597232181664   19.82128315164297    4.23874519769233
O        -6.24550265495427   15.07354499483130    1.37060610492557
O        -6.77820419944868   16.75324506631344    5.55350089068661
H        -6.15675573360096   16.93174958178966    6.29370646553332
H        -6.41920546289672   15.99608864495447    5.04243031080626
O        -4.82520231244557   17.60459030751313    7.10409745493420
O        -9.55079960269716   18.11797494954770    5.79230728204217
O        -3.18043420954806   19.43559730501855    6.99407672953911
N        -6.13295514788686   17.27741040173042    2.63590609086142
N        -7.89188871200638   19.52858660384626    4.53512005877893
N        -4.55508655332145   18.84256506236032    4.94562579277803
N        -5.80071816889511   20.01403653821879    2.78407406346281
C         0.36989132344055   14.37292731948298    4.57020192099768
H         0.12000134194933   13.99926289129572    3.57841489909836
H         0.40253774868972   13.52177348895726    5.24948388690698
H         1.35792648600950   14.82643795151081    4.53667332556711
C        -9.27633144448586   15.78966789748011    1.16417806069009
C        -7.82974583821925   20.81070914318094    3.89250510128577
H        -7.35463023532149   21.52800719530903    4.57565872953724
H        -8.84937718419680   21.15705033759084    3.69515270722752
C        -3.87929578770052   15.82045735322670    2.06043958591138
C        -9.36772025111199   17.63065456934750    3.23633627751916
C        -1.17329409820500   15.91112792296287    1.44798231168119
C        -7.03913628620012   20.74438784087098    2.57706140673060
H        -7.63397103963850   20.19294316064007    1.84869099300735
H        -6.84999385360587   21.75959830554198    2.18581681200184
C        -5.32390471337968   19.33425117001071    1.59455561209808
H        -4.26819049153883   19.10053760553108    1.73376306334526
H        -5.42648763544594   19.96604294080235    0.69522981787329
C        -3.08401915483779   16.80320920294885    2.61103299555915
H        -3.54644100542931   17.49877129107278    3.28902761357280
C         0.28604854393936   15.97999619034583    1.10372949431088
H         0.86462116921378   16.31476973823763    1.96149011684874
H         0.44592795825869   16.69035697818418    0.29161806998650
H         0.65739820767081   15.00982766076650    0.78105129845271
C        -9.60686274738236   17.11453878573709    0.91396327664252
H        -9.81757517359967   17.43161388834664   -0.09998294701833
C        -1.73792470816205   16.85717267610532    2.29645450881085
H        -1.11540367162773   17.63125971023173    2.72246378140976
C        -1.98577658105874   14.91812573541418    0.91349060740045
H        -1.55610423210504   14.17488945070678    0.25511632064877
C        -6.08923923169625   18.01534716749918    1.40099636623356
H        -7.11203797510573   18.22408107115978    1.06072374326992
H        -5.59686187281356   17.41844573348348    0.62257280741032
C        -9.65326159247019   18.03546791250364    1.94874032832437
H        -9.92018907744425   19.06801543482896    1.77452001475715
C        -4.79426093360953   20.79590761008774    3.47778175322395
H        -5.31563351681819   21.44413090929914    4.18013759941857
H        -4.21216758625203   21.42317009183783    2.77966753079186
C        -1.28716736805481   17.56093476224422    5.78198780882914
H        -1.03549317599324   18.56919036064399    6.07338039986988
C        -2.61119228854666   17.17358160536977    5.83327104822750
C        -0.31669426679238   16.65761435249431    5.37823407991844
H         0.72067469216932   16.96380049116441    5.34000229275743
C        -9.13880635547592   14.79528584264104    0.05282472469343
H        -9.73516858070302   13.90537250524659    0.24954942020371
H        -8.09084534149626   14.50142688072057    0.00389338856297
H        -9.43919852281533   15.22063382178020   -0.90257157053315
C        -9.02602678757864   15.39361297550233    2.47441722284955
H        -8.77074686456046   14.36374582700646    2.67306333886983
C        -2.97386351024390   15.88474631411203    5.48439661813590
H        -4.01173068592709   15.59592839860583    5.51294529927350
C        -3.33770788065193   14.87553223409897    1.21240382262999
H        -3.98886489089942   14.12303399033081    0.79594485349511
C        -0.66463471683081   15.36170509456099    5.02145240305824
C        -2.00282251802411   14.98597457111713    5.08391331152231
H        -2.28817812757421   13.98272403380669    4.80273372334507
C        -9.07163460883188   16.30843149439569    3.50805596442851
H        -8.88752000338328   16.02787055231522    4.53178549961304
C        -3.84214182623244   19.90596030224592    4.28652266420319
H        -3.06134871021336   19.50089169664128    3.61843825815879
H        -3.33499996300991   20.52128125766227    5.04029068837409

