78
CSD_code = BABNEZ | q = 0 | S = 0 | Stoichiometry = C38H34ClCuO2P2 | MND = 3
C         7.45463181191188    6.76113624078319    0.06111245172880
C         7.50826555226703    5.40087606332814   -0.18123804061705
H         7.25076682278041    4.69771089423172    0.59754741414495
C         7.89387504447957    4.94955010993591   -1.43518002541017
H         7.94148238906148    3.88878094405324   -1.63029206914233
C         8.21704089685032    5.85105605488072   -2.43398850044107
H         8.51373455217716    5.48958665813194   -3.40752789068404
C         8.17192141120055    7.21965596741191   -2.20633947880110
H         8.43409915168942    7.90966472433615   -2.99357917540092
C         7.79507866389850    7.67243727849383   -0.95371340896750
C         7.88605149420940   10.02356685091190   -1.42605687913936
H         7.57113787707903   10.91141360262929   -0.87562208268288
H         7.26755936844434    9.90847369078611   -2.32132936812841
H         8.93837922649806   10.11078345406797   -1.71278762674843
C         8.57720733952703    8.16781322303340    2.17948216426275
C         8.80358689234654    9.51357509459525    2.44018814370592
H         8.01078297830225   10.22985997808919    2.26756250041246
C        10.04386102083130    9.92559143376538    2.89619838723650
H        10.22207886503424   10.97168079220006    3.09676349752335
C        11.05374839629350    8.99804735609380    3.09042156319670
H        12.02199119503697    9.31954508298949    3.44625275180675
C        10.82928543334338    7.65544162544304    2.82395204067482
H        11.62145403128459    6.93521064640548    2.97142809230323
C         9.59474741299536    7.23642508784893    2.36555310632250
H         9.41251126738023    6.19150845221214    2.15137357367920
C         6.43027300076082    6.34219919498301    2.68513045105313
C         6.89983671675468    6.25250143398355    3.99104694922278
H         7.66972104819072    6.93105058408307    4.33167902572665
C         6.38671025303082    5.29604141611743    4.84863882318869
H         6.76066316084214    5.22753638599065    5.86007426593070
C         5.39745370464229    4.42901782640684    4.41633769513762
H         5.00294067013410    3.68033934815417    5.08728622573466
C         4.90427002955207    4.53159531415005    3.12522659846118
H         4.12104598055941    3.86765373946794    2.78965735996907
C         5.40504005924639    5.49288332257750    2.26999349672047
H         5.00091070557515    5.59472760906077    1.27049427790061
C         2.81863444909074    7.49980230954383    2.30372947647903
C         3.36909728755354    7.79711064566733    3.54804004440707
H         4.05579589943774    8.63213592026796    3.62964845006384
C         3.04759203183352    7.03692627403942    4.65525075471211
H         3.47714030222368    7.27243748399729    5.61770022594826
C         2.17952999119738    5.96481146549559    4.52360301066813
H         1.92844286675580    5.36488966350383    5.38592302419615
C         1.63805300462976    5.65779561546488    3.28629832098762
H         0.96368412287575    4.81917709543790    3.18594793113832
C         1.95569821666408    6.41918425886737    2.17530804054801
H         1.53648816311180    6.17324972563881    1.20974119293367
C         2.89372297889262    7.62865056331823   -0.54649249590373
C         3.92223275470176    6.94684727361102   -1.18711287453707
H         4.92893813036344    7.02004802125210   -0.79187528047636
C         3.66562148685422    6.19860965620758   -2.32089695030526
H         4.47055756917906    5.67040516901800   -2.81179845687414
C         2.37671589246662    6.13707418246697   -2.82573043660687
H         2.17145903717234    5.55651887776256   -3.71325592689088
C         1.35066137034641    6.82714013058296   -2.19901877977416
H         0.34829421336639    6.78318118985990   -2.60050221203717
C         1.60374240866710    7.57382710991616   -1.06232859967758
H         0.80724515257340    8.12007138120445   -0.57496409820749
C         2.08109531921553    9.88247149668435    0.99991397384810
C         1.09350222179350   10.08379467145373    1.94825464441781
H         0.92161314603062    9.34359129136025    2.71712672116544
C         0.34210305466375   11.24766335317653    1.90165828513354
H        -0.43650415091517   11.41366126732243    2.63087760629860
C         0.60411165049191   12.20769005826883    0.93910893897792
H         0.02836701612490   13.12128764662039    0.92475636744711
C         1.60287483432783   12.02603293183229   -0.00734380390114
H         1.80449227023294   12.79792225208963   -0.73338492678863
C         2.33488797757744   10.85170740118982    0.01628433295246
C         3.91362540507274   11.43237304851488   -1.67170589631661
H         4.67061836801562   10.90004098132411   -2.24480911371763
H         4.39673443607599   12.20979771147091   -1.07394875922611
H         3.18243629404013   11.87285160218756   -2.35616417274064
Cl        5.93767906747642   11.44889096528659    1.08264331739964
Cu        5.45157996751717    9.31328180185058    1.17140638822586
O         7.69374065060305    8.95193460335874   -0.53220665088853
O         3.31516927349260   10.46607712047769   -0.83608861538348
P         6.94306178201681    7.66875448244466    1.55094572164213
P         3.34041966204733    8.58754381815861    0.93531497086330

