101
CSD_code = BABPIG | q = 0 | S = 0 | Stoichiometry = C47H50NNiOP | MND = 4
C        11.56984484730740   13.80245313603325    6.15620590248152
C        12.65824841738995   13.73363513042052    7.09635128285419
C        12.52629403870549   12.93871731836055    8.20710682243827
H        13.31769355362861   12.89933351691182    8.93817598290424
C        11.39767360545120   12.14571248034858    8.44712097262934
H        11.35061215069828   11.53888713976937    9.33885380404879
C        10.38461569350642   12.13184592120946    7.53433420994991
H         9.51494957994243   11.50538115344835    7.68201720102488
C        10.43957651662262   12.95153433265649    6.39287124118876
C         9.39828525936480   12.81801982356793    5.43731217571362
H         8.77555120268589   11.92728504686113    5.56573471033169
C        13.93042645297042   14.52891621449617    6.83043969784677
C        14.52932701637416   14.04415001917963    5.50339800820274
H        13.81030851831917   14.16304705908389    4.69987362904281
H        14.80135001030411   12.99253027013621    5.57665059860507
H        15.41968930560407   14.61901302394734    5.25551860888411
C        13.60486336446715   16.02462205458990    6.74190380347796
H        13.14625167412059   16.36937223344554    7.66743236510948
H        12.92134146229425   16.21225660634201    5.92063444197794
H        14.51363752862718   16.59848245481294    6.56888347733460
C        14.99111373292994   14.34568068225781    7.92096522913900
H        15.87442155318309   14.92409090296037    7.65573300341760
H        15.28954841203401   13.30368069777764    8.01275953027852
H        14.63408681339185   14.70261791923314    8.88473008964046
C         8.16818941792332   13.10097368662247    3.50154161884411
C         6.81248045019059   13.04141891543079    3.84033582747070
C         5.92075438353888   12.53335212233989    2.90453865608824
H         4.87126779146277   12.47344953941223    3.14845485179530
C         6.35306661992517   12.09359144072147    1.67048174817157
H         5.64430130290200   11.69426308364895    0.95986821539234
C         7.69484956403527   12.16323009948496    1.34235902118113
H         8.01845575947840   11.81354008307020    0.37497989683682
C         8.61859136788235   12.66684427376041    2.24241526738684
C         6.29995095657677   13.52234431933208    5.17931348719509
H         7.11227067386798   14.04024276798541    5.69903479608324
C         5.84118849564251   12.34213409930462    6.04143110916271
H         6.65434085395554   11.64148849701957    6.21754944468999
H         5.03303485006204   11.80421025905778    5.55068239619474
H         5.48297329447734   12.69926706198331    7.00477911345613
C         5.14887969624994   14.51606714309062    5.00759346581747
H         4.91098953762076   14.97571025257257    5.96480365973441
H         4.25367632744691   14.02126935952001    4.63982600705103
H         5.42719132439975   15.29696711442413    4.30500188076374
C        10.09627395048319   12.72702825754612    1.92077984104269
H        10.50738473282528   13.63590109285648    2.41970398074200
C        10.40036529221898   12.83541181858996    0.42782642064028
H         9.81103035713565   13.62134762897939   -0.03897350328315
H        10.19454440487878   11.89659603636041   -0.08202342427019
H        11.45431055359236   13.06608351015878    0.28184598942077
C        10.80949299140262   11.50257799779797    2.50417776006720
H        11.87162736782318   11.53699763469504    2.26955967602217
H        10.38990744047045   10.58950749108719    2.08461548568483
H        10.70299289416398   11.46524463183562    3.58561390918716
C         8.68366856981078   15.95493377956085    3.19084656341490
C         8.32228309129655   15.86872669504249    1.84933381079501
H         8.94049355600439   15.32350463517285    1.14964213353077
C         7.17295422799793   16.48263430573053    1.38126979484574
H         6.90712416171664   16.39286344645856    0.33734460778494
C         6.37627692933032   17.22042825142220    2.23804311656155
H         5.48526853666308   17.70883856068310    1.87015445098692
C         6.73135479855743   17.33216079124639    3.57062581747417
H         6.12069158228839   17.91390934711259    4.24831510878605
C         7.87279902179356   16.70337108563713    4.04383435554152
H         8.11992317590692   16.80428162129209    5.09642104079376
C        10.67835344137474   18.78837530248442    6.87504094338500
H        10.30886602241319   18.51325117609185    7.85216570776595
C        13.41676805868486   15.44312786510400    2.36536087153634
H        12.62701295302590   14.77478646020356    2.04472354598973
C        14.73859031309057   15.15734452118047    2.08071327742155
H        14.99325065982040   14.26964508068820    1.52002438239096
C        15.73791431262513   16.00622373476059    2.52831624260020
H        16.77268209989524   15.78367487684554    2.31286754404217
C        15.40962820558414   17.13254507235325    3.26387406917876
H        16.18995826273469   17.78726491260343    3.62458939249909
C        14.08618382569781   17.42573283900016    3.54411246043375
H        13.84098879613592   18.30070527685454    4.12818469660280
C        13.08046806380697   16.58546567457071    3.08672962788367
C        11.61822120924326   19.50273980249288    4.36001426059639
H        11.96741846491474   19.78415853318141    3.37576003921651
C        11.54628202101887   20.44544896468914    5.36945222052018
H        11.85361992356990   21.46311254633160    5.17620602861911
C        11.22527147390877   18.19099926966970    4.60861909948976
C        10.75042858024350   17.84318334231827    5.86836132846104
H        10.44100173651050   16.81755669841808    6.04833358295271
C        11.07987830984338   20.09026398379800    6.62571179065202
H        11.02541233882970   20.83228634449016    7.40873749037818
C        10.86739989161840   17.80457028989427    1.83940055358397
C        11.52631504854587   17.59932512828589    0.63351947367462
H        12.36257680638538   16.91649070584390    0.58385756694691
C        11.12020613358888   18.27110334229943   -0.50647720846659
H        11.64160128466246   18.10750784912736   -1.43853402429922
C        10.04939871389956   19.14647220301772   -0.45555299891954
H         9.73270789000957   19.66713720030291   -1.34718355953365
C         9.38298482440195   19.34974901314375    0.74235471617536
H         8.54286371534437   20.02689012997328    0.78714312894640
C         9.78572005981265   18.68094469620944    1.88139447988589
H         9.25774075422876   18.83200879877611    2.81232974072681
N         9.14085212364559   13.57320774178934    4.41764970374164
Ni       10.16987561064832   15.15967703798593    4.00035638943918
O        11.63097780606167   14.56685698814333    5.13204965350929
P        11.29924925016503   16.87778872094957    3.35243959416569

