111
CSD_code = BABQAZ | q = 0 | S = 0 | Stoichiometry = C46H60N2NiO2 | MND = 4
C         1.08273553842423    5.41159514503988   11.61061714992709
C         2.35954073181614    5.11073224105109   12.17671472680528
C         2.62822099648398    3.84167146638480   12.71424843663598
H         3.61002638246664    3.64233774502907   13.12068852818522
C         1.64469359491353    2.89544496470023   12.75939425681195
H         1.83094574071879    1.92467584285740   13.19279849671896
C         0.37861081459560    3.18843110390466   12.23879334889172
H        -0.37055904176883    2.41576146670948   12.30058239459150
C         0.06826383035871    4.39651631061419   11.66407956514620
C         3.39783087268432    6.07676296271556   12.13077201150237
H         4.40623606812416    5.66348491809075   12.17873537656747
C        -1.30823866009182    4.69835029443588   11.08977480557805
C        -1.16491360068479    4.98406733729524    9.58956082484899
H        -0.73341707398498    4.12301573234477    9.08189135409983
H        -0.52099088171458    5.84250961545102    9.43302055560732
H        -2.13970738933644    5.19257322464779    9.15439368704891
C        -2.28866703990317    3.53357921967906   11.26245673056378
H        -2.43915381863214    3.29424938173856   12.31321867387254
H        -1.94306175556908    2.64490657339704   10.73887221937994
H        -3.25215415094936    3.81531036889285   10.84220599399167
C        -1.89906690123109    5.92277176819286   11.80307567221600
H        -1.26419716506237    6.79305976942126   11.66350429143862
H        -1.99824930287460    5.72366537422478   12.86942381019863
H        -2.88435689892555    6.14912699191809   11.40103551199843
C         4.50363881757297    8.06958520959812   11.90438432715513
C         4.77471068625097    8.81092808097453   10.74146285976338
C         6.02886098991191    9.38331806038111   10.58544518041942
H         6.25300695395616    9.93402953058844    9.68581302564720
C         7.00695604400692    9.23343300273465   11.54810576833038
H         7.98542370006389    9.66615147357236   11.40301100233192
C         6.72305192493591    8.53114592929301   12.70276915472206
H         7.48806478710732    8.42777740493514   13.45690205631931
C         5.48031552939925    7.94595003242809   12.90958699392188
C         3.77726180646297    8.91050171810933    9.60775709747238
H         2.76601899005623    8.63482402198396    9.98067677840431
C         4.14794093137882    7.90208990855700    8.51639503452165
H         4.14252984616394    6.88974086369533    8.91541849742728
H         5.14096032022216    8.11260322531746    8.12282037357397
H         3.43074500932026    7.95165241132097    7.70081862500392
C         3.67420736211084   10.32313850239108    9.03108511125866
H         2.80589948824053   10.39251604921841    8.37956406651975
H         4.55492196446888   10.58219032719098    8.44774624209732
H         3.55615004912002   11.05556966067363    9.82671600724773
C         5.23999098292803    7.22151685924965   14.21792560433817
H         4.19057609070199    6.91589206718645   14.27134026165402
C         5.50863681358751    8.14656917160156   15.40765635909547
H         4.96064273519017    9.07681917056104   15.29728735478043
H         6.56752438629155    8.37536254075942   15.49787471592163
H         5.18650964699464    7.66579576921458   16.32874850372107
C         6.12432619901783    5.97565945845066   14.34088734485750
H         7.17584218057010    6.25292382389269   14.34575071108499
H         5.96668892951331    5.28271544352846   13.51730164896174
H         5.90311828432776    5.45607175047829   15.27079609996631
C         0.12080471690268   10.12571866024165   10.03394757507428
C         0.60626959945900   11.22648739322086   10.80453001833907
C         0.42517498141453   12.54829614139339   10.36583921435268
H         0.78994085206354   13.35885069470098   10.98130600239086
C        -0.16386623268718   12.79412178433996    9.15886565351167
H        -0.28692235294678   13.80424780183010    8.79911745949650
C        -0.61202940439335   11.72268637897887    8.37700805319346
H        -1.06422813067109   11.96073853237759    7.42784382480086
C        -0.50002320571205   10.41186190084382    8.77078176199438
C         1.21493023560309   10.99432429970622   12.06461591573018
H         1.18222638298996   11.84336200132935   12.74893726438925
C        -1.00516781151406    9.25724431524034    7.91781092096607
C        -2.10147604833709    8.51548787609778    8.69275012163944
H        -2.92297230956023    9.19169130564524    8.92343112891555
H        -1.70064657346957    8.12119008564349    9.61999017407065
H        -2.48613900790417    7.69021232324704    8.09772973575923
C         0.15771493768723    8.30261056175056    7.61228976035845
H         0.57450673797052    7.89810282262417    8.53016801888899
H         0.94132087615142    8.82828045166529    7.06802612087514
H        -0.19143266038035    7.47387857924040    6.99991874087830
C        -1.59562254246239    9.72335930056074    6.58292796236189
H        -0.85472058718238   10.24838890110401    5.98339057053550
H        -2.45641306550446   10.37067484135365    6.73567616838589
H        -1.92766020854735    8.85405119605223    6.01870963928763
C         2.21960420381893    9.94324025489881   13.83327507492981
C         3.14407919063476   10.92446002262978   14.23534360130739
C         3.44977174278160   11.03402203952297   15.58589047814957
H         4.14198736317696   11.79539388215304   15.91125721883999
C         2.87876278638558   10.19772635955466   16.52491024187663
H         3.11986841514040   10.31209320054539   17.57109959352094
C         2.00403847921037    9.21126575071234   16.11530768167941
H         1.56201007262280    8.55844956260821   16.85104190927187
C         1.66000045039088    9.06711691346334   14.77901483311506
C         3.83982201826794   11.85643717740982   13.26506158745501
H         3.57482845036013   11.57177363980601   12.24218728345627
C         3.42976477578084   13.31548064475086   13.49302675086415
H         3.72407161366524   13.64427288592278   14.48693477896250
H         2.35484109219259   13.45427476629687   13.40074803860825
H         3.91991230006721   13.95488779537172   12.76188656305668
C         5.36028542846740   11.73608848787774   13.39515431603437
H         5.84423965721943   12.29099041328588   12.59444933211854
H         5.66664823112745   10.69730253886235   13.32541213308017
H         5.70776744372169   12.13808240804559   14.34353446610531
C         0.61185586019499    8.04482176350714   14.39628653188482
H         0.64466014065753    7.87729830934322   13.29691413788273
C        -0.77800082126906    8.59478894360535   14.72985034210582
H        -0.96163048723054    9.52076598928062   14.18860651658255
H        -0.86329696319151    8.79571503332295   15.79647054318418
H        -1.54338790738887    7.87627275950453   14.44710929168718
C         0.83420248945242    6.68776493933454   15.06522900955851
H         0.19711658343429    5.93880860517594   14.59993106644540
H         0.59560700709282    6.72124473622942   16.12589092457429
H         1.86743315779904    6.36722727924388   14.95098790696429
N         3.28001747294338    7.36006860770206   12.00258341536096
N         1.75961733374863    9.89985130595015   12.49280521103076
Ni        1.56949908325450    8.20141814629646   11.53644924928762
O         0.87190373510328    6.52528681956679   11.01562806075213
O         0.17843808164693    8.92936858237303   10.48520487494747

