80
CSD_code = BABQIE | q = 0 | S = 0 | Stoichiometry = C35H37FeO6P | MND = 7
Fe       12.46583843763928    5.01554230760609    2.91618833561696
C        13.65282627177875    3.27527153108585    3.18477480170003
C        14.36990239605417    4.43533026566953    3.62741376376049
H        15.32350086474574    4.72877357464540    3.20420709022887
C        13.71004782595300    5.21315038536573    4.58137002902021
H        14.12693681187842    6.13125103774648    4.98183422848913
C        12.41498007881463    4.70688505818838    4.94497933525893
H        11.84981239774777    5.33004155564039    5.63668061936569
C        12.36788188423315    3.24354889118940    5.35067270514685
H        11.32989467318016    2.93898374914849    5.50482047006800
C        13.02100734091909    2.39523794803613    4.25588476681661
H        13.78610885508055    1.74742947309167    4.69111195919093
H        12.27595802799584    1.74628186986376    3.79860317492828
C        14.22814174597170    2.51846919252439    1.99461093550222
H        14.75382407339567    3.24714959022324    1.36583864244645
C        13.12322754338476    1.88554233579593    1.14674235646888
H        13.53778777308246    1.48574273680767    0.22424469482210
H        12.37131641363671    2.63126274823177    0.89771681264114
H        12.63928750507680    1.07307327331802    1.68200651680933
C        15.24158373998097    1.43136797971214    2.39559641525713
H        14.73804031572130    0.66258729030286    2.98363575772978
H        15.59990585664948    0.95570442574032    1.47946575952999
C        16.43917356592377    1.96788506614621    3.16913710521242
H        17.13570427368444    1.16161584558507    3.39018414820219
H        16.12950211141301    2.41789973938600    4.10934294376183
H        16.96529520745598    2.72001910013026    2.58450937316089
C        13.09454641340370    3.08842965310756    6.70499083000359
H        14.16695140993623    3.26959010778877    6.58473503853976
C        12.56528660796605    4.11067583043599    7.69800059784867
O        11.44762060123551    4.13945640839946    8.13647421313011
O        13.51499458864815    4.99283086197257    8.01995824823235
C        13.13702625279731    6.02603372388810    8.92028757919170
H        14.05776923083956    6.51326273210369    9.23074625054708
H        12.61334553643495    5.60438650083027    9.78007175524557
H        12.47886762109270    6.73862268930708    8.41696573479737
C        12.89169200544887    1.70445498875156    7.30374388499844
O        12.31523975600440    0.78981890211397    6.78655146646770
O        13.46182160072634    1.64190313635231    8.51311810620894
C        13.31344874444386    0.41183202693928    9.21236568572093
H        13.91110789864170    0.50171557252016   10.11590088507084
H        13.66544596753741   -0.41842012026760    8.59644507109716
H        12.26345588122721    0.24689302093880    9.46178051882927
C        10.93079429548488    4.15318452580671    2.76559855381740
O         9.93351467428347    3.59348346589267    2.69282934053225
C        12.88691346448773    5.21819138636681    1.23412580269017
O        13.15878921208933    5.32737557681223    0.11926795804253
P        11.75886076558587    7.07220647366451    2.97450214294171
C        11.40641227147731    7.75775790586162    4.62824180303527
C        12.25381879704706    8.65088370195888    5.27176862425582
H        13.11992705830002    9.04126043026283    4.75454377849871
C        11.98497518397586    9.04422770496245    6.57214346466218
H        12.64293887717516    9.74375214831513    7.06781131999942
C        10.88126845399881    8.53934766321428    7.23981758753979
H        10.67594828419002    8.84807197001096    8.25472378427845
C        10.04093746887586    7.63385859783113    6.60787530826304
H         9.18971250850926    7.22740251220289    7.13313332569309
C        10.30626678017134    7.23962540553526    5.31119671215354
H         9.66871671138020    6.52267170226389    4.80973111701926
C        12.84080355396539    8.37946435817279    2.27823688257820
C        12.37525598907278    9.64969349666227    1.95213881796786
H        11.33148844564316    9.89393540199501    2.08559912073849
C        13.24675225403036   10.59808448932377    1.44856555029177
H        12.87896928573973   11.58126956684147    1.19316254449627
C        14.58615039573124   10.29172963712396    1.26850282810221
H        15.26194797523077   11.03562813527748    0.87309934983651
C        15.05519277844227    9.02925415259332    1.59093706324583
H        16.09806427359067    8.78605172231398    1.44820784051922
C        14.18518313383871    8.07754287650396    2.09077367073677
H        14.53593413046663    7.08350340401648    2.33464839650248
C        10.18806464547312    7.44628589630036    2.11336081430817
C         9.30792143248854    8.44132435883953    2.53224936399506
H         9.51754282811197    9.01161281453641    3.42713022398587
C         8.15107209313861    8.69198145208936    1.81608048722244
H         7.47167497407952    9.46282000335583    2.15033886077907
C         7.86176548951386    7.95870680075673    0.67739551964098
H         6.95699278994383    8.15756656506409    0.12239281107544
C         8.73088203305509    6.96513782205342    0.25738894149448
H         8.50556387827066    6.38611601168950   -0.62580150479046
C         9.88581926368010    6.70887429724834    0.97327018130224
H        10.56175744183473    5.92318256001389    0.66370300564910

