61
CSD_code = BABROO | q = 0 | S = 0 | Stoichiometry = C30H24N2NiO2S2 | MND = 4
Ni       16.10094005657126    1.12156697273531    6.57610950362006
S        16.09529324390878    2.80456402087252    7.91735169017847
S        14.78448514116519    0.05300275896452    7.90318990908158
O        17.30638083476268    1.97062584485005    5.42065926061284
O        16.08430868542016   -0.28042670875391    5.33117208293424
N        17.04773417308089    5.27939192913577    8.11901006489849
H        17.55060029320520    6.03289285207823    7.66397233007179
N        13.63358289515772   -2.32484694357955    8.17842289706565
H        13.57324528844872   -3.28051626203050    7.84638629525956
C        18.73616517498643    3.24718047581095    4.09993871856448
C        18.39120120135468    2.51000083494257    2.96799836436512
H        17.52845723536762    1.86239136168305    3.01641444898036
C        19.13788279504888    2.61166960642294    1.81047671277105
H        18.85733689668674    2.04154879590214    0.93693771585574
C        20.24653070530398    3.44171127592666    1.77192171895507
H        20.83296314395411    3.52272941471733    0.86842924149915
C        20.60840270088140    4.16084457663761    2.89916160832593
H        21.48225220682370    4.79579163723344    2.87617670142785
C        19.86045360793857    4.06647411407457    4.05883435921224
H        20.17203607848131    4.61106805001187    4.93755838700338
C        17.89191637735150    3.08485847438845    5.31458329360089
C        17.78333171869103    4.14878618484514    6.21180479041332
H        18.30483400389301    5.06455373663478    5.97292115171498
C        17.02756708624629    4.13014325865774    7.38687410458605
C        16.48369802644489    5.67724299215084    9.32719926628741
C        15.90161377779299    4.82592555587037   10.26261880453942
H        15.85062993777450    3.76776665755865   10.07923257274287
C        15.39051022434915    5.34001892717952   11.44092720491392
H        14.94183890621460    4.66492950071367   12.15410917389242
C        15.45133433931423    6.69472839235983   11.71536385983455
H        15.04842060535575    7.08511984950012   12.63736859569419
C        16.04113870615427    7.54596748518489   10.79506481009007
H        16.10331200676961    8.60545261853146   10.99559548293005
C        16.55327223264469    7.04395704841899    9.61668672023670
H        17.01381153851149    7.71554953986536    8.90399845883396
C        15.97879027217148   -2.17532418033678    3.98172820935718
C        17.17946952306977   -1.83452573005803    3.36055422014646
H        17.79235101178488   -1.06580536108889    3.80724341545206
C        17.57453163390389   -2.47223534958157    2.20073951968495
H        18.51041694084023   -2.20579959408972    1.73168996357349
C        16.76968119358365   -3.45015707668096    1.63910408246823
H        17.07578644078748   -3.95039594158102    0.73199718185030
C        15.56454738909724   -3.77852584690906    2.23803031023353
H        14.92751244343611   -4.52879515999672    1.79239451328571
C        15.16737388786163   -3.14648099773653    3.40240981165762
H        14.21213311602066   -3.39297461680407    3.84127998894305
C        15.61106011525657   -1.44672556988725    5.22600114556904
C        14.81717282848136   -2.09027391543008    6.17714549075107
H        14.52234904234640   -3.11111891169153    5.98093613777056
C        14.39181968946817   -1.52181363436999    7.37994523212288
C        12.99073170625556   -2.14274735912368    9.39958453079259
C        12.67757505883099   -0.90695595413365    9.95891211174049
H        12.94514112381795    0.00307613745800    9.45239808910902
C        12.00959046162084   -0.84613840463099   11.16869600982560
H        11.77520908090371    0.12030185539758   11.58904923363566
C        11.63631827628395   -1.99908329762122   11.83649103626342
H        11.11673974494950   -1.94039699354460   12.78066080865460
C        11.92996009088684   -3.23188509024535   11.27684547627759
H        11.63847801079741   -4.14155442916002   11.78080709813054
C        12.59626415932533   -3.30387561420500   10.07090589722717
H        12.82031491214080   -4.27005379347963    9.63838018439192

