87
CSD_code = BABSII | q = 0 | S = 0 | Stoichiometry = C43H37As2Cl3NRe | MND = 6
Re        2.11538310993265    7.29387180659091   10.81762712661077
As        1.87723537088278    8.34367187821126   13.04461487025319
As        2.74005492875156    6.24461171249554    8.64803591381675
N         0.44675883359846    7.51192578920756   10.31187468896920
Cl        1.63183194556329    5.02550618015731   11.49842079459861
Cl        2.60200949119914    9.52228056591734    9.98756503943354
Cl        4.23170875617881    7.09734945260811   11.43021317092629
C         2.71356288155807   10.08020877063751   13.21855751273426
C         4.00099979481559   10.20570304901679   13.73070044930364
H         4.51077852519321    9.32663492403692   14.11640168119449
C         4.62927032617033   11.43952180659435   13.73596238728268
H         5.63060544128181   11.53202203113350   14.13196651756672
C         3.98076850099562   12.54959187575213   13.22178126736687
H         4.47537445924864   13.51001743715462   13.22100822997866
C         2.70547100766943   12.42759899645501   12.69286808843973
H         2.20910106130320   13.29067137150419   12.27344409814143
C         2.07526091165974   11.19707868343427   12.68391182541494
H         1.09092808296461   11.07948545122679   12.23937319761573
C         2.57098677671268    7.40231493834909   14.60220278416175
C         2.99708802917959    6.08347680400967   14.54006851492397
H         2.95615049167623    5.54324326147446   13.60105701165552
C         3.45983717946258    5.45023758621665   15.68298449893062
H         3.79347872366634    4.42421563875078   15.62816956650100
C         3.49192623073787    6.12762691804133   16.88870239354242
H         3.85578701796730    5.63347111157247   17.77774661376198
C         3.05282314931013    7.44144162963991   16.95971387996689
H         3.07076690224088    7.96841050153777   17.90294237325325
C         2.59205990641173    8.07661400458569   15.82207267308002
H         2.24350436522133    9.10633140102991   15.86414869164076
C         0.05087506445791    8.61449445298492   13.65900991143710
C        -0.83548017352428    7.58133033223763   13.37024610527505
H        -0.46671866838005    6.72266335013938   12.81424156503563
C        -2.15222193918852    7.65293196432403   13.78588367758094
H        -2.83885101663982    6.85084554396814   13.55711046999054
C        -2.59004845686854    8.75823453229423   14.49791623742156
H        -3.61925623330729    8.82029432321932   14.81987394485576
C        -1.70970372971184    9.78358730008861   14.80025122274862
H        -2.05222336562900   10.64149740842379   15.36095777948551
C        -0.38989379796733    9.71425479776108   14.38527051902812
H         0.30093285025778   10.51831757645761   14.61946649157380
C         1.24476075552401    6.26011605892725    7.41320243205429
C         0.10905986559872    5.53993734786182    7.78141586805735
H         0.14277422624901    4.93214953146911    8.68260727057019
C        -1.04154390090378    5.61126492759553    7.01908190103799
H        -1.91701420949104    5.04724361892308    7.30608573776031
C        -1.07456185008715    6.42059107084538    5.89443506908805
H        -1.97608386687476    6.48333374430068    5.30284736377749
C         0.04245511301531    7.15471321914196    5.53421938839402
H         0.01107471461909    7.79379954033651    4.66355183339208
C         1.19999449891616    7.07883495046733    6.29151109706722
H         2.07511250392837    7.66062746643853    6.02144739704299
C         4.22632036576681    6.91148666515826    7.58241228841415
C         4.56531950444021    6.21272027928609    6.42470543967334
H         3.97826699994926    5.34132550437001    6.14159633020324
C         5.63176951904641    6.62767356708761    5.64973956246454
H         5.89024062481831    6.08552424311466    4.75143341012272
C         6.37136006426606    7.73834701372504    6.02886345869609
H         7.20731436099768    8.05942268128472    5.42459906574225
C         6.03977562345842    8.43315242874609    7.17821081250994
H         6.61449238556528    9.29908708696497    7.47305832223702
C         4.96871466496462    8.02188499942690    7.95623475646583
H         4.70024232397303    8.57742444993783    8.84686604029438
C         3.25960923768341    4.36649299998721    8.69355231882190
C         4.30930057954400    4.01206601838862    9.53558315149022
H         4.78461500642912    4.77385818811423   10.14605746870124
C         4.73511179969713    2.69899626031790    9.61164685810340
H         5.54420546405783    2.43129169285869   10.27588697828336
C         4.11910808339652    1.72747906870933    8.84016922599922
H         4.44655330372136    0.69999245143381    8.90219264049089
C         3.08196094864628    2.07404393128816    7.99139779502253
H         2.60145757849388    1.31740021230711    7.38763251016801
C         2.65136356968720    3.38815459906515    7.91563046673368
H         1.83506217399740    3.65754419150112    7.25307971543483
C        -0.73497688685931    7.74572778049526    9.75274562460873
C        -1.87383941847328    6.98103130941523   10.06685136012395
H        -1.78783361132248    6.20276364731432   10.80888033667049
C        -3.05974477733010    7.21365007353589    9.41002974034029
H        -3.92698741830730    6.61622389695150    9.65362494948175
C        -3.16221702805027    8.19608183232381    8.42823018298673
C        -2.03633963374627    8.96088130991236    8.12668898552537
H        -2.10442208854402    9.72714683414448    7.36788665142972
C        -0.84180826918858    8.75487840032314    8.77293644292471
H         0.03935374918948    9.33533086764898    8.54272028022721
C        -4.45635660039533    8.44038546250978    7.71889248382775
H        -4.98602478112507    9.27113047455306    8.18683199158843
H        -5.09775821882659    7.56363452841236    7.76323367522812
H        -4.28175978494604    8.70216641429877    6.67762953547938

