110
CSD_code = BABSED | q = 0 | S = 0 | Stoichiometry = C57H47ClNOsP3 | MND = 6
Os        8.10186171954763    8.44904606923425    5.96475312371943
Cl        8.18170601241235    6.47267172721527    7.30049856631550
P         9.44578235591426    7.81969773234683    4.20503392252924
P         6.41597142085689    9.41560449691991    7.14959273808564
P         9.85635925268590    9.26376830222365    7.36791290265301
N         7.73883984504847   10.06113972617137    4.81330548701088
C         6.76477871815027    7.54901075589321    4.66062034515763
C         6.97891712935047    7.73333079459916    3.35121076462346
C         6.12158919743820    7.24694934177626    2.26918859369687
C         6.65314539016003    6.70333234668925    1.10093241922996
C         5.82243382939602    6.22536529060154    0.10534703924474
C         4.44685437350889    6.28688475259557    0.25267649584872
C         3.90697235221972    6.82260735966976    1.41050718641573
C         4.73437824316615    7.29689998236178    2.40948693804945
C         8.22199519939714    8.56125381318273    3.00882491698803
C         7.89265421271079    9.93811084479758    3.47361547446217
C         7.64177289068586   10.98978938562080    2.60797805544168
C         7.19665486313210   12.20045937505880    3.11482894079005
C         6.93510481849622   12.28445290736261    4.47696786519815
C         7.18855885637764   11.19862565649733    5.29431709320377
C         6.79804273407746   11.19103206072171    6.74109076154740
C        11.05821221739301    8.52151102384165    3.71674869225814
C        11.18082980546835    9.81467588867122    3.21792144912920
C        12.43055754453762   10.34789631907216    2.95907446850073
C        13.57007396264190    9.59806884916360    3.19539561456537
C        13.45594786167580    8.30268748383788    3.67414728365485
C        12.20968272196935    7.76806813827817    3.93397990426058
C         9.56726918632277    6.15098871012798    3.49752935053927
C         9.02403092648158    5.07188436835675    4.18273340174335
C         9.04114543639478    3.81279032696859    3.60762955127713
C         9.59653627155402    3.62850566452435    2.35318816286470
C        10.14432658984354    4.70385716006638    1.67014051573860
C        10.13169261455469    5.96313147699114    2.23800035993080
C         6.03162641243625    9.40840514659096    8.93007906762189
C         5.40288274686296   10.47387569114469    9.56539448980963
C         5.07647335402567   10.37998491444723   10.90536961844343
C         5.35960667686407    9.22263202979261   11.61329062281424
C         5.97578378085879    8.15641594640331   10.98078273960043
C         6.31453862859150    8.24745871406006    9.64313414052154
C         4.73215469804698    9.17553995489550    6.49051885484768
C         4.19122140458211    9.93563505644248    5.45943857661413
C         2.95065631304854    9.61222894259241    4.93742537642853
C         2.24697213286600    8.52494496683417    5.42699332794492
C         2.78963956203620    7.75205409622084    6.44170236210039
C         4.02602530243424    8.07221223173999    6.96745622292697
C         9.60100358013529    9.09626468622182    9.17173423003109
C         8.92658110646049   10.09740025751310    9.86875845340339
C         8.68596786620027    9.97071988966771   11.22274431059194
C         9.08329323010723    8.82533137830687   11.89238409780272
C         9.71633131505523    7.80870925442451   11.19833747966625
C         9.97720783308431    7.94010965690441    9.84609639884846
C        10.43446912553443   11.00122446854927    7.25278924934716
C        10.98850086694435   11.71598856392029    8.31228016429719
C        11.41495573368868   13.01826261747931    8.12457981835437
C        11.30712352090465   13.62147717382594    6.88139458971605
C        10.78307860451208   12.90918889953446    5.81635921544317
C        10.35270260179281   11.60927891263482    6.00565807035678
C        11.46922056021363    8.40531820516891    7.17732644545246
C        12.68901997267474    9.07254242612094    7.22230201511662
C        13.87381067676401    8.36717971435300    7.10997214357421
C        13.85993105178558    6.99087239432061    6.96307769815482
C        12.64930974876648    6.32166532628290    6.90323736146335
C        11.46084767048820    7.02370160620504    6.99465641443053
H         5.90631740653483    6.94360579988068    4.95773768848242
H         7.72501886863375    6.62447146829410    0.98404968136244
H         6.25082210826782    5.79829231535876   -0.79064511228421
H         3.79955196213967    5.91627388584422   -0.52883780666770
H         2.83424986855272    6.87285438740784    1.53374205256986
H         4.31190673208672    7.72061276618679    3.30964494182121
H         8.51617954035691    8.52680425281649    1.95752369520858
H         7.79042797963128   10.85158187402986    1.54780829698541
H         7.02044869819175   13.04289029657578    2.46521783977065
H         6.52175739756643   13.18600562868682    4.90344950872027
H         5.97595935405396   11.88486049992897    6.93022322820207
H         7.65147158665192   11.46932537130435    7.37174029831289
H        10.29612818678624   10.40193987560406    3.01156949733845
H        12.51492712802226   11.35275682199341    2.57021476858910
H        14.54488460389799   10.01953402503922    2.99868900900075
H        14.34135263584404    7.70882789519870    3.84750560044939
H        12.11550959091517    6.75624065271628    4.30255985773579
H         8.58871806327398    5.22544264517892    5.16067130236553
H         8.61674444329130    2.97474696918584    4.14031894368499
H         9.60546305846759    2.64640831039032    1.90293569388171
H        10.57794787207273    4.55900288232421    0.69060657200624
H        10.56218174594655    6.80431768975492    1.70905603682493
H         5.16469397022698   11.37385380334863    9.01619731514915
H         4.59277727510727   11.21084038442650   11.39949804640028
H         5.09732279544097    9.15486106887979   12.65915643165405
H         6.19702569376346    7.25304948575032   11.52929911647517
H         6.81514815708550    7.42613239069919    9.14781175740496
H         4.73460996115659   10.77518950586463    5.05091975374812
H         2.53674712812672   10.20851959425773    4.13661814162132
H         1.28230120575298    8.27380420833010    5.01103497983764
H         2.25007491253271    6.89441564516128    6.81605289548643
H         4.46429253614357    7.46391406628682    7.74757998105221
H         8.60000915433528   10.99146390201611    9.35313522118986
H         8.17845062075028   10.76319942963364   11.75371804389819
H         8.89248805997187    8.72544238087814   12.95084255170422
H        10.01273578409846    6.90637605367767   11.71282943480353
H        10.46593774241070    7.14022290629720    9.31118815427076
H        11.09612579920025   11.25143156260218    9.28215138399920
H        11.84101038185467   13.56448890792781    8.95400261198787
H        11.63945262187768   14.63995191724457    6.74371331745366
H        10.70842279076323   13.36474315115575    4.83936018069938
H         9.95691889599945   11.04341512355774    5.17574343276338
H        12.72505053767462   10.14544045236851    7.34017701511179
H        14.81404060207863    8.89909161620230    7.14319524320267
H        14.78902941167512    6.44414930168296    6.88942810747349
H        12.62682141522822    5.24835315360577    6.77860791517513
H        10.51842908421864    6.49383242043587    6.93370543264459

