61
CSD_code = BABTUT | q = 1 | S = 0 | Stoichiometry = C17H38ClN2P2Pd(1+) | MND = 4
Pd       -2.91354662098499    3.58639152944539   -0.13180348364259
Cl       -1.83676463769963    2.82441855316328    1.70268857693183
P        -3.76340399596719    4.39272041268886   -2.11414352413811
P        -4.12540329648654    4.62743657106389    1.48220420753863
N        -1.54754735686854    2.38036971955197   -1.16145107289976
N        -0.22792951328298    2.59389211017433   -1.27883580381488
C        -3.11278615633431    0.49325283159989   -1.24674563615492
C        -1.75202630771506    1.08405628045169   -1.35549362287790
C        -0.52792015367738    0.45915840625881   -1.63105641046190
C         0.43079445398070    1.44919767353754   -1.56064827918333
C         1.90054637536977    1.40055873666635   -1.73140085003419
C        -3.14832725126168    3.46086991571710   -3.58960448691223
C        -3.63947764600339    3.94184760610313   -4.94992990943662
C        -3.07885032993051    6.08581936889600   -2.35653346495772
C        -1.58513369809617    6.07951547223897   -2.04029572983235
C        -5.56178563806979    4.58505771808285   -2.44773748076928
C        -6.27515400075644    3.25908175562883   -2.20587249997393
C        -5.52354842674963    5.72903749144905    0.97389580472418
C        -6.14963384403664    6.56440416420982    2.08418379487581
C        -4.92467483318277    3.38002387208618    2.56675928408590
C        -5.41690250294397    2.20984871285440    1.71903143631560
C        -3.07379060540634    5.66312994132074    2.57153631127619
C        -2.07094496497520    6.42969863122249    1.71510200060797
H        -2.05583803077662    3.51214849778132   -3.55037724429563
H        -3.42304465462859    2.41211881220738   -3.44715461185647
H        -3.10834367203238    3.40281857422816   -5.73146310438745
H        -3.45432489047888    5.00329461783351   -5.09500070981244
H        -4.70070258978231    3.75066250595024   -5.08268889866374
H        -3.26749863591198    6.43761777863819   -3.37309854791851
H        -3.60295479968259    6.75318682107703   -1.66621075025981
H        -1.20438024494949    7.09370681610372   -1.94526631552186
H        -1.02420877248903    5.58165758820838   -2.82930042239173
H        -1.41231819009687    5.55218991212572   -1.08816202271301
H        -5.95360446248743    5.35498989271614   -1.78131381981230
H        -5.70132985154350    4.93068321827554   -3.47375962237444
H        -7.35411935605782    3.38692714710591   -2.24598699182535
H        -6.00682361440588    2.86683801816845   -1.22173053494871
H        -5.99436835610359    2.52266514400966   -2.95569732581809
H        -5.15822632976854    6.38714554351952    0.18103125280783
H        -6.27764845687940    5.06716025120124    0.53776052798677
H        -7.07484240768963    7.00910725041444    1.72390397887940
H        -5.49285579329812    7.37402317679750    2.39020033399589
H        -6.38756695357365    5.96144989976030    2.95712564822366
H        -4.17245628974767    3.03265426916877    3.27832049452406
H        -5.74731242584711    3.83846151844918    3.12022534634931
H        -5.76346884579108    1.39682376642207    2.35243953260578
H        -4.58871236218878    1.83465560548453    1.10001721572234
H        -6.24219491909107    2.51244665266598    1.07494815946671
H        -3.70033479410292    6.33663860808713    3.15846870062739
H        -2.54465234644358    4.99396715192987    3.25306913403271
H        -1.41595590896751    7.03547335371740    2.33638792067654
H        -2.57874094691060    7.08516370660759    1.00750126323640
H        -1.45176779709769    5.71113677720762    1.16373640948904
H        -3.85777418310483    1.29295849766899   -1.11592786086648
H        -3.15491118092719   -0.17537969679088   -0.38653603081200
H        -3.35550386508290   -0.09015076598956   -2.13315236889348
H         0.17820502213255    3.50228923295746   -1.09684909768653
H         2.39895679356941    1.60671605988420   -0.78449273215553
H         2.23243080493678    2.14177476133898   -2.45703611630453
H         2.20164401824544    0.41483844264845   -2.07195621256608
H        -0.37063975989266   -0.57884688196899   -1.83532373797525

