92
CSD_code = BABVEH | q = 0 | S = 0 | Stoichiometry = C31H54N5PTi | MND = 5
Ti        0.72962797676066    6.22674267193684    5.20014358510175
P         0.33881367795811    3.52194453410514    1.70566647643835
N        -0.12371093105960    5.76427978451134    3.25179481056610
N         1.12252893953757    4.31267174681044    4.38433431855910
N         1.78701438147583    7.61044299390566    4.50527709982411
N        -0.94215962518787    6.81303381031100    5.81394949581217
N         1.59319894048545    6.06183949929118    6.87732540127501
C         0.48415688397189    4.60848152517659    3.26716828285366
C        -0.82792654883611    6.26473709467609    2.09648009250353
H        -0.25531686224979    6.03856457186919    1.17419206709801
C        -2.21771144826762    5.62908855428894    1.94602411545321
H        -2.14211982042061    4.54182989026434    1.90985973019523
H        -2.68358202505702    5.97157016630002    1.02476630295752
H        -2.85322445918776    5.90815914014608    2.78370294958906
C        -0.97340839180057    7.77854035111918    2.23494276155369
H         0.00210502586666    8.25528873437880    2.27890410403246
H        -1.50151599580903    7.98830812082493    3.16266397169549
H        -1.53380933378828    8.18556572878285    1.39571649975078
C         1.73976252937060    3.02530017956248    4.60682422205394
H         1.40009534754592    2.31671087967793    3.83368288944035
C         3.27229367924480    3.08739646174587    4.53913802415516
H         3.59780504153671    3.58148457488454    3.62655370821095
H         3.67923189483977    2.07789069682758    4.54039094191115
H         3.66921810207443    3.62588588734689    5.39517316770877
C         1.31470653351979    2.47000813891197    5.96958647511735
H         0.25164364095855    2.23511410951100    5.97566976730928
H         1.52451350762165    3.21288649104101    6.73759362050026
H         1.86804734878378    1.55974440629289    6.19148983028733
C        -0.57937128181792    2.08912316867771    2.37214846200179
C        -1.32427120894933    2.17382886092960    3.54710955024211
H        -1.28267432384856    3.07560730548458    4.14544829724499
C        -2.10881158145863    1.11104722279414    3.95459074970182
H        -2.67432175810407    1.18365334512032    4.87303502859312
C        -2.17437717751870   -0.04292918621405    3.19131626197725
H        -2.78202601040472   -0.87456623160533    3.51635068983985
C        -1.47194153408815   -0.11900629067223    1.99939023696438
H        -1.53884119424656   -1.00741081763179    1.38771758364258
C        -0.69485465563321    0.94499926010250    1.58277389879266
H        -0.17745024582330    0.89950769705877    0.63370326532990
C         2.05734468669254    2.93558052949728    1.47816730067532
C         2.95778871755441    3.93009590146764    1.09222436137286
H         2.61271672608065    4.95494717502975    1.02344945076551
C         4.27521640812351    3.62299409309025    0.81509723542651
H         4.96402314807125    4.40601429814158    0.53161245582874
C         4.71094168335716    2.31013814751479    0.89899809116721
H         5.73967511105237    2.06459876945019    0.68034545498620
C         3.82000774898968    1.31402049618423    1.26254522297811
H         4.15476992491003    0.28818734698851    1.32509089083066
C         2.50163256956850    1.61863679340723    1.54774726352508
H         1.82460228199015    0.82807983079955    1.83938604140863
C         2.51164199753782    7.49591976175698    3.26000823894110
H         2.60222897739540    8.48342625117781    2.77498261672635
H         1.95595923791482    6.84249167542063    2.57472970014685
C         3.93398104412610    6.91821127306224    3.40289552836564
H         4.45437012844593    6.96882918191178    2.44769139384563
H         3.88449554039982    5.87638103932760    3.71551540163749
H         4.50675212384313    7.48241316797508    4.13711513557820
C         2.08306432157228    8.83182310978920    5.21498024944761
H         3.16665787351354    9.05426235313773    5.19039152846480
H         1.78132681195948    8.69200401343907    6.26247420825940
C         1.33667683285681   10.06037465682753    4.66229587909344
H         1.50807683082174   10.92516838858558    5.29975569626928
H         0.27200642961534    9.84501253654956    4.62677662197755
H         1.67716492007111   10.30461391089151    3.65792810312580
C        -1.32726692531488    7.97809065926515    6.57467163316103
H        -0.41980327624954    8.53537910851993    6.83928394682695
H        -1.83527394051270    7.68734874953979    7.51541125149275
C        -2.27991400653946    8.93381624328475    5.82872686020788
H        -2.52527155955711    9.78271218146625    6.46333285314000
H        -3.20531064601575    8.42828016525887    5.55971210338289
H        -1.81156595946532    9.30079991648127    4.91897108207812
C        -1.97913949309495    5.80550553637474    5.75014601991400
H        -1.96718512598387    5.34163457469883    4.75267236457199
H        -2.97566137751364    6.25364982717525    5.89608141659059
C        -1.79510811804351    4.68372425431543    6.78937392010024
H        -2.50897971386936    3.87954267229683    6.61178430699400
H        -1.95092368649715    5.05998133444711    7.79984668664332
H        -0.77627594274990    4.29892197448065    6.70300873885996
C         1.04038596961902    6.19786565058213    8.21031863427391
H        -0.02868258620843    6.39351274153793    8.11287757108384
H         1.48614197436430    7.06615392815545    8.73030177011763
C         1.20930198316186    4.97347093109650    9.13281204585936
H         0.70524316215675    5.16267977467943   10.07839664677124
H         2.25710106060598    4.77403485409866    9.34343411836274
H         0.76877383129965    4.08758029434967    8.68026011417287
C         3.02641362234268    5.84051222902792    6.89269170296977
H         3.36134503758877    5.85835603606297    5.85080942723894
H         3.26990904097809    4.84468790253375    7.31432942473107
C         3.86974590840953    6.86615181339623    7.67735159310473
H         4.92365234062357    6.69683604172759    7.46511134754213
H         3.72360404045069    6.76551687097962    8.75013402076726
H         3.61308527156432    7.87976395420149    7.38144559191716

