33
CSD_code = BABVUW | q = 0 | S = 0 | Stoichiometry = C11H14I2N4OPd | MND = 5
Pd       11.21428656971490    3.44706758441040    2.00243213788865
I        13.27761328914511    2.16711390318540    1.06558726422993
I         9.34882274212358    1.78941457826956    1.25579807777932
C        10.96551198054333    5.55430411671536    2.17988381268431
O        10.70870996104511    6.23195071829477    1.16406795999043
C        12.28361315454595    5.13746069309337    2.63948088638880
N        13.42634729712426    5.46497337433399    1.89272950164507
C        14.63927171624865    4.95261318598883    2.11927800879256
N        15.46070473122965    5.28560075485178    1.11506384191715
C        16.80033948091510    4.79873783213892    0.95141491092127
C        14.74009399154519    6.00643978809572    0.21402695245712
C        13.47318927407843    6.12636587349603    0.69561762458743
C         9.95265238011594    4.82249334332559    2.95392002476082
N         8.62869373548416    4.92162135480699    2.50243255602295
C         8.26667867761550    4.91638822781581    1.22008365157683
N         6.93163550704893    4.88734876632970    1.13570082390117
C         6.18671246628612    4.75571929528208   -0.08387693182536
C         6.43359633853486    4.85163054747568    2.40014272062720
C         7.49189450608755    4.88003827909667    3.25646260886569
H        12.47788344202533    5.05484797200505    3.71305004330073
H        14.91216060810749    4.35753065724231    2.96750576248019
H        17.30270410854392    5.37101716294699    0.17471430391036
H        16.77346956031673    3.74500177785308    0.66252799977898
H        17.35221324150509    4.89316870010967    1.88589603433329
H        15.16476710838282    6.37546370767822   -0.69596452954475
H        12.59728879540543    6.59501983586878    0.29033974199195
H        10.02781461595382    4.81996381242529    4.04443941840736
H         8.94612597365320    4.94909779236152    0.38779022954800
H         6.18652215817573    3.71072454667463   -0.40514626618917
H         6.64496183526072    5.36123706286791   -0.86482744667515
H         5.16071042912568    5.08243359576246    0.07542890124832
H         5.38430927217871    4.80339505780182    2.60398462815409
H         7.51670105193298    4.85011610140370    4.32631474604404

