81
CSD_code = BABZAI | q = 0 | S = 0 | Stoichiometry = C29H49N2Y | MND = 12
Y         1.51259519671740    3.07111994882733    2.95501985163014
N         1.60889591198174    3.44269418575001    0.68608757619197
N         3.03324748693425    1.99764062886693    1.60127826200498
C        -1.34242426375225    2.52293718934535    3.71570243317975
C        -1.51707769561559    2.52537944862876    5.08158775261670
C        -0.59980326551877    1.59523230367882    5.66744433052379
C         0.14531785662818    1.01334681690704    4.66623678718275
C        -0.25328714447251    1.59550114307307    3.37658147279849
C        -2.20206410413756    3.21938917414265    2.69895587447594
C        -2.51695302535605    3.32173271016994    5.85806546465757
C        -0.52146422841085    1.29902167987488    7.13139985835589
C         1.10173343172112   -0.13611740921714    4.81311953259800
C        -0.43123203608638    0.66268967024099    2.17346360022564
C         3.03015334725584    5.78709055381927    3.15905665076277
C         1.77693020436115    5.64000747334586    3.76756997807916
C         1.88016024778938    4.58406871983191    4.75638521051741
C         3.25693540159671    4.12808720876939    4.72658502438270
C         3.93493025143296    4.86322851711122    3.74539392851608
C         3.42103797797067    6.75830119173694    2.08693695347739
C         0.58554735725427    6.55682017433897    3.66718565643541
C         1.03138543570607    4.54767488415640    6.00831689793812
C         3.84552391007113    3.22663638206834    5.78080184012248
C         5.37854308344947    4.76125476600789    3.35673117558821
C         2.64209107373851    2.62978332487444    0.50139746853816
C         3.35030717210385    2.48529296264661   -0.82963047436926
C         4.47119146788208    3.52206800187981   -0.94293669792140
C         0.99179391954597    4.17933728726030   -0.40522363122803
C        -0.07619768752943    3.32215660103547   -1.10186259434879
C         0.35559658586774    5.44812129339201    0.16289919769094
C         4.10692765907259    1.01697520042606    1.59632476037672
C         3.56781958814839   -0.37498257202728    1.23210190075751
C         4.74221946102973    0.98444427881542    2.98659586798480
H        -3.09263572285556    2.62333663146281    2.48462612797333
H        -1.66271368789258    3.37066357744426    1.76232892832961
H        -2.53911890710739    4.19030216407835    3.06229885800973
H        -3.37216019444938    2.69904349484848    6.12623971477216
H        -2.88585539395911    4.16388050453638    5.27590953457040
H        -2.08514003614599    3.70278696811083    6.78296150121217
H        -1.31463919595839    0.60790386766601    7.42216810935711
H        -0.64160556559413    2.20537448936251    7.72376286360869
H         0.43168942127968    0.84090529652690    7.38895280608824
H         0.55538686798606   -1.08240175612499    4.83048454553391
H         1.66453772357942   -0.06769665408314    5.74425232724243
H         1.81029288066009   -0.16967643168804    3.98395266790759
H        -1.25875410345632   -0.02433058239030    2.37673478289070
H         0.46001437048936    0.06356496144238    1.98486325328786
H        -0.67032291703706    1.21128242956436    1.26202731584777
H         4.30216054704956    7.32318558402485    2.39354953331013
H         2.62279755114917    7.46939751332274    1.88586103251768
H         3.67054571862010    6.24043817695580    1.15794796859592
H         0.57857535399085    7.24830688085686    4.51385099698895
H        -0.35298336573782    5.99862956888375    3.68601473847037
H         0.61249896206869    7.14955216717953    2.75570438119292
H         1.37963891597210    5.31919797507645    6.70199663753836
H         1.10312623493093    3.58637215912645    6.51265209806944
H        -0.01539658005423    4.74419420397099    5.78656207764025
H         3.97065854943553    3.78171503817799    6.71420335214328
H         4.82233326092116    2.85040788907838    5.48552239850441
H         3.19639682443429    2.37272473796354    5.98628966598953
H         5.84926560209804    5.74427040364851    3.39662868315326
H         5.48681689218145    4.38717875571067    2.33604540067194
H         5.92445981794225    4.10288583274001    4.02890390771725
H         2.64399704313413    2.62051031492880   -1.64829193310389
H         3.76882089896453    1.48395256839644   -0.92667916677110
H         4.98350611946435    3.42162272547004   -1.89799588914777
H         5.19765358548894    3.39056568464052   -0.14403468071239
H         4.07030102268214    4.53056074381062   -0.86871790399851
H         1.73617450483256    4.48653059655502   -1.15388335987752
H         0.34711481495368    2.38139359147074   -1.44755193609674
H        -0.49044368808949    3.85423455023912   -1.95533097357885
H        -0.88398363228100    3.09640253887359   -0.40846422834828
H         1.12663105328473    6.09824598254040    0.56667403933783
H        -0.33947208435946    5.19086499590894    0.96379147503707
H        -0.18406837777706    5.98323508322332   -0.61578949336969
H         4.89339761052708    1.28661513838670    0.87668353025320
H         3.04679016868132   -0.35121188860990    0.27727572773139
H         2.86720825624543   -0.71438991497051    1.99250906924840
H         4.38369085418492   -1.09145812274198    1.16788311780367
H         5.21415741030147    1.93955051295055    3.19940129309362
H         5.49437643301802    0.20008726659772    3.04137958247020
H         3.97759760482313    0.79635804507481    3.74207361115707

