29
CSD_code = BACBAI | q = 0 | S = 0 | Stoichiometry = C8H4HgN10O6 | MND = 6
Hg        0.00001516726321    0.03663288842845   -0.00966186479969
N        -1.66025917314799    1.99255461665414    3.97253837996232
C        -1.19834424031696    2.25255540856844    2.73433363533206
N        -0.87263727321732    1.33493653798388    1.88318929695188
C        -1.02984926424265    0.07553708297441    2.36056301544242
C        -1.49790678665913   -0.30937468301035    3.62590803429900
C        -1.86977259019094    0.71202560914882    4.57294745457667
O        -2.29254611118525    0.64496873969690    5.69298637872066
N        -1.44781458900216   -1.65818403469347    3.59948207922234
N        -1.01085036129904   -2.04733807362486    2.48075700893047
N        -0.73252781853311   -1.04053182693408    1.66864905690351
O         2.08843667897694    0.12624964489690    0.96244977754053
O         2.11304177988540    0.43655317550512    2.17820340409095
H        -1.89146458939919    2.76815619777069    4.58473526154040
H        -1.09878419602772    3.28937163242089    2.44360499252976
N         0.73237896075706    1.07502101535387   -1.71274509844942
O        -2.09369466414808   -0.05457842583460   -0.97339838219195
O        -2.12317476471927   -0.47394242192988   -2.15591679173819
C         1.03051515661865   -0.05800034114841   -2.37616157082652
N         1.01031608214178    2.06112272860965   -2.55001879573805
N         0.87379260314749   -1.30492719798065   -1.86718502857325
C         1.49862938379492    0.29507148629636   -3.65077568868247
N         1.44766332952653    1.64409189999629   -3.65847586850752
C         1.20033668041488   -2.24377332320709   -2.69459880269943
C         1.87154203010835   -0.74986904514803   -4.57142823058004
N         1.66288398625858   -2.01488317416229   -3.93866583795580
H         1.10112167542122   -3.27287015575095   -2.37754321291351
O         2.29406325869105   -0.71096592733304   -5.69288311968756
H         1.89488964908200   -2.80561003355219   -4.53088948270215

