94
CSD_code = BACBAJ | q = 0 | S = 0 | Stoichiometry = C26H61N4Si2Y | MND = 6
Y         0.90497126721782    2.77733373620392    4.12150424867486
Si        2.81929557120012    1.44313948195661    1.17082667325028
Si        2.82153528470650    1.20707200150412    7.16591811223051
N         1.24530574698674    4.95450102619756    4.77124754238336
N        -1.16496291572082    3.66791386587217    5.80012864718476
N        -1.45164230746269    0.87695487458273    4.78219448900635
N        -2.08595682586479    3.34039689793497    3.08602432305969
C         2.66730421718400    5.57138881211812    2.87784347693484
C         2.17550035742878    7.27346945998079    4.60314043600119
C         3.68521738074010    5.34051912254934    5.13345652493979
C         2.40034216483092    5.76122321175616    4.38081695163142
C         0.71424905556644    5.34331144818124    6.06179282047041
C        -0.19869833640089    4.29135888844876    6.71250648733184
C        -1.95168943352045    2.66086337784961    6.51222707920786
C        -1.54496635461380    1.21510377352440    6.20524334938298
C        -0.91312675291511   -0.49068424774320    4.63003604441359
C        -1.79295357142839   -1.61254997533166    5.20598897007323
C        -0.58340059937261   -0.79177361358154    3.17015598896211
C        -2.71542765574716    1.07633946982959    4.07171266779144
C        -2.63076802530517    2.00623382377635    2.84927589790836
C        -1.85777923490622    4.04538710485697    1.81188716210108
C        -3.11910147562261    4.30437955192765    0.97072650147694
C        -1.11148012067365    5.35765528345315    2.04621200348748
C        -2.87963154748198    4.11877571568725    4.03596966034438
C        -2.02731604952078    4.67421256915845    5.18583019492149
C         1.24600293790924    2.31987020402750    1.72300971281491
C         2.85127226621151   -0.38371505516852    1.75122766649741
C         3.05230846544842    1.37779587042741   -0.73695109990941
C         4.39160321185658    2.30035538083800    1.85363038764430
C         2.38300330769795    1.24019506539567    5.33692572871261
C         4.22496331026514   -0.04363630329798    7.57219243476714
C         1.38360787572682    0.66405747081874    8.32480057419813
C         3.43099235376610    2.89284237933342    7.83419403720823
H         2.83841664432318    4.51956779926456    2.65134743287207
H         3.55063118297198    6.13683052307981    2.58593938723261
H         1.82421079764956    5.93235671450694    2.29316862516897
H         1.23950097830791    7.58329366301310    4.14296749136319
H         2.98697585126267    7.83450393407025    4.14556922138895
H         2.14721253531157    7.52591947359249    5.65949741690451
H         3.60990444838546    5.56836533070886    6.19365993761541
H         4.54907346159561    5.86944431486191    4.73662240167742
H         3.83885598805254    4.26670961505896    5.01950734044984
H         0.14153204750548    6.28972684104989    5.98309751093566
H         1.50984996035656    5.54143688192635    6.80492323093581
H         0.42344418780623    3.48778768401758    7.12034668731434
H        -0.72726684898037    4.78037685142300    7.55199484483146
H        -3.00956533346932    2.79888976153132    6.28117986692004
H        -1.85966556387212    2.79182130051927    7.60028178780616
H        -0.55945188983314    1.03011617076543    6.63619835057625
H        -2.27716902760288    0.57445807109942    6.72578684856502
H         0.02815614300636   -0.49905162953954    5.19066180525600
H        -2.77548609483215   -1.64275536908778    4.74049137638463
H        -1.92189035003281   -1.50894569443762    6.28003801657155
H        -1.30749111894188   -2.56709045938932    5.02146458134688
H        -1.48269022221324   -0.91098239865544    2.57022814619382
H        -0.01757284664046   -1.71837358059918    3.11245592485715
H         0.02552766131655    0.00776640250944    2.75408072076419
H        -3.47599144280675    1.44597560021880    4.76313371048355
H        -3.09846373268448    0.12566066421072    3.68692319549301
H        -1.99292451169803    1.53121082292342    2.10090519540383
H        -3.65656446917650    2.05571317346015    2.44151609233575
H        -1.20473527898525    3.39262099127263    1.22444764379120
H        -3.58453859586384    3.37511274466224    0.65218826667566
H        -2.83883113170319    4.85941943507239    0.07945405127104
H        -3.85670635446701    4.89235244548849    1.51259735761891
H        -0.69852235192013    5.71094145107099    1.10377292167328
H        -0.29635793644357    5.19640074963797    2.75350461546275
H        -1.77379354873539    6.13099958579108    2.42984305931036
H        -3.69283138579702    3.50468803432591    4.43010493119319
H        -3.35764903440086    4.97636120057608    3.55118382163360
H        -1.37811633353440    5.44678664680467    4.78268696945046
H        -2.69879219654162    5.13456405305049    5.93238546205260
H         0.40010472112326    1.75362205566771    1.31012521132371
H         1.21827595803150    3.29143514741202    1.21095107268940
H         2.74112359278474   -0.46222056542926    2.82769612275180
H         3.79030394462993   -0.85810513471565    1.48297696171342
H         2.05463726840322   -0.96015102703578    1.29115174016829
H         2.23054599707195    0.85354803926882   -1.21569534054440
H         3.97043982065053    0.87061243188517   -1.01769425477993
H         3.08954375389366    2.37736293264478   -1.15961955988253
H         4.56309688621102    3.25642295934572    1.36882114410925
H         5.27280486097863    1.68926539672139    1.68244051759377
H         4.31906944704425    2.47865349542191    2.92373601833561
H         2.08575265392933    0.21563947136296    5.06831870022786
H         3.34440547626835    1.38528825087340    4.81915023899770
H         3.91882969626584   -1.06199801214608    7.35011885177954
H         4.51674878276341   -0.01117853918277    8.61808803217068
H         5.11145274555222    0.16297173600974    6.98006984214969
H         0.64055566627192    1.44393647759924    8.46513248982248
H         1.77441013338814    0.41897915402999    9.30792856601435
H         0.87809072888814   -0.22332626945986    7.95476918999101
H         2.74966493060764    3.69796155232991    7.58052326730616
H         4.40257121986404    3.14470762947902    7.42201874052567
H         3.53087386049633    2.87320234493830    8.91574050466061

