71
CSD_code = BACCEP | q = 0 | S = 0 | Stoichiometry = C25H39ClO5Ru | MND = 8
Ru        2.17872539932456    2.94809163267399    4.30347793223995
Cl        3.47234862109832    3.85493092469225    2.59290639138002
O        -1.32368006192959    3.12062888763474    6.23614207381544
O        -0.93887779040273    5.28402694319020    5.76347310969693
O        -0.57444364496403    4.63361284497096    1.51247536111170
O         1.11251958631200    5.98308035630210    2.15729079156092
O         0.96438100478336    0.06053691739813    5.39630852804808
C         0.31144121024960    3.74720634340497    4.61782673616601
C         0.68811926279067    4.12051873107260    3.44593816522202
C        -0.72984631029521    3.96829904482885    5.60979423882840
C        -1.94294884731097    5.64998165757670    6.69891431968406
H        -2.92544309082153    5.32973598548719    6.34480753667952
H        -1.90012575891442    6.73333518692812    6.77697367739579
H        -1.74900783390024    5.18446993550223    7.66835292056601
C         0.32619730212282    4.90728701411278    2.26612662132512
C         0.87613111926862    6.81222811031902    1.02972327581923
H         1.11619441291505    6.27315870059129    0.11085099937652
H         1.52949545247323    7.67288760213017    1.14660654184455
H        -0.17132560501209    7.12075049496743    0.99732128815453
C         2.18003971675122    2.01506155041758    6.31078708650414
H         1.56256952303838    2.22248654904585    7.17111418901825
C         1.94469084237491    0.97264255877989    5.38819347804285
C         3.04173118135531    0.95231482736113    4.43584290604452
C         4.04090303803838    1.87823250223041    4.93046811255912
C         3.45441268185947    2.61322024904037    6.03353378225655
C        -0.07256677507505    0.20216149945778    6.35659922461784
H         0.32506343569560    0.10506684439050    7.37095352994192
H        -0.76505588184058   -0.61335100038894    6.15903550099828
H        -0.58991471969424    1.15880147050357    6.24952084270425
C         2.92360592374507    0.07103627956394    3.19043421482070
C         1.58350133994353    0.43216330903046    2.51160192270635
H         1.57316672405053    1.48747191157667    2.22253178710985
H         0.73579134834910    0.22720127450233    3.15858618198717
H         1.46595085005300   -0.16013422657919    1.60743745781852
C         4.00539909045459    0.29843022625895    2.13127366518312
H         4.06918273101077    1.35327094230378    1.87329760678284
H         3.73257713404724   -0.25035266803392    1.23208168647234
H         4.97653525919485   -0.06390557004661    2.45047962913869
C         2.88224392579299   -1.41607557184143    3.57236812235125
H         2.66686602096452   -2.00555492987283    2.68420278956890
H         2.10321049195713   -1.60256613099223    4.30500513331683
H         3.83276800136960   -1.74961673432018    3.97663154340196
C         5.47740839357413    1.92697319780605    4.48988747872352
H         5.86493945786880    2.93413254841317    4.61388275192583
H         5.53466280843074    1.70468336961203    3.42824954100972
C         6.43614223820354    0.95499781283703    5.23347928830234
C         6.01773655425900   -0.50367862105753    5.06270453126693
H         6.05525591800628   -0.80518365206259    4.02007223326562
H         5.01149921629510   -0.65351658943721    5.44555027153099
H         6.69363152424770   -1.15103693158410    5.61848096912466
C         7.83100250134904    1.15343566970683    4.63365401202641
H         8.16808027328867    2.17861414271811    4.76893425544542
H         7.82753400950577    0.93524589201803    3.56834622650984
H         8.54751890852136    0.49195445369697    5.11564648856595
C         6.48864273616547    1.24070742419609    6.73298929829623
H         7.15817914533702    0.53541058850307    7.22181714590265
H         5.49973443316303    1.12785219156002    7.16975635713475
H         6.86157916003847    2.24130675905551    6.93307298996085
C         3.88095963221198    3.84118644882950    6.83548845908723
C         2.71493948819829    4.85262100109447    6.80471749480706
H         2.49332408002991    5.14747159001384    5.77434002920923
H         2.99815421730799    5.74775261342033    7.35402742005342
H         1.81338091576271    4.45543783367435    7.26303470477327
C         4.14078338264344    3.46266933978800    8.30125636919458
H         3.28665336860314    2.94157693119805    8.72698664072106
H         4.31245955338292    4.36603013376708    8.88215452117590
H         5.01472911465227    2.82724943266067    8.39958632632500
C         5.09004840212820    4.58630207110058    6.26470304093039
H         6.01095863339587    4.02756307134509    6.38791360325562
H         5.20726488218537    5.53058805607288    6.79279161916505
H         4.93077074007808    4.80838074486774    5.21108503006479

