71
CSD_code = BACCAL | q = 0 | S = 0 | Stoichiometry = C25H43ClORu | MND = 8
Ru       -0.47985942743222    4.18527254882090    2.81075789266526
Cl       -0.61491977334959    3.97564943633936    5.14253016262901
O         1.60006106569433    3.68513570142793    0.25416085951941
C        -0.72519168800692    6.07437844495190    2.00872004618737
C        -0.79128251720543    6.20585281993491    3.27198397024654
C        -0.79630499539702    6.75210767926180    0.69326775899915
H        -1.36214768601872    6.14587122337687   -0.02064311765565
H         0.21963242815068    6.87672098378455    0.30496301389976
C        -1.45975939998431    8.12352871840909    0.83057440930644
H        -2.46897232457544    8.01602561549777    1.22084789113191
H        -1.51026944231927    8.61746233362047   -0.13763802406805
H        -0.89171287379591    8.75042036723244    1.51283558186063
C        -1.04964483404165    7.06209621983298    4.45631372550751
H        -0.79824477335626    8.09740624123149    4.19850064450369
H        -0.42628776411899    6.74514200581048    5.29688794520151
C        -2.52104791089198    6.95916877823486    4.86430854382295
H        -3.16916495034585    7.26010513359797    4.04282344401218
H        -2.71926696197920    7.59809560348798    5.72150655630278
H        -2.74921914472617    5.92964628201515    5.13455003135662
C        -0.74578983559075    3.15519460238674    0.87340071046554
H        -1.24208679522057    3.45627306348537   -0.03605840472173
C         0.64103922238651    3.23355617305949    1.10569210057348
C         0.93499469452097    2.58269365340906    2.36380248203460
C        -0.28681712683364    1.95721176828692    2.80521139301981
C        -1.35128202859606    2.40333455464651    1.93906059139490
C         1.18535221716475    4.06450976368457   -1.03965969065345
H         0.70127531444394    3.22976628473388   -1.55757636306344
H         2.09391532707170    4.34249230140515   -1.57156688269702
H         0.50474065897844    4.91875697046381   -1.01287861604501
C         2.34667176138612    2.65062980764588    2.93790846369593
C         2.77988251523443    4.13052315290799    2.89804687158317
H         2.05460119018930    4.74392629965499    3.44508602826339
H         2.85690621346855    4.49446227452975    1.87842102474010
H         3.75034397695868    4.24563426224797    3.37540029946241
C         2.47319516840106    2.21096683401223    4.39950571583122
H         1.72891418655204    2.71159865452040    5.01495456840969
H         3.45787098253685    2.49330772044246    4.76814311750884
H         2.38236722208299    1.13628864714077    4.51309697410375
C         3.30156445122929    1.81930702442248    2.07018959287348
H         4.32136389516931    1.94031595239823    2.42912068463338
H         3.25806559669273    2.14452368895952    1.03430101047927
H         3.04757047622958    0.76220309312216    2.11673121093609
C        -0.38147755314553    0.85555108929581    3.82237541194867
H        -1.35344305841223    0.89114312187681    4.30449645108883
H         0.34631192917395    1.02710560739250    4.60861906450702
C        -0.16401055364396   -0.57780348646109    3.23172836107040
C         1.02536343870508   -1.25216809065811    3.92366881441486
H         1.11585749868686   -2.28560271327926    3.59356617886419
H         0.89513473020123   -1.25130134775329    5.00369931810590
H         1.95635118864591   -0.74539372451882    3.68328895731587
C        -1.40416991344436   -1.43568417504807    3.50522335259038
H        -1.24828405609800   -2.45202670670871    3.14788714776486
H        -2.27944014083994   -1.03582996266232    3.00009360545783
H        -1.61023185655806   -1.47915034253243    4.57257303188761
C         0.10390879828959   -0.56005287402352    1.72451674503207
H         0.99600196982560    0.01625542772190    1.49378071157115
H        -0.72898237494548   -0.12466511303942    1.18000525860421
H         0.25205203770672   -1.57718751875994    1.36563723350617
C        -2.86451713321663    2.21802303966609    1.96708387399181
C        -3.41159229603241    1.88915650815736    3.36063348647052
H        -3.23867200591855    0.85310767285616    3.63193638474522
H        -4.48738051734347    2.05290009211878    3.37727498690138
H        -2.95772144107861    2.54229772110205    4.10519063983597
C        -3.29136411660975    1.13839071686271    0.96328634209345
H        -2.90996245046238    1.36176371722013   -0.03135704258890
H        -4.37722092013220    1.09202758637747    0.91320291709365
H        -2.92358140077566    0.15947881130088    1.25926165888112
C        -3.51324819143113    3.55507443065655    1.55427506396878
H        -3.13325968413768    4.36298840610787    2.18711725983831
H        -4.59156396109639    3.49718371488807    1.68360545629041
H        -3.32051427661920    3.79925570729091    0.51324511047034

