40
CSD_code = BACDAN | q = 1 | S = 0 | Stoichiometry = C12H15N3O3ReS6(1+) | MND = 6
Re        5.21903282782952    4.91536715033133    4.77299173878987
C         4.76708107683774    3.03773078486697    4.50803603778226
O         4.58455019342888    1.92570364974607    4.32884945839897
C         3.87738595336890    5.46599200756296    3.47594086118633
O         3.10730112850937    5.77471872322713    2.68766652313698
C         4.02320325403806    5.14765860302124    6.28910342255452
O         3.38497135017026    5.32260724308135    7.22156358446980
S         7.14802397660008    4.28250537672457    6.30317113609877
C         6.76768630574495    3.07715584979262    7.38110518330911
N         7.70319923978644    2.50396620960343    8.13913794248202
H         8.65435447185277    2.84103599479815    8.11322694288879
C         7.26657783598563    1.60592244815206    9.18554573988697
H         7.20495812144125    2.14694233860474   10.13867185795981
H         7.97928433186651    0.78593204827314    9.29308445713248
C         5.89616599750004    1.09477671606840    8.75755790926740
H         5.22294306275612    0.92986675761307    9.59378152208172
H         5.95999259994240    0.19031696670494    8.15329737443594
S         5.19170590610028    2.41061827844480    7.68961801635974
S         7.04045917427091    4.67622003570798    3.00379922929272
C         6.92205654887087    5.76277421492218    1.75787966426766
N         7.63642903613927    5.61380816044417    0.64134395175366
H         8.29212770148700    4.85094634125839    0.55928451382068
C         7.61560456441229    6.68585449187498   -0.32813538991121
H         7.65863572870959    6.27522846966144   -1.33862380768656
H         8.48157905615510    7.34415153418888   -0.17752073483385
C         6.31100808754181    7.43474530412949   -0.09032948109455
H         5.47871100670844    7.00648847212974   -0.64872599658622
H         6.38503743242283    8.49828023676205   -0.29833703417075
S         5.94300826363180    7.20611491003953    1.68744769146572
S         6.15091595210030    7.25812066163684    5.08009343247588
C         4.97255926140501    8.41996336135312    5.22809413940132
N         5.28193315326878    9.71001954166491    5.36979181665037
H         6.24510339983671    9.98890141572495    5.48648515718086
C         4.20821752139310   10.62510213940486    5.69042523634333
H         4.38334655914595   11.58792303158229    5.20647444943073
H         4.16184450389103   10.77986450938619    6.77611538101075
C         2.93096382973267    9.97177174031033    5.17685570786065
H         2.71133031774119   10.24315057295913    4.14483641751746
H         2.06669809235277   10.17804099383865    5.80144373753245
S         3.25531317502379    8.16401271440249    5.20405221005788

