47
CSD_code = BACGET | q = 1 | S = 0 | Stoichiometry = C14H27N4NiS(1+) | MND = 4
Ni       10.22108935450471    6.98719966752959    3.77715367415108
S         9.18567206767027    8.29071443873353    5.12124369733004
N        11.11518972877108    6.16881026619804    5.26701488770873
N        11.33165461656352    5.57143453538232    2.72229280877683
N         9.35748785268745    7.83724256386465    2.32543943790103
N         7.74761056077086    8.65885486664544    1.08286268258559
C         9.94926841771581    7.85607643868326    6.75500263376938
C        10.52974068027522    6.44721929440802    6.60259182576083
H         9.69869938964962    5.75063115191002    6.73892342895633
H        11.27534760251383    6.24367793484879    7.38384303985676
C        12.47435847694957    6.76186472381558    5.15385011052413
H        12.98531081871893    6.67300053703590    6.12095699997243
H        12.36170085920731    7.82794370254652    4.91990495447327
C        13.35831181535056    6.11932344158131    4.08626597889709
H        14.27630357811751    6.70604623401281    4.02135135180872
H        13.65161970273553    5.11382090925845    4.38741634780364
C        12.71446569313674    6.08827709669626    2.70189452534387
H        13.33387172002916    5.46133345988006    2.04486451002357
H        12.69038735427471    7.09911675680361    2.28145857892168
C        11.17310902859755    4.70734148634820    5.05507924226317
H        10.25948267102524    4.26808133037883    5.45968398482105
H        12.01377337693169    4.28618499891663    5.61763839454168
C        11.25359348194334    4.35679283678521    3.55306697768429
H        12.10388933548302    3.69598712924093    3.34129032800748
H        10.34421133160645    3.82284199499720    3.26936216207069
C        10.93249333466439    5.24759937868669    1.35038722192307
H         9.88412265805770    4.95310890043128    1.32615697780753
H        11.53949301864839    4.42747224541301    0.94946268066226
H        11.06377731866683    6.11849429451629    0.71061644489516
C        10.96198065687139    8.92522289338147    7.15266566183610
H        11.48715863125570    8.63129234088441    8.05969737041792
H        10.43793888077792    9.85718121208092    7.34916297596290
H        11.68914669398446    9.12151463357516    6.37083681033287
C         8.81932061204873    7.83027632420767    7.78377988893106
H         8.04818207771832    7.11844841758770    7.49832334111657
H         8.36026076986011    8.81270099646398    7.85404379917871
H         9.20721108354621    7.55826252352718    8.76345192000245
C         9.91623573791215    8.60535591668043    1.34585178267360
H        10.97430018358569    8.76095926571201    1.26125255543753
C         8.92044859381325    9.11730144503223    0.56791393080120
H         8.96208921057307    9.75886365764102   -0.28750278793070
C         8.04749799260516    7.89594556025538    2.13945791880462
H         7.31582666455341    7.41572884575664    2.76202043481117
C         6.43552152913252    8.96264578944314    0.58343073730844
H         6.33354662227902    8.62073382681529   -0.44748679691300
H         6.26321483062670   10.03924792521590    0.61186077451277
H         5.68758338359162    8.46862581019299    1.19946379347489

