53
CSD_code = BACGIX | q = 1 | S = 0 | Stoichiometry = C16H31N4NiS(1+) | MND = 4
Ni        3.69523439607488    7.04596656343643    3.23316762092210
S         2.00585966975281    5.77991097096594    2.87717785167833
N         4.85543382256896    5.58327263917427    2.82626615271489
N         2.51762275813869    8.47814624855932    3.65573606030685
C         1.95077205184268    9.19049596353756    2.69308533057785
C         1.08699783026954    9.89340517583837    4.58365774775324
H         0.47201032608497   10.47191658655291    5.24025444015252
C         1.98268481700750    8.90140958240316    4.83944137421450
H         2.25766668210604    8.46996021844059    5.78148946536355
N         1.08334051083617   10.06297525751040    3.22964419701324
C         5.15355074345163    5.07537390860210    4.19042252739887
H         5.53857284681478    4.05005768910040    4.11470736610728
H         4.21386921269615    5.05581762611143    4.75802968202769
C         2.25114942560468    9.01401525361153    1.24023130440016
H         3.07015929118861    8.26446102327525    1.19603988601657
C         2.79545592703730    4.20290719950474    2.29690530248116
C         1.03221100817941    8.44163330307183    0.51239327710782
H         0.72884725101849    7.50636053436597    0.97582628651805
H         1.27863685161348    8.25366303661464   -0.52865215983827
H         0.19809503516824    9.13782711339103    0.54526617096485
N         5.48514397624004    7.96852510245594    3.69499943616561
C         5.81849263413334    7.39920834223949    5.01757813721609
H         6.67234458560738    7.94163866309392    5.44770510277668
H         4.95425140278568    7.55075743870363    5.67472125833063
C         5.53358956912654    9.42844088725721    3.78892027342753
H         4.87196427657342    9.76901409408185    4.58366080129926
H         5.20758012630552    9.87307843116789    2.84992957485955
H         6.55018713083533    9.77472802342743    4.00896816453266
C         6.17302386262672    5.91482147952525    4.95922213608374
H         6.21149697999394    5.53497243680949    5.98166672379227
H         7.17051453929495    5.78294670914402    4.53969964054569
C         6.08889525343835    6.08366833771291    2.18619808419069
H         6.90858088986874    5.37817134437538    2.36270028543682
H         5.92258072751955    6.12243810881804    1.10790643735182
C         2.07794068787511    3.79339638639305    1.01128923832029
H         2.13486574888476    4.58405835299068    0.26639484335758
H         1.02880399986337    3.60138782979032    1.21918582151371
H         2.52086931407766    2.88765306107186    0.60168565928812
C         2.71514746876748   10.32451343349657    0.60269843350483
H         1.90304928715671   11.04698303578864    0.57283261190505
H         3.03980308630025   10.14497287192801   -0.41830755386604
H         3.54358793794239   10.76114211214671    1.15621144301351
C         4.26257590545098    4.51714671660450    1.98368158318454
H         4.87741367947743    3.60838215859621    2.05232113676688
H         4.29862035440746    4.87186064244390    0.95011042079728
C         6.44209030513826    7.50517931868318    2.67642574626956
H         7.46703566698530    7.55214047977788    3.06575459811131
H         6.38188376986083    8.19341057406223    1.83052154460640
C         2.59655065204736    3.11355531196253    3.34630734018820
H         3.05585113407162    2.18458393301012    3.01294413596710
H         1.53229701731258    2.93748184056118    3.48164221787266
H         3.01033653576699    3.38100314435511    4.31345515008725
H         0.50846103681898   10.71546350345382    2.72067968922550

