96
CSD_code = BACLAU | q = 1 | S = 0 | Stoichiometry = C49H40N3OP2Ru(1+) | MND = 6
Ru        4.81584871569858   16.79967980196682    2.04156575386183
P         4.88667703040557   14.66831308433493    1.09254163057929
P         4.71701935526181   19.03929776481256    2.75377208007967
O         3.19953987329736   15.88451250860236    4.38673434586682
N         5.95620833992663   17.49143509573433    0.47609861455303
N         7.98021696919254   17.90508221943799   -0.34258726334431
H         8.98134700600612   17.98252271754637   -0.39950053792818
N         6.72357617572691   16.58953479563354    2.82205609134368
C         3.84198286467473   16.21710658350768    3.49323135737716
C         7.25628355337961   17.46680459449917    0.72400530579631
C         7.08578270038768   18.23227409689122   -1.33176090159618
C         5.80389316103358   17.96571335477032   -0.79854150670266
C         4.66047842993873   18.18536868932713   -1.56162277501464
H         3.68535204765436   17.97279768225261   -1.15520386820481
C         4.83636748992304   18.67115615736142   -2.83776624702225
H         3.97363123646744   18.85464931419474   -3.45865169322689
C         6.10816206581470   18.93378464774634   -3.35745192827057
H         6.19396475211352   19.31334285913912   -4.36359809323578
C         7.25326447836807   18.72013222967116   -2.61848283740524
H         8.23329138617550   18.92098705700277   -3.02134212734173
C         7.72303646045411   16.99292840280113    2.00021459396167
C         9.06611373538496   16.94621723175854    2.36962438761016
H         9.82550251860319   17.28397804765758    1.68223638073635
C         9.40382288266708   16.46835154329324    3.61976478011942
H        10.43387711111747   16.42316314943440    3.93412181657541
C         8.37964367569838   16.04415549082820    4.45882020699199
H         8.59285673062947   15.65753320853483    5.44178491471726
C         7.07212274210199   16.12182697431783    4.02182642736425
H         6.26795979541098   15.78915857808604    4.66401006765584
C         5.59266992732857   14.74316992881704   -0.58087797346047
C         4.74942103839642   14.88043244220110   -1.67912516464036
H         3.67916755211023   14.82709766949801   -1.53541117493862
C         5.27940443771175   15.08188370678494   -2.94084985403784
H         4.62108825583958   15.18090392432413   -3.79024846773190
C         6.65092765145461   15.16090213600383   -3.11514013982249
H         7.06338114655876   15.31781195114460   -4.09988289691526
C         7.49583454270313   15.04082257521513   -2.02309191496987
H         8.56627116965214   15.10086782331799   -2.15890683576476
C         6.97202939103329   14.84097360638337   -0.75919288136220
H         7.63343846920918   14.75541626524804    0.09605393611598
C         5.85950017325973   13.38360471437866    1.95360563876496
C         5.63586593057522   13.27001885437946    3.32388202608545
H         4.92903714794220   13.94062220560458    3.79639328117256
C         6.28007821463672   12.29643706488627    4.06290081993759
H         6.09722607287637   12.21365709931894    5.12377049743288
C         7.15217864271348   11.42018305747794    3.43656153608880
H         7.65940806207804   10.65945687756080    4.00981767524746
C         7.35782869473107   11.51010126933426    2.07017348004492
H         8.01941591476454   10.81389275844612    1.57664928972018
C         6.71205172119834   12.48213725675530    1.32537865269818
H         6.87038510894954   12.52695134003963    0.25737478537250
C         3.34344608675253   13.73655944440592    0.85715637121757
C         3.39277751623329   12.50453548143755    0.20626466564798
H         4.33378297011001   12.13648786399330   -0.17954725214630
C         2.23958589928743   11.76013348265055    0.05325158871014
H         2.27828778113918   10.80785997310699   -0.45379456831539
C         1.03571204428039   12.23246948224708    0.55491543616515
H         0.13750487697482   11.64564802136327    0.43782485683719
C         0.98572180008546   13.45361367002617    1.20561927165852
H         0.04896569714665   13.82069690720775    1.59660906716756
C         2.13692809238014   14.20784659960835    1.35877723542645
H         2.10591576350429   15.16895502472509    1.85702621054329
C         3.88654767734651   20.29272696072301    1.72849852886751
C         4.26979161981960   21.63267718502469    1.78823007601434
H         5.08626453883376   21.93567565437655    2.42964234736774
C         3.59909722721917   22.57624388581019    1.03292571779621
H         3.90075512979926   23.61181218760375    1.08098071396738
C         2.53940176792774   22.19781979797474    0.22280046713211
H         2.02137804846329   22.93888169370373   -0.36651352408239
C         2.14003767496927   20.87261008829931    0.18028096021900
H         1.30418531873884   20.57895894177298   -0.43658562426585
C         2.80791997687744   19.92308695473305    0.93358009324644
H         2.49640111520049   18.88726686630603    0.92137174891009
C         6.41280207144504   19.71651100433479    2.86427111747440
C         7.01680085654903   20.17622970886640    1.69347351693840
H         6.43376171856754   20.24767487417254    0.78289885723008
C         8.34153937228865   20.57212001663390    1.69766636291416
H         8.79283413735041   20.94160395595557    0.78799548723375
C         9.08462291561174   20.50190732741739    2.86520978148590
H        10.11928192883830   20.80923716095358    2.86833123162872
C         8.48988337700738   20.05303237055042    4.03270125358854
H         9.06001494389460   20.01274453376522    4.94868287230207
C         7.16281992662831   19.66054584922317    4.03478809091535
H         6.70543077737793   19.32919932844953    4.95566103996337
C         4.01859614997647   19.35275683127595    4.40793073448004
C         4.41172020632601   18.52538139587546    5.45910931785747
H         5.11220253796905   17.72068448101552    5.27313091099458
C         3.90573696552830   18.71768452408199    6.73019702596433
H         4.21757092872326   18.07235053726940    7.53779137980987
C         2.98996653928160   19.73123010451623    6.96359101991420
H         2.58811931081387   19.87765228370600    7.95426399609828
C         2.58364201027548   20.54687501870887    5.92146568479114
H         1.86267045432902   21.33057331037669    6.09808370946645
C         3.09215069109781   20.36240361284954    4.64730750548666
H         2.76076288945546   21.00030322073340    3.84158302152749
H         3.51662811856986   17.00527997417237    1.26421840334845

