93
CSD_code = BACLUN | q = 0 | S = 0 | Stoichiometry = C38H39BClMoN9O4 | MND = 6
Mo        8.57108598472807    4.30808530843889    1.47460033705659
Cl        9.84134027633062    5.28695860227527   -0.27226080205736
B        10.38418740177354    3.78142300337668    4.15843174685729
H        11.02206506110607    3.58024117888445    5.13417675490182
O         6.27725412858584    6.04986094265182    1.02102695959187
N         7.22860437358146    5.36956049722106    1.21430715360153
N         7.80143718640183    2.81525303879850    0.52374996074394
H         8.13743759113076    1.88093849009693    0.76538237834566
C         6.86040628531804    2.66875492439757   -0.46143130200197
C         6.46717773075226    3.75228717078758   -1.25487865606076
H         6.94227528768739    4.71162021032927   -1.10419118943962
C         5.53167119320520    3.60397093189363   -2.25162433495995
H         5.28257490148657    4.47002778004104   -2.84151106392340
C         4.93428508352867    2.36364302745658   -2.52457424126213
C         5.35993721803434    1.27040526441651   -1.75819551970039
H         4.94937907686950    0.28829856782640   -1.93310047805050
C         6.29730773294195    1.42147772032043   -0.76076361801162
H         6.60077254791481    0.55362089740712   -0.18760907038491
N         3.94804836832401    2.21750739844475   -3.48270468480981
C         3.71367782429826    0.90509950719709   -4.04059984454633
H         4.64421182921426    0.42596675339570   -4.36596346065387
H         3.05401105699621    0.99022142052279   -4.90084437946301
H         3.22472223557646    0.25844567182770   -3.30760491131752
C         3.58480314950533    3.34510175799228   -4.30657186084792
H         3.33325065053811    4.19812801781746   -3.67663693337926
H         2.69995906405968    3.08859510881831   -4.88687338179461
H         4.38365486778271    3.64014706441619   -4.99878068169014
N         9.71075957026956    5.70558279262386    2.73645154722459
N        10.56051617425169    5.20930404819476    3.64781683777781
C        11.47509437222564    6.13091493359292    3.97568988088804
H        12.24013948749366    5.92228215268720    4.69667859712142
C        11.21620104817573    7.27163220266667    3.24919152878394
H        11.74671463310098    8.20106778330205    3.26747631434545
C        10.08272058497976    6.96235765594078    2.48460144526736
C         9.35027415329912    7.85620738672478    1.58784996539226
C         8.01564841226196    8.17071737178304    1.83941713128260
H         7.51530562352989    7.73725036537881    2.69362022040611
C         7.33786460796484    9.03866383296422    1.01330305971282
H         6.30214850711646    9.27783844287626    1.19089542506541
C         7.97578140787761    9.61142347625993   -0.08806055636782
C         9.31225941357803    9.31369768449846   -0.33190424161041
H         9.83486983342113    9.73965682015598   -1.17382200405138
C         9.99087554432658    8.44932551641538    0.50738206219323
H        11.02377047973678    8.20914531576218    0.30417055928557
O         7.21514380221417   10.45246272708120   -0.84430405936525
C         7.78669985486505   11.01964412630794   -1.99678964183340
H         6.99761244903593   11.61362057526898   -2.45599270476713
H         8.11734595379050   10.25038890876379   -2.70196921831880
H         8.63086149080251   11.67252701395195   -1.74953289091263
N         7.97363746127652    3.72807827135484    3.44980752625191
N         8.87979259653269    3.60871651363897    4.43134891866614
C         8.25578305346697    3.48714021531018    5.60940260367117
H         8.80685160831275    3.38337437619443    6.52253537657170
C         6.89428030519939    3.52615667752441    5.38954742437904
H         6.10804154403746    3.44917956048693    6.11169658452838
C         6.75923790107351    3.68069089447838    4.00600683514709
C         5.54720840006616    3.78050219462065    3.18992436202898
C         4.67153015565251    4.85483467326472    3.33401559214802
H         4.87467843062231    5.61339565118603    4.07494716657027
C         3.57441267222041    4.97257326878448    2.51157606256294
H         2.90637665094507    5.81470560663535    2.59237647815339
C         3.32086101737442    4.01635603666277    1.52613737980987
C         4.15911717292486    2.91205843330426    1.41932081724465
H         3.97655455555599    2.14197771001077    0.68764846992409
C         5.26326370083493    2.80417433877569    2.24414834292448
H         5.89944985868162    1.93284697745312    2.17192799590333
O         2.23418901093032    4.23778302527530    0.74180469424095
C         2.00751646716567    3.37142391753137   -0.34485283607383
H         1.16412027019248    3.79526193719563   -0.88810713637959
H         1.74618956058930    2.36294730618310   -0.00650889339787
H         2.88010193866706    3.31790978922411   -1.00259489511625
N        10.19437713965910    2.86160220541202    1.82797874476617
C        11.66572925308965    1.81989692858249    3.09296855421454
H        12.23968244650818    1.63706255614408    3.97874913277708
N        10.77971584292266    2.82472275585695    3.03422096913196
C        11.64755674123449    1.16138316650181    1.88648991720619
H        12.23137909472856    0.31661285216126    1.58412874051275
C        10.70406359792804    1.85230746889199    1.11160631254774
C        10.24190216108644    1.44484485508298   -0.22138969868028
C         9.72262036526495    0.16169653511121   -0.37123408895206
H         9.71505421504275   -0.51275550089500    0.47506547204951
C         9.18004311021960   -0.25747480935479   -1.57288144420471
H         8.76991546008499   -1.25308296907999   -1.64198826488691
C         9.15692946977815    0.60956955981443   -2.65947222532040
C         9.74049803079113    1.87055559052689   -2.53276040044209
H         9.74558069877040    2.52211661021860   -3.39145782176101
C        10.28100328719000    2.28261815726751   -1.33465122032512
H        10.72959511088209    3.26061211625243   -1.25812657059309
O         8.60807219485572    0.32263983609210   -3.87286990069934
C         7.92089886103318   -0.89366987569486   -4.02471297853546
H         7.51822467905350   -0.88215021947392   -5.03671361761461
H         7.09874230737730   -0.97909928939731   -3.30636823820381
H         8.58987608820602   -1.75424729535812   -3.91661437705363

