38
CSD_code = BACNEZ | q = 0 | S = 0 | Stoichiometry = C13H13N5O6Zn | MND = 6
Zn        0.48027885325248    2.72627029722269    2.79579721643109
N        -0.75246436881904    4.11211504288108    3.58309670291934
N         0.50050739885600    5.80412742245073    2.54175996986870
N         0.47076363207793    3.90414913666165    1.13541900685390
N         1.97562358003544    2.87093731065898    4.60635278582645
N         0.05637434212403    0.57450359181794    2.09450172243247
O         2.12946597373249    3.56320913017987    3.57935384334868
O         1.01034825365417    2.09184488457667    4.61809109019238
O         2.70599261470213    2.98885645974272    5.54390805858327
O        -0.86663875488461    1.32480179159274    2.46108653898565
O         1.18352863051704    1.09208115764916    1.97312398926965
O        -0.13521092719985   -0.57198479794676    1.83261856138148
C        -1.66603187832824    3.72063550719493    4.47026465948165
H        -1.90104732298191    2.66719775200878    4.44525021139475
C        -2.26149986213057    4.58641730468476    5.36170458213909
H        -2.98648386877100    4.22810020211068    6.07294069190597
C        -1.88964364383637    5.92513873330367    5.31787295583711
H        -2.32744855900280    6.64046629227339    5.99757506938730
C        -0.96334944607607    6.34062917777192    4.38600458783589
H        -0.69008303595702    7.37905053064036    4.32699897247410
C        -0.40164549134594    5.39847610167447    3.51087170828394
C         0.61760655443407    5.22385506258531    1.29000540544972
C         0.87065495185659    6.05032367013914    0.18243672413797
H         0.94739340990030    7.11806849574089    0.30625758031292
C         0.98152994755366    5.49397459417275   -1.07243916131465
H         1.17182777185886    6.12153763931625   -1.92992327915093
C         0.82797482496606    4.12052710668930   -1.21572875416822
H         0.90645231935100    3.64321585052052   -2.17801839925200
C         0.56771683550294    3.37760083284846   -0.08453699346060
H         0.43943142178654    2.30760177578032   -0.14726695355349
C         1.34919672310075    6.95609809020968    2.84609909108391
H         0.80225205606748    7.90232136105829    2.75264996168487
H         2.16669547927155    6.95380251284698    2.12053226767641
C         1.96569686356595    6.81680974130508    4.20864008625077
H         2.39542596438667    5.84469483034695    4.40273959822021
C         2.03656565628889    7.78859165466723    5.09733160147666
H         1.62598150109621    8.76883462574558    4.91078831999932
H         2.52506159939394    7.64951912687706    6.04503997977659

