47
CSD_code = BACPAY | q = 0 | S = 0 | Stoichiometry = C14H20N6O6Zn | MND = 6
Zn       11.33886797918108    0.00010010240903    0.00003750961752
O        10.59978642852894   -0.69347828537058    1.81021284321090
O         9.70654774536141   -0.21677796089847    3.68459501302646
O        10.83977510400227    1.25768178849582    2.63459561830044
N         9.56012549146563   -0.83378576513604   -0.91087585998433
N        10.28853019258288    1.85528777915915   -0.01136227461458
N        10.36472382574579    0.12946885284247    2.73974679631230
C         8.44832327731426   -0.52781642023406   -0.08346421314575
C         7.75583075898744   -1.53582393983389    0.57067152923258
H         8.04608272880654   -2.56485518203843    0.41649498364721
C         6.72589349805480   -1.22597190874234    1.43995017225706
H         6.20503783042023   -2.01663401816232    1.95697225382553
C         6.37274700311974    0.09469333344946    1.65183130054042
H         5.57489230690991    0.34146368675053    2.33423394469873
C         7.06227181419022    1.10254008948932    1.00108053658593
H         6.79970321833134    2.13519485729320    1.17856841978507
C         8.10130775102955    0.80763155279480    0.13143538005680
C         8.90970475848388    1.89551605507679   -0.52010706989115
H         8.94155143700607    1.75185852118907   -1.60569222848923
H         8.44418290372118    2.86944977417271   -0.32299548283286
H         9.62332753743943   -1.83151681510408   -1.08923396994288
H         9.50962680689004   -0.35827330103505   -1.80805312542886
H        10.29129375223999    2.14609219540857    0.96840498652951
H        10.85844473585789    2.51551233052208   -0.53253963934438
O        12.07784695273766    0.69364175366585   -1.81009742749253
O        12.97113364931218    0.21638901531979   -3.68460745688949
O        11.83850156529088   -1.25794881090981   -2.63356361096402
N        13.11761938651650    0.83384322683314    0.91091054365735
N        12.38919021132061   -1.85519495151274    0.01135250241665
N        12.31340296810455   -0.12967089218451   -2.73920890465406
C        14.22933065063014    0.52789982301019    0.08334579328726
C        14.92169000930373    1.53582866385548   -0.57107235680447
H        14.63142190110017    2.56487940713849   -0.41704152780633
C        15.95160296142871    1.22585434553022   -1.44035550942664
H        16.47243061070921    2.01643525593318   -1.95752523896392
C        16.30483330296786   -0.09483214375189   -1.65199482183841
H        17.10268582447127   -0.34171006717741   -2.33436176650429
C        15.61537558920238   -1.10258369650997   -1.00105241701117
H        15.87792013306847   -2.13527110461636   -1.17839313838241
C        14.57638901708747   -0.80754794303279   -0.13141754432059
C        13.76799489587278   -1.89536366265320    0.52017222880801
H        13.73613197570784   -1.75156324577803    1.60573788290402
H        14.23357947931488   -2.86928810100999    0.32314877201392
H        13.05416029130879    1.83160566818136    1.08900849296163
H        13.16842250107988    0.35857540875777    1.80822516572664
H        12.38647858970880   -2.14620762276309   -0.96835481814372
H        11.81927864808501   -2.51532764882317    0.53263773347275

