61
CSD_code = BACPEC | q = 1 | S = 0 | Stoichiometry = C16H36N5NiO3(1+) | MND = 6
Ni        3.35907586438103    4.65170478192808   14.32283305005134
O         3.36580229142474    6.78783802017802   14.87934922183997
O         1.71675306253768    8.15334486159061   14.81307676992519
O         1.46884403837325    6.10887641444132   14.20904112390827
N         3.18195373423666    4.85914818054119   12.38073686471504
H         2.38212444853381    5.50491502122841   12.39516487282529
N         2.30440503025020    2.82117943111152   14.13929488933591
H         3.01607057919669    2.09621093417587   14.01414213904054
N         3.61491984390040    4.39391663519362   16.22345502351202
H         3.65135434417558    5.38893215804959   16.47887359305177
N         5.53591659095013    4.29149315861066   14.10172857840605
H         5.68636367808314    3.29586175414466   13.92202776544257
N         2.15441238787471    7.05821524933651   14.63798967977140
C         2.66054201659381    3.58470708851964   11.86096024244148
H         3.48688317136947    2.87820540053617   11.73775083946679
H         2.17585308468747    3.72055005042834   10.88967091010712
C         1.64134455500077    3.02220460944126   12.84403343043022
H         0.83028930435943    3.74180634818435   12.98955105108852
H         1.22328242210578    2.09130874091901   12.44372602599928
C         1.41147269739195    2.36067391396044   15.21266503554768
H         0.55729109363381    3.04122144201658   15.23908701167779
C         2.14902631237881    2.39910880101870   16.55610449358970
H         3.03445271219491    1.76203742951939   16.49239060886444
H         1.49365662387250    1.95706588418620   17.30595971966454
C         2.55024304549677    3.79360171303224   17.07098169405785
C         4.97544636212366    3.87162517590325   16.43302779714711
H         4.98363231572761    2.79356483826376   16.24711951757068
H         5.30659230450059    4.04586239737257   17.46107488165154
C         5.94908133519472    4.56422306586695   15.48312271446796
H         5.90952653008797    5.64635543765259   15.63794773537871
H         6.96713900289895    4.21435670586551   15.69373281425702
C         5.59872528849383    4.84533854793183   11.71577843286775
H         5.51432070684045    3.77657410454498   11.50457918689393
H         6.25465926619772    5.26776702930879   10.95516357160108
C         6.28534945752427    5.02735638247253   13.07515115406667
H         6.27314350484544    6.08247068580151   13.35738142016070
C         4.22302451821335    5.51726901001856   11.54285770615776
C         4.27932356771908    6.99668563088930   11.92886800253547
H         4.39608047202944    7.12603820859387   13.00119319241352
H         3.36702598925259    7.50285350570622   11.61951687886200
H         5.11477021491659    7.48223590182379   11.43349419629959
C         3.84232526306057    5.44103326592460   10.05478973578817
H         3.96558962746931    4.44080880460758    9.64803526883484
H         4.48783925862266    6.10853872477230    9.49118673773480
H         2.81698907079353    5.76872761970106    9.89873395547649
C         3.02976417317599    3.64889264369124   18.52396871151764
H         3.75131872057356    2.84474280533218   18.64098395786606
H         2.17653287360116    3.42238884336970   19.15687407963793
H         3.46648245777200    4.57804018441574   18.88297881086057
C         1.35492776635397    4.74877517316897   17.06358846655744
H         1.59830220244181    5.66341942751832   17.60041595101459
H         0.50268421604051    4.28986093316958   17.55585040477283
H         1.06135072208861    5.01202120611066   16.04996667502181
C         7.73738231042164    4.55302557087816   12.97743718075947
H         8.26778625847979    4.71389659538796   13.91166109614224
H         8.25966099332781    5.10850002312315   12.20475374511983
H         7.78423615188054    3.49493661616368   12.72516626833956
C         0.90848190139037    0.93711216455345   14.95931188066473
H         0.31794808819746    0.88030461371745   14.04957250573500
H         0.27349785945518    0.61821415577878   15.78016046573752
H         1.73982631528434    0.23805597830724   14.88306026532749

