58
CSD_code = BACQAZ | q = 0 | S = 0 | Stoichiometry = C26H28AuCl2N | MND = 4
Au        4.39762811266318    5.29311062902936    3.33391478088711
Cl        4.98230615008356    7.53030827584601    3.30364056541958
Cl        2.64263668600387    5.79159587211430    5.05580801147104
C         4.87059400735201    2.58473541372549    2.66495997562057
H         4.77649935323761    1.51634264094411    2.52706480971027
C         3.93882282082292    3.32343277126782    3.27615054776470
C         2.60022041266971    2.76436176762430    3.69480268512713
H         1.85036503121760    3.27926665373825    3.06908074881714
N         2.23286165674814    3.01299055357771    5.08944926087394
C         2.92875688032717    3.85272965241005    5.86132414693249
H         4.00193094916761    3.83080833970995    5.70291625279737
C         2.51348542594562    4.01797760048550    7.26413144646160
C         3.25659882829379    4.82782574990018    8.11880292703329
H         4.11952044470532    5.34903855171520    7.73284494035122
C         2.87938521187599    4.97926627699068    9.43820324434983
H         3.45456184161752    5.61456971272889   10.09403481727559
C         1.75999082448022    4.31565542107734    9.91635540108654
H         1.46129639897019    4.43308923001224   10.94714038058934
C         1.02291610821445    3.50352801937394    9.07331286888361
H         0.15188277153145    2.98460688645965    9.44640383345926
C         1.38482442461981    3.35169078681600    7.74287485753810
C         0.62060277968049    2.45524795613087    6.81314080302779
H        -0.43983261227799    2.45498860506335    7.06724330454133
H         0.99166994948730    1.43057227301090    6.92120894244088
C         0.81171915553114    2.90983862822900    5.37220247442423
H         0.37328961278889    2.18644408607258    4.68310996608521
H         0.33718830817919    3.88866646158104    5.21979382049145
C         2.50022587883923    1.27617641923863    3.44161359522703
C         1.92733882431350    0.79420192090611    2.27289653760619
H         1.53762958162982    1.48940470846164    1.54293413513534
C         1.86044911324298   -0.56797672113504    2.03614579447985
H         1.41355402402284   -0.93292847429238    1.12333048782626
C         2.36319549604076   -1.46020986290079    2.96768053988906
H         2.30972369084125   -2.52280727019915    2.78358774349565
C         2.93704950495979   -0.98511252080413    4.13549061038557
H         3.33357044576888   -1.67745370364414    4.86352896889846
C         3.00815279746529    0.37602068679439    4.37052712238947
H         3.46173584325574    0.75025042267147    5.27676380853833
C         6.01191703446071    3.29909203874322    2.13528795964790
C         5.96823636733763    4.62869720628145    2.26018813371239
C         6.98555653736887    5.56830633907323    1.72586160157621
H         7.61453075061064    5.92024801206828    2.55022848443332
H         6.49900668428458    6.45197983359918    1.31153856998140
C         7.83650254874192    4.87699943764686    0.66153039039142
H         7.24525827238081    4.74526088138169   -0.24546948044352
H         8.69308012345020    5.50673211816633    0.41573993505746
C         8.31095112006712    3.52490835875751    1.17669096898013
H         8.86022704162314    3.68260666625134    2.10750316460635
H         8.99463382287895    3.06810829262342    0.45801285753164
C         7.14454606486806    2.56257670591835    1.44548514011653
C         6.61994067183614    1.96720473285246    0.13328027371483
H         7.41037263341760    1.41311922049348   -0.36925549914416
H         6.26702828790773    2.75059681567903   -0.53207210696923
H         5.79162556799262    1.28907842200760    0.32382662849594
C         7.64320468640411    1.42971544448181    2.35150737838266
H         8.53040769693822    0.97406706646270    1.91608389387439
H         6.88847113776359    0.65741804531199    2.47224920074497
H         7.90065621536752    1.81562994147382    3.33546734797042

