84
CSD_code = BACSAA | q = 0 | S = 0 | Stoichiometry = C36H40ClNO3P2Ru | MND = 6
Ru        8.68842740746770    0.68190910156400   13.08857375618641
Cl        9.10329479778428    0.11714399494112   15.32031956558239
P        10.99816715803054    0.48356620107370   13.04406413304616
P         8.06133602681633    0.44225313257022   10.85576053349970
O         8.65399133122754    3.49052451596189   13.43305032832196
O         6.67381786181796    0.23160268459497   13.38434239895072
O         8.82814560878153   -1.31398863922868   12.75076208722238
N         8.61566838052509    2.33456720340120   13.30286108576366
C        11.15192689728911   -1.26305145683426   12.87019644674616
H        12.11756235335006   -1.74225889643461   12.88932478208243
C         9.95642853092961   -1.92915710542592   12.80290690811485
C         9.89242990803884   -3.45748980050694   12.85091571228477
C        10.86558145913688   -4.08742968377087   11.85223445537408
H        11.89676063810229   -3.84653680775576   12.09620476037556
H        10.65847291848553   -3.73564348823743   10.84422321843659
H        10.75683175233212   -5.17003421640712   11.87122645464079
C        10.25899134442235   -3.87024191498242   14.28315512461199
H        11.29185589860566   -3.61320859026072   14.50656035607905
H        10.13326207863794   -4.94398888957367   14.40728967789352
H         9.61723606052420   -3.35798915462905   14.99664802174144
C         8.46765252891868   -3.91975446899962   12.53983814240761
H         8.39392357754878   -5.00071399003277   12.63862242032333
H         8.19313461840418   -3.63863369645354   11.52538146811466
H         7.76488159690492   -3.45417505823075   13.22670888326627
C        11.92568727805816    1.32584453399839   11.71214819008479
C        13.22239919615603    0.91626389358293   11.42131325531986
H        13.66578373713789    0.11393343365268   11.99472803323832
C        13.93017021041028    1.53227387840130   10.40607513356810
H        14.93574150838247    1.21044077220331   10.17767665999799
C        13.35082370413564    2.56256513741297    9.68111766557826
H        13.90531609008123    3.03981083950506    8.88678867183053
C        12.06411363814563    2.98240989755451    9.97587015212896
H        11.61054790992167    3.78660131539659    9.41534632223385
C        11.35278453588971    2.36656541121313   10.99055018393856
H        10.34297578226774    2.68536642472887   11.22217541236689
C        11.96351237090424    1.04025837759736   14.47559872136711
C        12.25092726561618    2.39578944175623   14.60398080127818
H        11.90298861566908    3.09107008509452   13.85009729378975
C        12.96776047148923    2.84413565503063   15.69696063536990
H        13.18635018336286    3.89667021475521   15.80260718601863
C        13.39844672240312    1.94492249235450   16.65976873007091
H        13.95572868389609    2.29856457976081   17.51476542742285
C        13.10640177451202    0.59653067291919   16.53432242451995
H        13.43301329745431   -0.09989311887374   17.29256691313422
C        12.38596475795784    0.14061445728440   15.44594641552907
H        12.12466981751593   -0.90353185405043   15.35100300709962
C         6.36224290560310    0.02316353945272   11.07805696676980
H         5.73553625467063   -0.12625516395160   10.21377938759920
C         5.93433483624468   -0.04556561512990   12.37614540606655
C         4.51552373641107   -0.48072363631267   12.75935610172162
C         3.91975684049270    0.61068281542951   13.65591986040438
H         3.79292678983032    1.53500681256527   13.09490750506991
H         4.58349381186713    0.80319781726969   14.49492221876764
H         2.94989324358860    0.29841429384475   14.03709623038452
C         4.66120841707969   -1.78387208216991   13.55518218102125
H         3.69320765324615   -2.10752397517635   13.93215644891333
H         5.33393023978735   -1.62940059855548   14.39526756940418
H         5.07191067324897   -2.56975773526510   12.92335102980486
C         3.60473416973760   -0.70946290426891   11.55533167702143
H         3.50781662649631    0.19568476335925   10.95981038394829
H         2.61404995997146   -0.99312643033242   11.90558448202391
H         3.98110534365460   -1.51084888441378   10.92367243837230
C         8.85678868404818   -0.86031637464481    9.86800228176403
C        10.20890916670634   -0.77450608328494    9.54753633506885
H        10.78685989395086    0.07170273809926    9.89056006457319
C        10.80704493037355   -1.76711569970702    8.79369939206773
H        11.85720092057755   -1.69542616773604    8.55069251295334
C        10.06295420217707   -2.85205306487542    8.35602076724558
H        10.53175498472782   -3.62713373970816    7.76763455331036
C         8.71989007824184   -2.94627610915003    8.68201649204978
H         8.14172322262126   -3.79645324696338    8.34990365353000
C         8.11761420103606   -1.95683763875690    9.43952156676743
H         7.07341155381491   -2.03086369102150    9.70836162928842
C         8.08975955249529    1.90963594702748    9.77747046842975
C         8.71029251061566    1.97840691550780    8.53756263474165
H         9.21372135868114    1.11250437034425    8.13276484812285
C         8.67894557991838    3.16211543797015    7.81942082550168
H         9.16282917264360    3.21362179539822    6.85481250371871
C         8.03375883444224    4.27517363660953    8.33063830225465
H         8.01770693873954    5.19638428714267    7.76732130121811
C         7.40461115278771    4.20755172341917    9.56529684286219
H         6.89772370891853    5.07350207849492    9.96425139116733
C         7.43308705483739    3.02967181883009   10.28415971183472
H         6.94245251026586    2.95612053302032   11.24993407728619

