113
CSD_code = BACXIP | q = 0 | S = 0 | Stoichiometry = C52H48F4IrN2O3P3 | MND = 7
C         5.04115557237798    2.32512623814623    4.27736853910855
C         5.79346056310005    3.43788091302094    3.83592659865351
C         5.70784627758341    3.65583065057775    2.32884583021349
C         4.20630089252854    3.84586883166331    2.19495550093989
C         3.46618249105173    2.76373487630665    2.60987015825913
C         4.31904255811659    1.61684357708928    3.13007377929662
C         5.33768418767692    1.27454494476961    2.08539383044637
C         5.59275360057736    0.01842042345872    1.56734396064500
C         6.59336916225519   -0.15743926633417    0.61573314892022
C         7.33927922268851    0.93567548480809    0.18619157390554
C         7.08053883749189    2.19927712362356    0.71013794958366
C         6.08550783593304    2.37101401426946    1.65416778596832
C         3.83181579402764    7.10229667979518    2.74445166196366
C         5.18623301255424    7.31839304026583    2.98089963702602
H         5.61272534442515    6.97261740305512    3.91257986480844
C         5.96949695443367    7.94471952685259    2.03132835184719
H         7.01898980719843    8.11492642868236    2.22142438311015
C         5.40883614255583    8.34403584057749    0.82769722773452
H         6.01953388297921    8.82842028185118    0.08046806530425
C         4.06595139396488    8.11477997467874    0.58090990556108
H         3.62909866188379    8.42102977161904   -0.35863647681557
C         3.27580860679317    7.49489108199368    1.53408660884277
H         2.22574425520822    7.32581129861139    1.33725990619891
C         1.19819256000525    6.28340005184425    3.54041481456682
C         0.78634620890394    5.49097060447682    2.47250288289484
H         1.51655473146258    4.89600028451806    1.94096923728105
C        -0.54126721006533    5.46379228853951    2.08794092185039
H        -0.84974424643992    4.85076347640816    1.25260337673357
C        -1.47626055265958    6.21913993331741    2.77696024932149
H        -2.51432807699834    6.19458867507350    2.48050022467315
C        -1.07617519798562    6.99975340523720    3.84793249647130
H        -1.80270267279681    7.58677435735495    4.38965549239494
C         0.25219675619939    7.02960792300106    4.23223325615680
H         0.55701971872098    7.63167542035634    5.07405982502366
C         0.37733652281131    4.09904500564068    6.02411390658949
C         0.67863734279798    5.13657641902233    6.90301201353257
H         1.70433571223601    5.28748053760698    7.20857564404277
C        -0.32292094569416    5.95220056573019    7.39197068981583
H        -0.07973544765012    6.74848839445016    8.07993378211679
C        -1.63554608034057    5.74831116881775    6.99877499346363
H        -2.42175362161708    6.38395408963775    7.37927289885107
C        -1.93846947018664    4.72286592243647    6.12039945967064
H        -2.96166304375625    4.55604476457388    5.81565087402799
C        -0.93955083803992    3.89808643882502    5.63380870574561
H        -1.20045057912892    3.09047832056978    4.96600074571171
C         1.07515271522361    1.68772652815802    4.63674736826628
C         0.34356823041287    1.91592590210536    3.47284075451203
H         0.16566409111907    2.93469638780694    3.15154716474167
C        -0.14622766360690    0.85374049288354    2.73562392434508
H        -0.72232085048618    1.03866880997641    1.83996369794312
C         0.10970450634260   -0.44739538835093    3.13922222240454
H        -0.26872720341378   -1.27656917833222    2.56038930476724
C         0.86144715161665   -0.68111194011178    4.27900140515647
H         1.07338814962877   -1.69445298712445    4.58683780001078
C         1.34767554524619    0.38007724000762    5.02156846042192
H         1.93927649443624    0.20245318787586    5.90803752917880
C         3.06886460099313    8.65583748232253    5.39002036367066
C         3.56678603711362    9.29174234555263    6.52597888513473
H         3.90749599715477    8.69249829867456    7.35751250642445
C         3.62013015443508   10.66920592575983    6.59152780127515
H         4.01068216492864   11.14362711848426    7.48056528418529
C         3.18436333476818   11.45611625968077    5.53154271935348
C         2.67628105160081   10.81671138128336    4.40912091317024
H         2.31988584110518   11.40501412716815    3.57552205648308
C         2.61111314056949    9.43821959507576    4.33552695047638
H         2.19362487606272    8.96431365888682    3.46077272369519
C         3.23423364572430   12.95202658006628    5.61604778923258
H         3.24871973886923   13.39626545130420    4.62368900235260
H         4.11651870606051   13.27932925703672    6.16187407795238
H         2.35613876318827   13.32814075651411    6.14258285320139
C         1.54797081980230    2.17477275338943    8.08143805003709
C         2.09420680333271    2.31558655296894    9.35445574969003
H         3.11152824845577    2.66406335988625    9.45702429945138
C         1.34369277526863    2.02152729163748   10.47453580505699
H         1.78348248428710    2.13715552232800   11.45498801933128
C         0.02843543184835    1.58503221344756   10.36279761413446
C        -0.50881257866270    1.44547521753566    9.09091456434960
H        -1.52759346635617    1.10362109389104    8.97593637074847
C         0.23631312415485    1.73058105964516    7.96257284475172
H        -0.19618213224344    1.59907682839477    6.98267868849762
C        -0.78281252669798    1.29083545654168   11.58865149186783
H        -1.08173410481379    2.22034132481186   12.07399985246550
H        -0.20220825839631    0.71290398126862   12.30537510021691
H        -1.68167740985869    0.73435383191591   11.33516764188508
C         5.84213569411962    3.50775452848162    8.41775711899550
H         6.88063266140709    3.84502734164337    8.37736596295969
H         5.80118368559198    2.51762684366651    8.87481425130644
H         5.26088270351420    4.21709270208961    9.01353923804605
C         6.42639062558749    6.72587973104487    6.88367011351285
H         6.43418234438312    7.63760067083277    6.28024022668994
H         7.42990524290733    6.54141751432769    7.27358046769965
H         5.73379372513040    6.85397028528296    7.71887496884163
N         3.01721518319093    7.26212911742821    5.36773095992487
N         2.34214824009620    2.43338345990249    6.95840491342701
O         5.30381869633131    3.39763980376441    7.11528776443503
O         6.03464359421790    5.63703170020386    6.07468506985362
O         3.92217059247543    5.50522142680658    7.47136891226548
F         4.87589564140588   -1.04225225512833    1.97439657773696
F         6.84058748874600   -1.37198304737905    0.10799974517291
F         8.29982603358750    0.76594925100833   -0.73177824804033
F         7.80397585984223    3.24901301891345    0.28727931758749
P         2.94928250898730    6.20677801460069    4.07616664614637
P         1.82947887021549    3.10408149427594    5.50182611099575
P         4.66994700805702    4.76338258647655    6.41767762302670
Ir        3.84565519181835    4.04590529888244    4.40218877305330
H         5.33870923403229    1.74046159262446    5.13643432683400
H         3.32976001621512    6.82261336477246    6.23381363633948
H         6.66697293477998    3.79029448366456    4.36358078703289
H         3.28637313767579    2.71737668998491    7.20064253252925
H         6.28421887825044    4.50947638169289    1.97684465584259
H         3.83414981713522    4.62633127721791    1.54524022684530
H         2.44757489142239    2.57139800641105    2.30657713162015
H         3.73283444239443    0.75666774921926    3.45062625601331

