30
CSD_code = BACXIO | q = 1 | S = 0 | Stoichiometry = C8H15N3O3Re(1+) | MND = 6
Re        7.73605818336223    8.65502703764842   11.97515648536231
O        10.66196960505684    8.97626924949070   12.92249489634574
O         6.81019619340062    7.81264981089886   14.80386124551829
O         8.28050479559401    5.70308589127250   11.22754144738087
N         5.68234627899819    8.51486654773417   11.01998727153752
H         5.17227059236689    7.68825501123008   11.33646029494368
H         5.07558908971143    9.30891244426743   11.23816716166526
N         8.08661188780475    9.42843776694104    9.85172551267139
H         8.59234605831901    8.65532988247765    9.41063281013619
N         7.33497069755315   10.86368884319706   12.34314664121956
H         6.44258043917114   11.17895113093935   11.95386341399494
H         7.24843819046037   10.98796133649323   13.35465224976949
C         9.57739802886151    8.85378342965471   12.59449778677288
C         7.17310625599373    8.11331189777413   13.76727609562655
C         8.08467854086722    6.78706284092351   11.51783947114990
C         5.85798241987084    8.43935814113214    9.55696435147211
H         4.90571236179177    8.53809085995511    9.02490447017703
H         6.28833842403566    7.46385443760870    9.31079363082740
C         6.80970297691625    9.55315110724398    9.12443479710477
H         6.96299945104755    9.51638251911494    8.04000476632681
H         6.35400055545488   10.51869006472640    9.36163230149505
C         8.95500784365748   10.61003757520541    9.67230555204637
H         9.07337052125469   10.82159430247859    8.60181242923472
H         9.93778939676584   10.35698471648072   10.07919006895405
C         8.45417619758845   11.88419328027927   10.35591823162522
H         9.15746186358053   12.67766111282247   10.10077078768501
H         7.48383045259762   12.18632125445998    9.95390672798160
C         8.37677553859592   11.80584971013892   11.87869600226300
H         9.33744954156178   11.48057086087480   12.28537744295603
H         8.16983761775969   12.81156693653578   12.26248565575623

