36
CSD_code = BACYUB | q = 0 | S = 0 | Stoichiometry = C15H12NO7V | MND = 6
V         7.41877733331021    9.14395673319230    4.53750726054063
O         8.39061654717088    8.04401508005602    4.94882101923961
O         6.40694881214048    9.32336622188037    6.08620159888426
O         6.26628682181143   10.05331208047659    8.19328917447258
O         8.35832969310581    9.97202296275517    3.19287702770396
O        10.11010402919393   11.23547865302216    2.61008948869358
O         5.76496911517874   11.08028139174904    3.94258976213214
O         6.24596051082144    8.53863152769613    3.59898913027316
N         8.38078447119411   10.51486187493886    5.50717921902083
C         8.09145209369080   10.73375503866793    6.77689246477101
C         8.85821431711290   11.59528601883652    7.54899647407089
H         8.60019506307763   11.76197783752919    8.58286666792484
C         9.94336843660078   12.21891898014388    6.94369233117667
H        10.56888739304655   12.88829110558316    7.51594895982178
C        10.21096674663808   11.99948950429746    5.59697445432144
H        11.02699301963209   12.48587182006804    5.08554374606899
C         9.38331485389382   11.12667202827758    4.90356971274025
C         6.81024095605905    9.97187983088292    7.11942437807257
C         9.34451952855114   10.76400754146417    3.41360855790535
C         5.75677914299490   12.07915722286314    4.88720345100082
C         6.78887947744561   13.01176643271641    4.76259270328668
H         7.46035087583743   12.93058509493299    3.91812780088589
C         6.94141842496867   14.01003783561554    5.70334667556712
H         7.74691277731564   14.72156255133736    5.59862937538019
C         6.06102850043736   14.10076663819907    6.77050883184034
H         6.18301221809091   14.87656793353669    7.51005300693984
C         5.01800449272108   13.19936923197934    6.87328176009992
H         4.32156493599052   13.26842289977903    7.69430904344670
C         4.85199500372193   12.19248970206549    5.93521151315955
H         4.03130195319852   11.50234954937330    6.04939292899324
C         4.63925656790330   10.23511039483339    3.78795020033965
H         3.82574101884491   10.76585938344404    3.27501369806794
H         4.29657912433450    9.84745552849239    4.75575460006746
C         5.15852789191499    9.04634961471754    2.96039385715847
H         4.37177582786763    8.28397620882924    2.83548898969710
H         5.48614202418229    9.40299754576766    1.96728013623479

