65
CSD_code = BACZAH | q = 0 | S = 0 | Stoichiometry = C30H26N4NiO4 | MND = 4
Ni        5.03679423180054    6.88549219051277    7.61185620367625
N         4.10390896550593    6.90022364900267    9.21109303366084
N         3.48330881401364    6.90492631280166    6.61500565929440
N         5.96948140346392    6.92109383071752    6.01283474194934
N         6.58992961723634    6.90197636903903    8.60934251870300
O        -0.35886733949935    7.57521198489466    8.48303222427379
O        -2.57207439750514    7.82693975758352    8.72327002054512
O        10.42813867990155    7.59921397667858    6.74733000544496
O        12.64167474572827    7.85568944552428    6.51460396558710
C         2.91259522607490    7.43857048526528    9.41267998144152
C         2.43482308104200    7.77320183629145   10.80137544139287
H         3.26892759954204    7.82115358301527   11.49606167623903
H         1.71716211266023    7.03314824563917   11.15313953797965
H         1.93416787128869    8.73719102466418   10.79127978431793
C         2.06658931850275    7.76558894465039    8.33138365762838
C         0.76364645003017    8.38914520655447    8.61496651803344
C         0.42808240499355    9.63048363444482    8.96888714504678
H         1.09916098851508   10.45272601305698    9.11857439532096
C        -1.05371916820360    9.70964176414896    9.11580185302846
H        -1.52317291611496   10.42389748891125    8.43650348602836
H        -1.38111091280465    9.95854987958545   10.12754768784447
C        -1.46980275636100    8.28987480303486    8.76351926401754
C         2.33510119391308    7.44728447980704    6.98225693938311
C         1.29478398659748    7.84401228731266    5.96858315124890
H         0.46234358425314    7.14201925349371    5.96757701131608
H         1.72257537240793    7.89663830787270    4.97097036929990
H         0.89823122469063    8.82432490259550    6.22846518236282
C         3.76463073626657    6.37735198823150    5.34643335559037
C         2.85801437202314    5.74836442574014    4.50484282314386
H         1.82351423879326    5.64723316307350    4.78815547919248
C         3.29666881815940    5.15708303049587    3.32740951033197
H         2.58323441517137    4.66361613660312    2.68511568378111
C         4.63899274391312    5.15198509184006    3.00704645108822
H         4.98175597540968    4.65340802594213    2.11311187232483
C         5.56736326415328    5.74145322829614    3.85537714927191
H         6.61638239025646    5.63184336374982    3.63653692045899
C         5.14574770830928    6.37833063403583    5.01420933653074
C         7.15916205317086    7.46533251031052    5.81713323613136
C         7.63731265448572    7.81548641393632    4.43240618721981
H         8.35828977284137    7.08171334785004    4.07426995074886
H         8.13436965497462    8.78124396077816    4.45305753062734
H         6.80401731707007    7.86737752115324    3.73704292325931
C         8.00327569341936    7.78537369606955    6.90189856939203
C         9.30528671460493    8.41434567114071    6.62566647239487
C         9.64057971724113    9.66072833252912    6.28995858507012
H         8.96925915971279   10.48453526454029    6.15130985334908
C        11.12259210858005    9.74297560490344    6.14670480767891
H        11.45198265732806   10.00715287516147    5.13955452790098
H        11.59018669728892   10.44725703464267    6.83759097161482
C        11.53909979312951    8.31853737952246    6.47917360266135
C         7.73535698398850    7.45396342444354    8.24795601697037
C         8.77227635080687    7.84801689186970    9.26620680658448
H         9.61005529124830    7.15241689209958    9.26059812262563
H         8.34361283504187    7.88733087137607   10.26404834830590
H         9.16135690383244    8.83397836318053    9.01643007622357
C         6.31110132486485    6.36075580582787    9.87264770372486
C         7.22076872774375    5.72837531405832   10.70838613714010
H         8.25596868507709    5.63580384661600   10.42464978116919
C         6.78471899025087    5.12305439119345   11.87962672555319
H         7.50052060328456    4.62719147520876   12.51744034924871
C         5.44225538444483    5.10743742887993   12.19918121991931
H         5.10175880821402    4.59802780665998   13.08784192853573
C         4.51112562278097    5.70048289987478   11.35640299538292
H         3.46253969626970    5.58336701251704   11.57351338800463
C         4.92998575419026    6.35124921854697   10.20432314578208

