41
CSD_code = BACZAI | q = 0 | S = 0 | Stoichiometry = C14H18NO7V | MND = 6
V         3.48923578314151    9.74867277924988    2.12593657747430
O         3.91368421867446    8.69778711958234    3.60912782601485
O         4.32676550739627    8.58292570646276    5.80141519297853
O         2.37568487031354   11.00215564327638    1.32734511711287
N         3.04927645316105   10.92328793541772    3.61165548802671
O         1.24076389259928    8.62157090578120    2.52354495353286
O         3.25219946634163    8.57520659416275    1.06416178916393
O         1.41577027401150   13.01904731774093    1.41255308628523
O         4.85267140997109   10.38270077150270    1.86454673823474
C         2.50869283143517   12.09883758083304    3.34910599631215
C         3.98795408477458    9.16793466308668    4.79901233544487
C         2.04441371218547   12.10381695740637    1.88937313462853
C         3.43419611672882   11.53033871909649    5.86005796477687
H         3.80759001194140   11.25774797395264    6.83474325227260
C         3.49290136541200   10.61519840383718    4.81726780417449
C        -0.00898337166770    6.84617154617486    1.39244857084288
H        -0.51210239161655    6.35556876622948    2.22296539987463
H         0.10221749218020    6.11609022926396    0.59679468430280
H        -0.63236984105560    7.66238714377032    1.03768215028453
C         2.07661331400800    6.31609208505315    2.68937147735614
H         3.07071226930354    6.66676022110694    2.96706023282347
H         2.16135811413740    5.38188805144714    2.14263226763381
H         1.50615390924499    6.11977890074659    3.59491871284839
C         2.40617844389645   13.07829240414779    4.32815464032881
H         1.96478991654332   14.03286104714262    4.08803144675549
C         2.89249229899238   12.78360489379567    5.59703707485255
H         2.84169806460415   13.52538143997029    6.38065354003193
C         1.36776410635775    7.36602261623402    1.82766592984746
C         2.26455750585311    7.75764882219763    0.58996372643906
C         2.89679196394541    6.54766742678724   -0.11828698444520
H         3.37556943174010    6.89410909662928   -1.03167560812563
H         2.15044349901107    5.80092708250825   -0.37292644824438
H         3.66181105798436    6.10407237167014    0.51421487158557
C         0.57733432303496    8.59959895902705    3.76941121454233
H        -0.36628127605271    8.04932793980935    3.71150298541568
H         0.35502544681473    9.64094334481867    4.01434777415964
H         1.20111401624679    8.17254457689931    4.56379513244906
C         1.47007942580942    8.59791965680666   -0.42960554988501
H         0.93535061905643    9.39293801454624    0.08528378705849
H         0.77886066975460    7.97584881723839   -0.99003509112929
H         2.18222099378586    9.05822547458534   -1.11385319403474

