49
CSD_code = BACZEM | q = 0 | S = 0 | Stoichiometry = C22H18NO7V | MND = 6
V         1.86546145500416    4.38537388151649   12.83387205475631
O         2.55335092595079    5.69267934182113   12.45656911922967
O         0.16133802405904    4.97560068346685   13.30994785847308
O        -1.14807630691153    5.93988213137538   14.84395004234592
O         3.35844592144413    3.36347845688197   13.21643963510909
O         5.02799908182943    2.90044000113132   14.62985458960474
O         1.29227365033744    3.70461636749730   11.49391155623363
O         0.77247186673075    2.16220577152264   13.42645083663885
N         2.03853495821179    4.62401415645954   14.74444924610317
C         1.10530736820505    5.29753150101028   15.38966015140978
C         1.28715282838115    5.69608626497627   16.70750916603633
H         0.51098058074948    6.24853205679566   17.21353960099770
C         2.48741335983176    5.36487693769711   17.32645780095233
H         2.67130558281787    5.67033175635809   18.34618685849295
C         3.44528694334729    4.62752742180708   16.63848612094852
H         4.37963956125103    4.33424443058977   17.09102779254654
C         3.17165039581212    4.26889978140583   15.32513027295144
C        -0.10558959443437    5.46305561199250   14.46429604866215
C         3.98588378332973    3.43320541144014   14.33359956735061
C         0.27494212418703    2.86097275324221   11.20892807279503
H        -0.64973318619453    3.42991984810162   11.44684625268411
C         0.25297354657792    2.39688242297944    9.76555331608288
C         1.37003726068892    2.60147662718197    8.96749828791737
H         2.21997428151226    3.13351938147106    9.37727932928758
C         1.38279430456020    2.13705945172550    7.66421527050937
H         2.25343310316120    2.29835715512974    7.04664231979945
C         0.28448116075938    1.46562545424332    7.15466934258963
H         0.29692147962978    1.09913908801505    6.13918751732244
C        -0.83448809321948    1.26967788154266    7.94694869745431
H        -1.69637019732271    0.75589431065556    7.54839000653799
C        -0.85319336999600    1.73568786835173    9.24924406381212
H        -1.72963417084139    1.59052156138729    9.86404083501043
C         0.33919070789151    1.63243595753799   12.17960451066272
H        -0.67571566094034    1.21615237422743   12.30106118414127
C         1.24940319862633    0.57151168019098   11.60397484483645
C         0.71834417831296   -0.63895776567312   11.17650364028426
H        -0.33813972029125   -0.83465483925439   11.29549844594011
C         1.53368140144663   -1.59207428252411   10.59288232035372
H         1.11056416399646   -2.52794665845156   10.25986196145744
C         2.88682220796348   -1.34564914553569   10.43763025429174
H         3.52258667072157   -2.08986824642727    9.98187432341256
C         3.42163626399804   -0.14244050522045   10.86621101031107
H         4.47607842670171    0.05536442937928   10.74814736573905
C         2.60794849108539    0.81737337130376   11.44159163093313
H         3.02973216632237    1.75953745589696   11.76706788959092
C         0.88471856852139    1.18335037959837   14.43602631588015
H        -0.07907780831212    0.68266931248762   14.59404624101368
H         1.17642074259127    1.69853229547498   15.35177642020935
H         1.64213737191415    0.43294841721672   14.18376001029431

