110
CSD_code = BACZAJ | q = 0 | S = 0 | Stoichiometry = C44H61N3NiO | MND = 4
Ni        7.38392045474953    2.25315474063914   16.64252092290458
O         7.01140497565530    0.47671193106144   16.49909703152154
N         8.63814307445401    1.69349530808462   17.93070687050049
N         6.10925730301615    2.60818894666589   15.28263212739725
N         7.61429595416250    4.16044496973769   16.65051161145845
C         7.69706908594041   -0.33063123902954   17.29143608065345
C         8.65971059800862    0.32752173106107   18.08906255374488
C         9.50753696129093   -0.39411393447380   18.92537831964078
H        10.25527652272932    0.13109264131003   19.49980132074045
C         9.37009302596164   -1.76993919614391   19.01461889747396
C         8.39231479329373   -2.40036165311310   18.24391914598925
H         8.28910649440042   -3.46721199067992   18.31756850506333
C         7.54757721590699   -1.72206822856313   17.37525050716633
C        10.28974780378373   -2.53246940313275   19.95935098171028
C        10.08858959580961   -2.00114489331938   21.38618159320386
H        10.71977094385890   -2.54607002822365   22.08596130912962
H         9.05045617407890   -2.12435745515395   21.68777808942154
H        10.33837697222299   -0.94587574469594   21.45155187015346
C        11.74672314845596   -2.31369518635711   19.52723618699093
H        12.42239081028738   -2.85561417634675   20.18666884805263
H        12.01243243969787   -1.26060707798598   19.55684826182057
H        11.89307850206225   -2.67302157495727   18.51065789553223
C        10.02069244414878   -4.03972375435509   19.97391964376832
H         9.00541875076503   -4.25250422178151   20.30028738895130
H        10.70550226651760   -4.52360086892475   20.66853109322786
H        10.17801899436718   -4.47493409614951   18.98987990507212
C         6.50199011292297   -2.42229331746194   16.52067008099814
C         6.83376687905678   -2.16900095297883   15.04352497024743
H         6.92037814132818   -1.10387602713264   14.85222280723144
H         6.05879716279271   -2.58280296552088   14.40001539711175
H         7.78253817092447   -2.63801419443040   14.78965540332153
C         6.44952479069287   -3.93576741989829   16.74532735195486
H         7.39674279776688   -4.40499637375161   16.48927815106178
H         5.67804681224081   -4.36624209826444   16.10866464291867
H         6.20360274778890   -4.17088122349527   17.77841951515495
C         5.12247377012061   -1.84131692179195   16.85985626467122
H         5.12818669380190   -0.76119834943081   16.75108090219436
H         4.86237547723533   -2.07825878621477   17.88978105040128
H         4.35974149250314   -2.25880454638902   16.20445784356598
C         9.61648630403957    2.40396469174912   18.64854248730570
C         9.41700521222143    2.68695208317243   20.01359579051919
C        10.40525689321885    3.37927175154800   20.69578057502688
H        10.27768381045726    3.61712286680892   21.73981636569776
C        11.57242548148091    3.76787241439797   20.06023803887697
H        12.33649216747652    4.29289724134037   20.61535032141212
C        11.76418991134942    3.48413997249886   18.72133630652892
H        12.68280733133688    3.78496661051970   18.24128761339439
C        10.79144664314216    2.81377387450851   17.99542409210647
C         8.13172903305519    2.23994402865885   20.67623064689052
H         7.92972955829834    1.21542121317685   20.34668405741190
C         6.96703689265032    3.11908044420432   20.20477140981259
H         7.16863610201521    4.16912667713258   20.41125844036261
H         6.05108141466433    2.83203448760916   20.71659919261243
H         6.80894527469179    2.99301576151231   19.12789116342264
C         8.19853394049830    2.23034094292691   22.20170915300498
H         9.06214780095342    1.66689476890699   22.54781935287587
H         7.30342925896465    1.75748554053508   22.60051672597876
H         8.24999712905800    3.24084221950344   22.60220387323321
C        10.97262029476356    2.50224803790318   16.52886188017190
H         9.97180359047583    2.30960976032480   16.10109934089429
C        11.59349365550836    3.66157764830231   15.75145872984263
H        11.54452779470913    3.45707602809673   14.68382829971554
H        12.63856500554490    3.80342004870922   16.01656642590020
H        11.05444547262870    4.58643497668642   15.94958739371348
C        11.80610891788742    1.22770127250813   16.37665199591952
H        11.92889309927028    0.97728196879821   15.32510726441313
H        11.31423651107783    0.39551737979298   16.87513466352683
H        12.79135862096093    1.36447514086596   16.81925203757700
C         5.36613953062445    1.73024762536322   14.60233759198836
H         5.44109327850540    0.69863559062507   14.91708133230781
C         4.54483548650454    2.08097731853204   13.55917829229642
H         3.97753610895537    1.30916126186460   13.06573033358374
C         4.45461034732889    3.42136542706068   13.14734931438954
C         5.21818642003576    4.32708825054227   13.85356613281304
H         5.20642026657572    5.37101823931473   13.59446640776300
C         6.03018060256776    3.91320618458096   14.91642626900426
C         6.84173960453906    4.79376397562407   15.72050551999138
C         6.82585431913386    6.18672372057534   15.59440804962711
H         6.18886234840107    6.62067823221465   14.84396698100224
C         7.59040477027997    6.99124747405902   16.41251451015387
C         8.36823595896229    6.31967348815285   17.36860456294279
H         8.99409446775504    6.86065635453425   18.05909669180389
C         8.34498978068609    4.94896572488415   17.44769191440583
H         8.94857846507494    4.45915884859663   18.19532335079938
C         3.55742479905691    3.80241496451407   11.98640795990511
C         2.11369696642397    3.40546813035599   12.32477206571239
H         1.45187416348004    3.67435073650385   11.50480044513144
H         1.77998800057392    3.92356035054223   13.22156126405341
H         2.02565134500519    2.33642187815862   12.49610500163740
C         4.02635510034781    3.04874725767903   10.73376507890835
H         3.40837996137866    3.32173937328059    9.88152793046198
H         3.96134151572651    1.97301361259825   10.87066893743514
H         5.05973783155057    3.30203149012724   10.50579138440601
C         3.58842221036249    5.30367634092510   11.68815161754518
H         4.59054327207791    5.62926342097259   11.41765184647313
H         3.24190426292243    5.88051411587107   12.54302084927452
H         2.92930641555177    5.51943894107769   10.85003698561416
C         7.61026825595505    8.50414718259339   16.33317414050005
C         9.04539200711969    8.96446637731969   16.04168132174377
H         9.08259400019670   10.04949949727217   15.97673116356645
H         9.38990073532823    8.55028728085961   15.09638422998615
H         9.72988136522905    8.64649504543094   16.82314127012453
C         7.14331065901208    9.07327830711398   17.68050931206237
H         7.13190141311407   10.16018338165492   17.64223610618555
H         7.80162330796164    8.76794464661321   18.48892597183185
H         6.13787219304750    8.72544281849506   17.90879847259394
C         6.69284831036991    9.04704342744640   15.23478748198395
H         5.65678565922607    8.77037436792365   15.41791361216011
H         6.99452977786089    8.68109571291962   14.25581640501767
H         6.75152124057297   10.13323140137344   15.21867691235017

