51
CSD_code = BACZUC | q = 0 | S = 0 | Stoichiometry = C14H30Cl2N2O2Pt | MND = 4
Pt        0.49232857273859    4.09895212552381    5.47373742052618
Cl       -1.30661215845269    4.09901818141238    7.03265242519662
Cl        2.05557707537330    4.09902828737668    3.77560854288541
O        -0.95314710731092    6.42105706994271    5.09199751364352
H        -1.51850949844503    5.75889173031035    5.54898950532583
N         0.35596319694086    6.05887959333674    5.40918048176350
C         4.11129137637682    5.99780894225529    7.78055134314148
H         4.14162207958190    5.60864331453691    8.79485292651741
H         4.67399141461361    6.92852079439758    7.75362365455899
H         4.59782483397495    5.28551753631187    7.12022119632363
C         2.67424531346985    6.23024145171488    7.33989585415335
H         2.09814554712172    5.30175708646504    7.43033577984259
H         2.20816461584232    6.97987191351749    7.98335451505727
C         2.61251314724942    6.69273566395850    5.87673889871745
H         3.23536451090376    7.57693729042176    5.74057361294840
H         2.99282361529473    5.88942224574095    5.24166851938387
C         1.20384808549220    7.01090779650196    5.49608408106403
C         0.81923076875467    8.43157489648021    5.23999153794953
H         1.45599841255740    9.09793991761558    5.82344715570253
H        -0.22359210307379    8.58735382307319    5.52361222342505
C         0.97448435996063    8.74736144050138    3.74391738224017
H         2.00300777288499    8.54630571986856    3.43759318846048
H         0.31927152892148    8.08571762440704    3.17613790289364
C         0.62125908704118   10.19829387017657    3.44960616987312
H         0.73113493230176   10.40432966313568    2.38799288729499
H         1.27429956110493   10.87273840425939    3.99962840423179
H        -0.40721081980143   10.40628224697251    3.73528758154808
O        -0.95311684764591    1.77683498910969    5.09200235111076
H        -1.51847255444402    2.43904471529372    5.54894995859627
N         0.35599902796879    2.13903468387116    5.40911877279594
C         4.11139850329800    2.20007492836205    7.78046754001437
H         4.14180058030781    2.58915266970029    8.79480079583905
H         4.67417545723172    1.26941383643409    7.75339845483869
H         4.59780341309923    2.91246450116719    7.12014806539186
C         2.67433456869190    1.96756676742683    7.33990861782215
H         2.09817556936912    2.89599845070551    7.43047542342229
H         2.20835101078689    1.21784102521359    7.98332615774543
C         2.61254800728220    1.50521005970043    5.87671078052383
H         3.23542201019727    0.62104127802509    5.74044306897560
H         2.99282476483345    2.30859568990667    5.24171308709102
C         1.20388942908411    1.18702069944242    5.49605150384728
C         0.81926289835773   -0.23365376153509    5.24003047391686
H         1.45609187267057   -0.89999616531134    5.82344448986501
H        -0.22353464283351   -0.38942695188092    5.52375273710205
C         0.97439535539724   -0.54945225322387    3.74394698833542
H         2.00289057878828   -0.34837594823344    3.43754376371072
H         0.31912073612187    0.11217493709066    3.17621765233052
C         0.62118756508960   -2.00039437357070    3.44966749799861
H         0.73096532992362   -2.20641198912285    2.38803951188521
H         1.27431454945290   -2.67481684234532    3.99961335075898
H        -0.40724530444532   -2.20842957644096    3.73544825141097

