83
CSD_code = BADBIS | q = 0 | S = 0 | Stoichiometry = C40H36O2P2PdS2 | MND = 4
Pd        2.93110422886620    2.99655623796726    4.99486101903353
S         4.49768785431020    4.31627655849460    3.85238180937684
P         1.78785552087153    2.61018580230519    3.06959706529633
O         3.02294946430426    5.69038278030415    5.44956001375230
C         3.91637251129868    5.74133533947356    4.61516236263182
C         4.59061366416524    7.02306375868627    4.21415290960161
H         3.92106361304838    7.86259163128180    4.38684333623589
H         4.89508757960952    6.98293209167626    3.17228936617338
H         5.47967544615870    7.15211790091224    4.83126722688963
C         0.72061347759547    1.17039440417111    2.74277597986638
C        -0.50706511661398    1.11407838913748    3.39857605209490
H        -0.79750159982751    1.91928765007368    4.06098957028874
C        -1.34401200467930    0.02973393702451    3.21285474154038
H        -2.29386248877312   -0.00940032476779    3.72628752278816
C        -0.96244599752695   -1.00549679162012    2.37399791840416
H        -1.61583736434297   -1.85379683337349    2.23065644522450
C         0.25904057943452   -0.95266666785167    1.72314666054597
H         0.55847118842076   -1.75988058254715    1.07054831285587
C         1.10246053561647    0.12862294674797    1.90687960835433
H         2.05847541622921    0.16200382256480    1.40510548029475
C         2.90954982527087    2.63307520384224    1.63985413950272
C         4.01914841775753    1.79484684740335    1.75481963709881
H         4.13302509034237    1.19453224849063    2.65257515960734
C         4.95995970703392    1.74909746842838    0.74528599737795
H         5.81803288229471    1.09878050813536    0.83363799778361
C         4.80943746602577    2.55146639577016   -0.37565893773919
H         5.54759424681976    2.52242900427206   -1.16394231861922
C         3.72492478099605    3.40530485133519   -0.47692481905590
H         3.62022000762822    4.04569067164589   -1.34106707655770
C         2.77386995288466    3.45297443317429    0.52892439252421
H         1.94335213393168    4.14002298947800    0.45400486451137
C         0.56682733719996    3.93693122724923    2.84160763441313
C        -0.26640397583795    4.00116864139888    1.72744986490256
H        -0.19152644790150    3.24710292312944    0.95503314003734
C        -1.19769632575258    5.01731678918742    1.62574148351345
H        -1.83992942518838    5.07318025668398    0.75850574152701
C        -1.31475893211973    5.95964361676039    2.63680165954108
H        -2.04447118282318    6.75151867729618    2.54992625737259
C        -0.51194346480949    5.87749675087317    3.76207298397064
H        -0.61742589099899    6.59997728593794    4.55783354876750
C         0.42504853237067    4.86412953724298    3.86908402098181
H         1.05031885068687    4.77913619660405    4.76217108644176
S         1.36514972089888    1.67671492360711    6.13739339450658
C         1.94601202550277    0.25175598659893    5.37405532441404
O         2.83979373413917    0.30266980235256    4.54003394750490
C         1.27192653235673   -1.03000498070171    5.77521822585422
H         1.94156905386686   -1.86951675399759    5.60280308869599
H         0.96720099117950   -0.98975692199792    6.81700524261254
H         0.38303156191554   -1.15920595950335    5.15789717481514
P         4.07484430973391    3.38295469690840    6.91979027995610
C         5.14210903141804    4.82273529743059    7.24663576202801
C         6.36977944391724    4.87906431333169    6.59082488233315
H         6.66023330557737    4.07385263880495    5.92842140463444
C         7.20671335225545    5.96342126093966    6.77652998452654
H         8.15657263050355    6.00254865221567    6.26311308211530
C         6.82514323498839    6.99866250090267    7.61537046929692
H         7.47853693367550    7.84696077542651    7.75871389685262
C         5.60365162838216    6.94583594944974    8.26621245676705
H         5.30421340286556    7.75305649635780    8.91879903050473
C         4.76025093041195    5.86452858096060    8.08250399952686
H         3.80422520999460    5.83115780898797    8.58425848502330
C         2.95318657923943    3.36004953113292    8.34958329445841
C         1.84359153781285    4.19830074768414    8.23471001593691
H         1.72966834419216    4.79864487836372    7.33698625109790
C         0.90281039698504    4.24400825612247    9.24427798079076
H         0.04472352220873    4.89431013701306    9.15597261059666
C         1.05335656462478    3.44158577263347   10.36518048967000
H         0.31521161703947    3.47057471741746   11.15347803408974
C         2.13787507679515    2.58774376321426   10.46637712715245
H         2.24260678821648    1.94732337479848   11.33049084615624
C         3.08889439917328    2.54010831444905    9.46048956562477
H         3.91942657672369    1.85307738298317    9.53538370442658
C         5.29587713555567    2.05621538629455    7.14782380615265
C         6.12909242832011    1.99196359136236    8.26199571110976
H         6.05422712883299    2.74603401810059    9.03440657897229
C         7.06038807840743    0.97581367263039    8.36370486578424
H         7.70261074831300    0.91993877741112    9.23094659721209
C         7.17747010519113    0.03350360081599    7.35263069784587
H         7.90717134596844   -0.75837941606128    7.43951218861506
C         6.37467996160791    0.11566937158353    6.22734426956157
H         6.48017725559325   -0.60680050616363    5.43157780314786
C         5.43768106281457    1.12902771059992    6.12033624241887
H         4.81241621910518    1.21400727438661    5.22724132894728

