41
CSD_code = BADCOA | q = 0 | S = 0 | Stoichiometry = C13H19N5NiOS2 | MND = 6
Ni       -1.48475827997824    2.67438149225841   13.98384270341884
S        -0.46128474756274    6.66446191110054   12.39716943599756
S         0.57729065775623    3.17267456815839   17.78018869678049
N        -1.54134194702174    4.22363157024794   13.07066574318651
N        -1.09100557468773    3.59169999377122   15.61882334635596
N         0.68107051530329    2.24538416646078   13.43193492431653
N        -1.24940812874181    1.00628314646877   14.85601811261864
N        -3.81742433818652    2.83125793524304   14.27068549005180
H        -4.18154869292237    2.65741066187710   13.33258698495579
C        -1.03319752439541    5.27257822003829   12.87332190804809
C        -0.35811005138240    3.40525453438086   16.52164542096619
C         1.56062523430221    3.09754740704179   12.92188188237283
H         1.24478134515682    3.63628693784289   12.03797152875148
C         2.81197088362052    3.31705637110310   13.47565731900265
H         3.48399876540924    4.03361532717464   13.03177856718737
C         3.16512935545153    2.60744230561212   14.61169051578517
H         4.12081591131211    2.76491811731354   15.08791442470165
C         2.26492908928585    1.69734895526072   15.14124100244046
H         2.50306283451125    1.16700308380363   16.04861220921920
C         1.02646046323920    1.54097109653655   14.52527754717496
C        -0.02739223023485    0.66659864891660   15.06615357558427
C        -2.30498240493344    0.19267818260589   15.40754220299912
H        -2.36161369657737    0.39022604887953   16.48612331064062
H        -2.06052161575471   -0.86990998593083   15.27780228729992
C        -3.67818923661291    0.42816945197517   14.77646917184518
H        -4.33195294075813   -0.37783731631210   15.11574650534773
H        -3.58505443071459    0.35948637229998   13.69052617479383
C        -4.30645160068959    1.77083458888740   15.14333463352999
H        -5.40535431172843    1.68957975783111   15.08466151900699
H        -4.04539834840557    2.03509315606605   16.17224131159045
C         0.38262544052129   -0.53720320747112   15.85432025752845
H         0.10466875587803   -0.40133305587537   16.90016327385910
H         1.45259844309884   -0.70458383671905   15.79000815080888
H        -0.12543419162247   -1.42996210053623   15.48922477500278
C        -4.29503315277874    4.14248324260439   14.70348815088041
H        -5.38831315012913    4.16237236894047   14.81023002034437
H        -3.98979656262297    4.89424216814433   13.97985249251120
H        -3.83842792099121    4.38803756072167   15.66102949450929
O        -1.93723703093256    1.65111434108605   11.98348773853460
H        -2.16496124458640    2.43984627460287   11.47676330430788
H        -1.02933433989642    1.42805953759328   11.74842388574855

