73
CSD_code = BADGUL | q = 1 | S = 0 | Stoichiometry = C27H43NOsP(1+) | MND = 9
Os       21.79973450233652    8.16214607445144    2.40373028179413
H        22.56307795042842    7.81980686213756    1.11315530349999
P        24.03816696879285    8.49423855243463    3.26265590433926
N        21.37681532669479   10.53687988286853    0.34438973374093
C        21.39610686331591    9.87291682696178    1.46003897712858
C        21.30813888467507   10.35358934955798    2.78660862378465
H        20.38333826346528   10.13627690889064    3.32056238492049
C        21.94905000133841   11.56569809738254    3.31052775088295
C        21.91216006841498   11.75301002454304    4.69986391105835
H        21.39756420611812   11.02574543398486    5.30912897523894
C        22.50904998280168   12.83447096034177    5.30914916515169
H        22.46750742660466   12.94228819709383    6.38182215752326
C        23.15319848849415   13.78410025404259    4.53217902087537
H        23.63355431175693   14.63338022105687    4.99119123737701
C        23.13790815611796   13.65354707124517    3.15706117242446
H        23.59398772286557   14.42154712167486    2.54959654778251
C        22.54111296882869   12.56883099282725    2.52284856641587
C        22.50780319543809   12.58926084619521    1.01630370865119
H        22.58848449239441   13.62885053635888    0.69407232901386
H        23.37217963409921   12.05653805988726    0.61260275932105
C        21.24081755542101   11.98460146763235    0.40400828026788
H        20.36985391506358   12.25059699213795    1.00840863351153
H        21.09739353428710   12.36524604668215   -0.60656627215480
C        21.58105420069265    9.93816931632058   -0.96019892739134
H        21.94835979910023    8.92084237330548   -0.81236731644998
H        22.33613069764688   10.51929741321809   -1.49644913197768
C        20.28024360776963    9.89411366314955   -1.76803091666642
H        19.85826946582716   10.89668273322053   -1.85592647148126
H        20.52042832876667    9.54724061892930   -2.77310926256930
C        19.25653021595539    8.96063375518591   -1.13800180115711
H        19.64423210771073    7.94600244915107   -1.10330056584111
H        18.33919522624967    8.95827500937304   -1.71952433844702
H        19.01819783355699    9.27675578642316   -0.12463155952487
C        20.14517348468700    7.50108863154060    3.98869664012640
H        19.78653306385359    8.01701525932714    4.86555598444305
C        21.14241271050672    6.51309699748908    3.96909469950017
H        21.65724514327384    6.12318549846447    4.83205757715539
C        21.21570974642801    5.97975321462049    2.65415823387508
H        21.73884272974866    5.08066393349576    2.36032531003746
C        20.23072444294644    6.64288739199018    1.86403888632752
H        19.91439871343568    6.34694405908663    0.87512597252043
C        19.58738186079798    7.59530386485199    2.69244441934841
H        18.71495358901977    8.17291259752409    2.42226833189554
C        25.16898922614778    7.00686869320680    3.18358141606667
H        26.10735786719360    7.32312301938111    3.65028597263800
C        24.59006050563323    5.84223291635982    3.98312749116399
H        23.74505353345788    5.41092557081979    3.45469478641324
H        24.26633844611037    6.14470230614472    4.97529612058485
H        25.34522057530478    5.06712305431844    4.09952011431634
C        25.44379749829969    6.55093089557767    1.75403458108441
H        25.86990458425863    5.54993788925058    1.76979470641091
H        26.15304668531591    7.20113800258822    1.25325217863389
H        24.52168364746136    6.52224205157910    1.17611746179677
C        24.16977468408224    9.08489598160669    5.05073014013094
H        24.13635422928124   10.17775712018721    4.94704148808740
C        22.97045128528773    8.66672050730495    5.89709461064878
H        23.01619276494302    7.61181336692184    6.15659302540399
H        22.03690148358003    8.85892321797573    5.37767988314961
H        22.96447880759697    9.23299514260487    6.82654611856325
C        25.44695511747495    8.69857004431133    5.79716963736046
H        25.47607402333423    9.25341856197421    6.73365684537359
H        26.35173139449705    8.93232376717490    5.24785053975896
H        25.45943487833953    7.64083213255842    6.04485196693724
C        24.94752601638389    9.89590462773259    2.39690561347243
H        24.32891445130837   10.76592671373541    2.65720043843811
C        26.36961512054107   10.16484591647153    2.88467438566313
H        26.99873785615993    9.28304063080173    2.79662356857491
H        26.38690107838426   10.52438037018038    3.90835660537418
H        26.80811860984348   10.94308185191719    2.26252153197144
C        24.95078901747389    9.76373213569545    0.87538962470413
H        25.19731770118815   10.72524613111487    0.42889883660518
H        23.97972454065906    9.43666517573203    0.51394688354061
H        25.70113298274651    9.05497085769390    0.54329851080634

