53
CSD_code = BADKAS | q = 0 | S = 0 | Stoichiometry = C17H23CoN6O6 | MND = 6
Co        3.37901559263932    3.19668616936427    3.51882442503613
O         1.16718551310176    4.18601208246774    4.92871509739003
O         3.72921351348557    3.09009662582499    0.64795689813545
O         3.08990373367355    3.43968416654848    6.37990831858284
O         5.47933124703198    2.00074947098981    2.10545977344038
O        -0.34113802984145   -2.65331095286322    4.47947804636423
O         0.75101797428972   -3.30779642226202    2.64479536321869
N         1.70384200072401    4.02034852380459    3.76491724627191
N         2.94778106953339    3.44713763285086    1.69839160940630
N         3.84337063526549    3.01573798237920    5.33011911271771
N         5.03601702277340    2.33861258501833    3.26593606326393
N         5.31094497537676    8.10423356061281    4.29893105963193
N         2.44302777619669    1.34249601757165    3.51707101938253
C         1.07606442770174    4.33390299658680    2.66888152809583
C         1.81035720095652    4.01688849602059    1.47292242998818
C         4.98086623182851    2.44565873038785    5.55647034599937
C         5.66890662203012    2.03458278773314    4.36265673839210
C        -0.28500606477402    4.95217558814243    2.65077004298157
C         1.28489286158675    4.31945121285871    0.11041704205767
C         5.54261972359323    2.22178658260619    6.91965087059899
C         6.98103829518571    1.31888227006951    4.38126309840712
C         4.32572768840051    4.96183847136860    3.52159754760750
C         3.77037731495484    6.03558962617444    4.46384758781875
C         4.61930075773319    7.19690214461286    4.38300723977023
C         1.53180677767960    1.03735068739155    4.44048954933519
C         0.87780952184402   -0.18061089435187    4.48263777635421
C         1.18168066317535   -1.13503192280364    3.51689937497901
C         2.13383997368210   -0.81613952359736    2.55251429733637
C         2.73529858203008    0.42765492710177    2.59247423568246
C         0.52795155408323   -2.47130712359560    3.48026625021882
H         2.22654616868900    3.81857624144591    5.93100486321701
H         4.55813467241513    2.64582015540425    1.08949437334708
H        -0.74292901240716   -3.53431938434652    4.41855892271742
H        -1.00531516239144    4.29061877842508    2.17101378980099
H        -0.27234012144227    5.89588139428219    2.10806910508430
H        -0.59881420060726    5.13167619505370    3.67694572989411
H         1.17941150467358    5.39545807645856   -0.01676218128817
H         0.30588077583289    3.86524569505728   -0.02807355346796
H         1.97201937186311    3.93857601569508   -0.63985421153013
H         4.81864698894344    2.52753388946298    7.67040416315800
H         6.45319585262957    2.80606813081631    7.04462400755570
H         5.79289648467777    1.17205990473855    7.05969488166767
H         6.89211104309298    0.35612165368979    4.88333797988208
H         7.73387886907592    1.90928826980392    4.90081738943420
H         7.30024070592106    1.15559432922975    3.35421934119832
H         5.37185433662185    4.79005531504913    3.79352702642543
H         4.32393884346737    5.36666699701304    2.50539515514023
H         2.75770249118436    6.33803271664896    4.18765551178950
H         3.76059602382091    5.70052777428470    5.50407086324443
H         1.29940115064464    1.79635116014424    5.17524774903706
H         0.14683833681782   -0.38412432754945    5.24775304948196
H         2.38985794558579   -1.53628044990526    1.79177397222244
H         3.48650177495038    0.68790897008494    1.85901208352503

