45
CSD_code = BADLIC | q = 0 | S = 0 | Stoichiometry = C22H15FeO4PS2 | MND = 5
P         3.87639013056816    3.17503104833516    3.05821400390742
C         3.74050179770603    4.02185856363477    4.67737246953876
C         2.62904032676851    3.94102049233019    5.50715696503713
H         1.79755575585538    3.30375014452440    5.24313840755777
C         2.59676881436150    4.67505273210463    6.68040328366738
H         1.73355615227487    4.60789420860219    7.32578203068584
C         3.65973002503460    5.49270982034156    7.02461968311999
H         3.62704485871937    6.06381074742819    7.94030879248600
C         4.76532420640769    5.58129372902070    6.19253340862292
H         5.59436691610388    6.22079359056598    6.45618075885626
C         4.80462386404370    4.85288949638591    5.02019558039606
H         5.66239220106030    4.91507478304901    4.36059677513942
S         2.38498101817052    1.71105475762091    3.29951737602831
C         2.36581493740513    1.15334019465061    1.59830513020288
C         3.28523154511172    0.20822038887839    1.17533652007768
H         3.99740296684745   -0.20239374301845    1.87533013382935
C         3.27161186232734   -0.20046720746082   -0.14685745732106
H         3.99259789274032   -0.92824521130886   -0.48724631491331
C         2.34258874854280    0.32525925738018   -1.02927673206649
H         2.34120401621973    0.00881081426348   -2.06135079599624
C         1.41359648490730    1.25393356102758   -0.59025716150635
H         0.68392346088105    1.66025425790728   -1.27430286047003
C         1.41988331845028    1.67169078051625    0.72915791162637
H         0.69533871335980    2.38668846603104    1.08850489241357
S         5.70355966345401    2.09761219030118    3.27100405963407
C         5.32030683578491    0.72778986705907    4.35496288132812
C         5.69884506224917   -0.54183171248339    3.94125525171042
H         6.21671325394037   -0.66286320286792    3.00152402888453
C         5.41840895575621   -1.63308279885321    4.74284603782865
H         5.71165117759619   -2.62132843111138    4.42149813740564
C         4.75665009018825   -1.45874640993938    5.94738534539683
H         4.52860429506252   -2.31298339897108    6.56679854785255
C         4.39331053132147   -0.18778145640042    6.35832739397990
H         3.88531021745519   -0.04512223620400    7.30016372532153
C         4.68189076753025    0.91249069561391    5.57006456024449
H         4.41233795319351    1.90402754757084    5.89963561931899
Fe        3.92602244998431    4.52078883794950    1.28134804668114
C         2.38058369154423    4.71812560478048    0.43478456740644
O         1.41872859089219    4.89144931218483   -0.16727214340031
C         5.56829986318800    5.16349541154098    1.06654167568933
O         6.60732082969370    5.61125822620892    0.88471775338609
C         4.30781874375663    3.35073444495243    0.01844917702118
O         4.54255889661859    2.64654518674875   -0.85482928985326
C         3.53560662005092    6.02130102028029    2.12065639779447
O         3.28580149686182    7.01729562884433    2.62977542543121

