58
CSD_code = BADPUU | q = 0 | S = 0 | Stoichiometry = C24H26N2O3S2W | MND = 7
W         9.16498626259449    5.04322801938539   12.62855520377436
C        10.29415001094495    3.35406545985506   13.25683641195724
H        10.40585014428159    2.27591841352814   13.29264663899291
C        10.83770736127704    4.39085379813038   13.78807215311685
H        11.64323618043159    4.61206338855536   14.47835251977786
O         8.05656084172625    4.88685123516725   13.88282957648283
O         6.51354837250331    7.29702832968164    9.95164615244517
C         7.44677944710687    6.38887065894326   10.28346613945646
N         7.66703497253270    6.22725885039695   11.54529578866816
C         6.55379964543007    6.89646315683623   12.25505056436409
C         6.02769028180000    7.85420049280088   11.16682628178302
H         4.93923116897807    7.89424289882581   11.11940367382467
H         6.43200063073050    8.86838356667415   11.27286402623081
C         6.94823249229148    7.60793315799464   13.53995249463503
H         7.57892670695420    8.47012715963842   13.34329866822835
H         7.48207252858142    6.90604144317590   14.18756878343297
H         6.04864268314807    7.94415834629919   14.05041474525673
C         5.53322049932571    5.79163978124117   12.56011791636584
H         4.68466616799443    6.19776505317756   13.10451703597657
H         6.02352117075809    5.03061382663452   13.17219548996580
H         5.18164983334093    5.32845637037614   11.63846161823580
S         8.21725137860540    3.38939833230164   10.89319364793190
C         8.25636534593419    4.22909858891957    9.36933351381502
C         7.97775740305646    5.60157588426688    9.18953490743190
C         8.01384748155263    6.16171381966536    7.90896090831499
H         7.76160069963580    7.20556277595475    7.80236848652598
C         8.35603695620536    5.40412600303646    6.81181250098148
H         8.40666310203418    5.85483558015119    5.83292975347993
C         8.60127794423949    4.04330434139370    6.97466714251089
H         8.84042730741062    3.43214428790539    6.11674562273779
C         8.53045660247246    3.46829482100725    8.22279025923124
H         8.68599618282745    2.40757394836914    8.34994237329472
O        11.19830899610589    6.65432520166975    8.98056917963920
C        10.51956761987083    6.64472994855876   10.13986066623816
N        10.61647655009914    5.56678483347749   10.85438487408267
C        11.71990074799530    4.77365064409843   10.26487155043647
C        11.84298637132417    5.39709854832412    8.85846432725807
H        12.87597269654536    5.56456533843051    8.55141258952844
H        11.32084257885888    4.80668488013949    8.09582803496124
C        11.48655372566664    3.27221977719884   10.19877262194804
H        10.61616786736429    3.03038546322453    9.59670217182120
H        11.34537915298786    2.87087195016710   11.19918907722521
H        12.36038152088217    2.80352229724981    9.75047583377618
C        12.96914425486176    5.07297236500962   11.10468545299597
H        13.82740822358062    4.54051139630048   10.70182587723059
H        12.80088437243399    4.75433072143713   12.13146321560145
H        13.17973341050691    6.14161199181698   11.10583853325224
S        10.18993493817596    7.32829730649183   13.19975759586102
C         9.78999721601987    8.32344911722655   11.83831453310601
C         9.89924727795203    7.90410824424740   10.49259300432777
C         9.57882053781675    8.79537624070107    9.46042748451248
H         9.68814021748473    8.45554993983456    8.44205622544792
C         9.13741680154986   10.06940455221027    9.73002430921246
H         8.86794800701070   10.73408980468440    8.92403853082276
C         9.07360264791824   10.50410190375087   11.05259503325361
H         8.75938867335859   11.51365705553934   11.27347491252704
C         9.41519939396731    9.65461683524521   12.07812091169864
H         9.39500839294707    9.99129185268585   13.10370245398479

