81
CSD_code = BADQON | q = 1 | S = 0 | Stoichiometry = C32H42N6Rh(1+) | MND = 7
Rh        3.78530076765766    2.02249689773819    0.92044667407638
N         4.19129455993921    1.56990063792099    3.42378719545993
N         4.91959513589500   -0.42092538566368   -3.53406022716407
N         5.83951001996453    1.10771265907646    1.05268640622499
N         7.16784634076980    1.45215182772774   -2.36209523399565
N         2.88281499277825    0.18516333982402    1.32839711082659
N         2.21624818478627   -1.20188357854065   -1.96596287008829
C         4.49893137318887    4.00808373870094    1.32067284802272
H         5.39803829515292    3.92295662417067    1.93118223697026
C         4.62820219548739    3.77869697858766   -0.04013888943835
H         5.62543638907584    3.54400858135339   -0.39891654483133
C         3.71425195642067    4.40416487526338   -1.07197925008914
H         4.28210646780048    4.59540383484243   -1.98407635401136
H         3.36965051934658    5.36962308381304   -0.70079172193212
C         3.43058731286351    4.89109588042950    1.91750530014332
H         3.63896502271586    5.92654878106653    1.62929300458903
H         3.50150943723835    4.84799154799722    3.00350641730678
C         1.91323466071448    3.04228304383583    1.05996685375211
H         1.21587041003552    2.45346688244317    1.65646690118087
C         2.10784293920375    2.61175691954182   -0.25738685687767
H         1.52275991195527    1.74987983311936   -0.57129933141676
C         2.51539274489483    3.50180904075867   -1.40738479038320
H         1.65537030754900    4.10816522247153   -1.70968211682064
H         2.77038587664931    2.86677613689064   -2.26097505196087
C         2.01022994565189    4.49488317839527    1.47761916578273
H         1.31904263816469    4.67559459618057    2.30178662930026
H         1.68173660690262    5.11770229602189    0.64424188317960
C         4.47718224476761    2.55660990004564    4.45371554523841
H         5.41863798272201    3.05418930210450    4.22962095542036
H         4.55498236011234    2.09409094663853    5.44747321759513
H         3.68401531707650    3.29949310419360    4.48522460341030
C         3.82940058717055    1.22858440023716   -5.45247469213194
H         3.40203758236715    1.87353414430905   -6.20625168622469
C         5.27781098961538    0.59300255247120    3.36060800075472
H         4.86829446410744   -0.38570918643609    3.08791896437994
H         5.77785294970517    0.48549854731602    4.33220539648015
C         6.29530817655924    0.93432697681361    2.30096826786359
C         7.64694997149220    0.95567704901402    2.60562094723231
H         7.97175310991927    0.83665270208688    3.62703451013843
C         8.56841250585449    1.11957945394791    1.58225217127119
H         9.62528398601254    1.16144436564970    1.79419476226379
C         8.10033541126436    1.17353516640682    0.28438105161881
H         8.76292989060345    1.22072506524317   -0.56402941515666
C         6.72914766444307    1.15881303580117    0.05337661935677
C         6.21135931269885    1.04798272644271   -1.35302448242676
H         6.00187763751900   -0.01568627024643   -1.51220419714536
H         5.24642572074643    1.57961965251545   -1.43618503243345
C         7.15012431132291    2.87403578921046   -2.62316875804123
H         7.91425579710831    3.11210913500088   -3.36046917442675
H         7.39458048556317    3.40596806904426   -1.70353317540998
H         6.17883103796998    3.23512861915748   -2.99398475560831
C         7.07208341864921    0.63488685498710   -3.56950419511208
H         7.42770359591936   -0.36735377381764   -3.31468226027092
H         7.73364589830888    1.06226294057962   -4.32338960580570
C         2.90371302620671    0.93627794089673    3.68302596588416
H         2.15138500933523    1.72904936311403    3.75479242951013
H         2.90894698498983    0.39846100747895    4.64586269238754
C         2.49477719834453   -0.02853189792741    2.59821987210938
C         1.72384743466100   -1.12467757736679    2.95853056991232
H         1.42020461434974   -1.24629960450945    3.98612061239110
C         1.35182203546873   -2.04898456518675    1.99727362464753
H         0.74164264681667   -2.89996072541526    2.25445599577295
C         1.81166909610413   -1.86171311204934    0.70974582364709
H         1.59333104936827   -2.55664680495809   -0.08417289149407
C         2.57395696697834   -0.73881525504930    0.40747361166694
C         3.11070805884709   -0.60720122043600   -0.99255414481674
H         3.34430257129543    0.45308488363617   -1.19822335291567
H         4.05365711162834   -1.16240898090269   -1.02974244562272
C         1.05308750914970   -0.38533307053255   -2.23591335185245
H         0.39067709352083   -0.92455178163085   -2.91027998488368
H         1.29853758261298    0.58669918397990   -2.68878757414132
H         0.51635353539088   -0.21380021491889   -1.30249458060315
C         2.89544976932741   -1.65976487748682   -3.17237472857246
H         2.14183144497006   -2.09855554568779   -3.82862067530570
H         3.60238666640138   -2.43930841821072   -2.87712606904512
C         5.66320716111629    0.52211798491299   -4.10037041582937
C         5.15173788713712    1.38135628930464   -5.06626244793459
H         5.77673037550170    2.13774806632138   -5.51514517134463
C         3.65594120351771   -0.57797119857366   -3.90283770298785
C         3.06478052397223    0.23200466916570   -4.86729816133402
H         2.03933802058568    0.07501671934973   -5.16390046987717

