61
CSD_code = BADQED | q = 1 | S = 0 | Stoichiometry = C24H32N4Rh(1+) | MND = 7
Rh        0.06746444874548    3.07393700123154    1.00488086982308
N         2.59221190600047    3.23463696293504    0.45694999572852
N        -2.81819736783680    3.88624153988217   -1.24827027355382
N         0.20234967882723    4.84683480025271   -0.11295006953684
N         0.19074164250802    2.39551427201590   -1.00731901692188
C         0.49470586993294    3.91868546541906    2.92642407703619
H         0.98331716187641    4.88284881130473    2.78308661007097
C        -0.88716266280622    3.87860994829671    2.77562522247422
H        -1.37866582333253    4.82012192668403    2.53464379603911
C        -1.76056784238458    2.87370373092537    3.49692180003085
H        -1.30669773005310    2.65097715279102    4.46335776680000
H        -2.73393447304667    3.32416693406961    3.69459634050409
C         1.25257748086424    2.97391281989306    3.82615956820317
H         0.97525587885927    3.19084442630214    4.86279789723095
H         2.31836451230142    3.17563744008775    3.73692181835251
C         0.50524393633023    1.26704006904183    2.09255618124043
H         1.17244660984167    0.66698585208334    1.47512138664212
C        -0.83853427299642    1.26875227267644    1.74132704177098
H        -1.12968129087663    0.63005713922626    0.90637677271044
C        -1.96977687296922    1.57473739685460    2.69565924431596
H        -2.89789868094535    1.65101780964556    2.12477143950804
H        -2.08955447246776    0.72866220643942    3.37956437798617
C         0.98318241031642    1.49160694304011    3.50993353746458
H         0.23254177670289    1.09020521088625    4.19237314664249
H         1.89927009856660    0.92280943932660    3.67112897509202
C         3.73116975285368    2.90948115346329    1.30637866324901
H         4.68177973714818    3.00418515214390    0.76442700353982
H         3.63680772551793    1.88848074803674    1.66875571638332
H         3.75951255137494    3.58143659565134    2.16012900606402
C        -3.13960164996385    4.36849180927135   -2.56843805299465
H        -3.73950895756900    5.27263881530362   -2.47208192159576
H        -3.74542850575139    3.61816465760601   -3.07503961659187
H        -2.26346949128950    4.59350842363054   -3.19426268175581
C         2.65424383333720    4.64842325213674    0.09595010782062
H         3.51856651825005    4.85042681476637   -0.55851164235566
H         2.80328270185765    5.21565286164210    1.02158555021705
C         1.41610977635649    5.19866763341041   -0.56410640425996
C         1.57803509270782    6.11489693947949   -1.59568247124116
H         2.56961233402562    6.37217602559059   -1.93228534899634
C         0.46671334507427    6.70802609822673   -2.16631066094206
H         0.57118990770010    7.44279735999361   -2.94865422593416
C        -0.78023886981818    6.32655007304753   -1.70864565309756
H        -1.67429698424815    6.76873749074279   -2.11641210759579
C        -0.88335270236837    5.36798766741841   -0.70593643700031
C        -2.25817827652022    4.85783735384994   -0.33145939164944
H        -2.22273796711262    4.38026059225187    0.65225931883379
H        -2.95144296271934    5.70345801917853   -0.29292082308037
C         2.63509709521275    2.36771275359279   -0.71742175951488
H         2.75680702271927    1.33921230451350   -0.35928045342951
H         3.50940699784280    2.60354879910834   -1.34718242759756
C         1.40225849933171    2.39407576675914   -1.58080778542215
C         1.56338485526673    2.35337453561644   -2.96002671851711
H         2.55481889481285    2.35589392066770   -3.38398894137129
C         0.44947133859865    2.28474893409067   -3.77663403672025
H         0.55121537843440    2.22494916384363   -4.84854771737917
C        -0.79655736503758    2.29872914289255   -3.17891495233023
H        -1.69245088632335    2.23336183570174   -3.77408856720278
C        -0.89596872091260    2.38950890065504   -1.79440694368269
C        -2.26608762301788    2.54904525140772   -1.17356492878653
H        -2.96663096506227    1.88059071313920   -1.68322361431727
H        -2.22373335266606    2.28131486985837   -0.11408758639991

