76
CSD_code = BADQIH | q = 1 | S = 0 | Stoichiometry = C31H38N6Rh(1+) | MND = 7
Rh        0.44772025365150   -2.01900814607579   -5.14768654435766
N         0.19515094309610   -1.79018606021335   -2.60902574926061
N         3.73985908066133   -4.09810216539706   -8.46489358011323
N         2.46984534075766   -1.59205012919912   -4.39715807948110
N         4.39565953312140   -1.16386419342708   -7.50097014390279
N         0.41926400971118   -3.97691520236824   -4.37819463510453
N         1.36871173169947   -5.90509191335530   -7.29702347081229
C        -0.27767182516525   -0.02543662650182   -5.31419595696349
H         0.05841265785985    0.68393857549520   -4.57081672894601
C         0.37509121895201   -0.34973493778664   -6.49322131501391
H         1.29307929695789    0.09489383184373   -6.84721239207029
C        -1.61830618135375   -1.93210717273022   -5.53041975618110
H        -2.28592615524634   -2.58415280851698   -4.98214195505747
C        -0.96307861419295   -2.25486956248234   -6.72071646563700
H        -1.03509016863347   -3.19669438286914   -7.24677479901478
C        -0.41217236573895   -0.63099759863122   -1.97197941119588
H         0.21093746023347    0.24368833832571   -2.14703095370021
H        -0.51634285871854   -0.77142703527511   -0.88741211121523
H        -1.39733659035206   -0.44979501674492   -2.39631105769514
C        -1.74242323775015   -0.40830610452410   -5.51574424356106
H        -2.46578589104327    0.02303904544740   -4.83064842091649
C        -0.68673839198485   -0.92959795154824   -7.42634138425358
H        -0.44237137818650   -0.97558810652915   -8.48383815772617
C        -1.91945086143625   -0.11137938069597   -7.01299831228309
H        -2.85020243262748   -0.50500988252123   -7.41955818637535
H        -1.82908335362270    0.94747235391431   -7.25228286442539
C         2.77833458009712   -3.62295849468657  -11.00529099924411
H         2.40439262295454   -3.43914599233482  -12.00173581788221
C         1.57814180746581   -1.94574356370099   -2.16306655759738
H         1.83522995506467   -3.01090603298847   -2.16217022977233
H         1.71775560997385   -1.56620989796568   -1.14224438270088
C         2.55739247772706   -1.27735082732368   -3.09682801080279
C         3.56375628028228   -0.46373845820718   -2.60180656069983
H         3.58826586619622   -0.21324256647803   -1.55323971441932
C         4.53761447174421    0.01131756197862   -3.46761717935733
H         5.31782899396045    0.66578283326303   -3.11209072991251
C         4.51059914292287   -0.41430378684447   -4.78141562503535
H         5.27847114777641   -0.14648537798050   -5.48813843066813
C         3.46523597042958   -1.22221590167156   -5.21274793035710
C         3.49766804722324   -1.83285526698121   -6.58585729354976
H         3.86497596493822   -2.85638888106779   -6.45286505337361
H         2.46631737806761   -1.91366780066622   -6.97799994544951
C         3.77424738022423   -0.05071658732643   -8.18354498972562
H         4.51085000929096    0.43718839312211   -8.81880072936366
H         3.43872603148909    0.67332287965851   -7.44024146239162
H         2.91565024135002   -0.34766874063449   -8.80553181492518
C         5.07298393803278   -2.09849733954358   -8.39540402417856
H         5.74540139932528   -2.70573270774901   -7.78312265374911
H         5.66868300581017   -1.51887078669054   -9.10141166114248
C        -0.59464905416985   -2.98788548829960   -2.35480303071615
H        -1.63652758050782   -2.76097728144000   -2.60518895215058
H        -0.56840863082767   -3.26931002261850   -1.28916152895744
C        -0.15379969753696   -4.17312149830693   -3.17963334640240
C        -0.37270569329835   -5.44662194576706   -2.67266334274045
H        -0.84487544212237   -5.56288532715316   -1.71001793376066
C         0.01010131348236   -6.55410212789591   -3.41079559166144
H        -0.16463093243041   -7.55140444010542   -3.03972880628769
C         0.64018524426585   -6.34356988882464   -4.62141673188618
H         0.98484338948388   -7.15638974235820   -5.23877418798204
C         0.83372648112448   -5.04390551508847   -5.07294250413981
C         1.58218353354498   -4.82425604555823   -6.35941884977977
H         1.30735145269854   -3.83056832080759   -6.76800137071973
H         2.64876344782185   -4.79456626035887   -6.11563107245360
C         0.10566538128666   -5.78984313312790   -7.99230744611271
H        -0.05084134894301   -6.67956459888905   -8.59912725323729
H         0.05243948114188   -4.90592259420509   -8.64615361441377
H        -0.69648955188198   -5.73367567264930   -7.25612527708997
C         2.50288263931651   -6.14303250693461   -8.18178469143640
H         2.24749327983846   -6.98830123858305   -8.82336506991970
H         3.35456487181534   -6.42174870225974   -7.55599304751225
C         4.13128728917382   -3.02009825952773   -9.13464322215946
C         3.66682719191237   -2.73871573677582  -10.41458223792943
H         4.00564883348591   -1.85935366127742  -10.94006922657621
C         2.89674156373042   -4.95386741704030   -9.02752921668534
C         2.38544299779334   -4.75232637435828  -10.30544845092393
H         1.71150599679197   -5.47041662460042  -10.74632552480579

