33
CSD_code = BADXUB | q = 0 | S = 0 | Stoichiometry = C8H16N2O6Pt | MND = 4
Pt        0.00082084077573    0.00122739635073   -0.00027970684444
O        -1.44287012150215    1.29870896467880    0.54245161308620
O        -3.28547082805869    2.28284744128864   -0.18829017567807
C        -2.36773243501418    1.50532711818052   -0.31482843144809
C        -2.28583881082614    0.61369513056991   -1.61135752803355
H        -2.91612494645709   -0.26205526271997   -1.42562486940539
C        -2.80979450439143    1.39416848130095   -2.82878501786938
H        -3.65101251456265    2.00413138246344   -2.47433561663978
O        -1.74061191060115    2.22481244901609   -3.26077082692745
H        -2.09717004505812    2.98112653041339   -3.73251430081122
C        -3.27406983644751    0.47405459619868   -3.95888810017324
H        -2.44967194293648   -0.14014603504498   -4.31497378294519
H        -3.64121978615766    1.06547135293525   -4.79454664747978
H        -4.07774430031067   -0.16893694723099   -3.61276963688388
N        -0.88670726979938    0.19179962612388   -1.81472097289398
H        -0.43172661497218    0.96172612631903   -2.32500429837918
H        -0.82810906100764   -0.64074115376432   -2.40453613869158
O         1.44427302780396   -1.29655351792653   -0.54300621569390
O         3.28668763620236   -2.28109396587866    0.18763401884543
C         2.36890666157297   -1.50364247605137    0.31439525888071
C         2.28667927072410   -0.61291207156044    1.61151089552957
H         2.91787453333606    0.26242985436661    1.42693848191648
C         2.80912555074108   -1.39495336492718    2.82859386991363
H         3.65021547390282   -2.00511965934946    2.47418990702249
O         1.73901820211120   -2.22532768224723    3.25884735120187
H         2.09456154929995   -2.98190704412692    3.73076772536137
C         3.27308053492316   -0.47638458788380    3.96010236028234
H         2.44881182509276    0.13791186173539    4.31628672360564
H         3.63926225055967   -1.06891202793573    4.79539241613677
H         4.07735958917312    0.16648630817603    3.61522391516458
N         0.88775186288347   -0.18997419934195    1.81434568919031
H         0.43197071524019   -0.95973121273712    2.32420427869275
H         0.82947540376091    0.64246658860975    2.40434776196735

