33
CSD_code = BADYAI | q = 0 | S = 0 | Stoichiometry = C8H16N2O6Pt | MND = 4
Pt        3.29183452693578    7.19001033212153    4.53667863088684
O         1.75801153057790    7.17461087429908    5.84383418003939
O        -0.45443711411075    7.16459537639676    5.92447545570671
C         0.59392384590744    7.32120579644228    5.33763288608500
C         0.57518524408742    7.73289356835376    3.81987312761573
H         0.60097897040896    8.82590464277982    3.76756450858673
C        -0.69897878008860    7.17809551553657    3.15167795058472
H        -1.56000645427212    7.53759725392946    3.72954456804441
O        -0.63671708211285    5.76520722574170    3.18640757851092
H        -0.83092537712946    5.48134870222590    4.08769818078968
C        -0.83506965168475    7.61629142368185    1.69760906085744
H        -1.78040674481964    7.25683726106345    1.30218092494563
H        -0.03874208433626    7.19079447749794    1.09186265207924
H        -0.81198455107073    8.69990759953052    1.62509290646775
N         1.78003093387973    7.16622215818578    3.17992732258925
H         1.99215009880643    7.63855018015254    2.29853034442157
H         1.54793778944093    6.18715055602318    2.95296891014381
O         4.82581497044245    7.17564809424116    3.22958221163884
O         7.03827395689331    7.16677310114442    3.14889489970534
C         5.98985223767922    7.32261650791584    3.73582721964832
C         6.00858233471558    7.73364235143772    5.25378382870713
H         5.98335370926519    8.82662467812179    5.30653190970555
C         7.28220858081509    7.17785240224325    5.92218929398677
H         8.14361966027774    7.53641763245822    5.34435712642042
O         7.21859967541142    5.76502729139215    5.88777485858119
H         7.41296835388590    5.48062010432785    4.98670510376717
C         7.41849822638254    7.61620970716087    7.37619429758129
H         8.36296804887248    7.25524958492892    7.77214849705768
H         6.62123443782736    7.19236674059477    7.98173368799379
H         7.39725993565544    8.69979043406805    7.44837691305565
N         4.80347137385347    7.16724534987208    5.89337739809641
H         4.59094250253333    7.63983892381039    6.77453043400777
H         5.03556689507738    6.18825415231859    6.12073313169030

