33
CSD_code = BADYUC | q = 0 | S = 0 | Stoichiometry = C8H16N2O6Pt | MND = 4
Pt        7.21071312952172    2.55474777928556    3.77792730891662
O         6.63810106471701    3.47748342698486    5.47288128593469
O         4.95301016112713    3.77183162326761    6.88120876757069
C         5.43902396024693    3.31401590550212    5.87291395972158
C         4.53720327383286    2.45012350170859    4.92246931546987
H         3.86108142064882    1.83274215065350    5.52437144549781
C         3.68705803178598    3.37426034460074    4.03159895767661
H         2.85218697433025    3.74646397215876    4.64096389669620
O         3.18437606805392    2.55498704341853    2.97940298243958
H         2.64203243489402    3.10015246271698    2.40162511891406
C         4.48316449739334    4.56105254973071    3.49479638174108
H         3.92161389043436    5.07448607138318    2.71659188012190
H         5.44153506544011    4.23342981321057    3.08259956450184
H         4.68027285260825    5.26128964707225    4.30092481685869
N         5.38922928095104    1.59216585810734    4.06277334574146
H         4.82316472531667    1.37638459438015    3.23487419827117
H         5.57426153263381    0.71799332838947    4.55867667595836
O         8.97309118440713    3.51171927061496    3.62512453790902
O        10.73019868137575    3.84883003996005    2.31562180413973
C         9.66724167798038    3.33115406166996    2.57330678826633
C         9.04793980363024    2.35213620874624    1.51560597580556
H         9.85337457139401    1.71519289806421    1.12634938736646
C         8.45283583123556    3.15082660095730    0.33999313745990
H         9.26092983258384    3.74677217419268   -0.09955026313749
O         7.91544014842460    2.23893850783555   -0.61164489921976
H         8.62076984304923    1.90637744520202   -1.17466390043546
C         7.32274516961609    4.07290365584911    0.78175852955023
H         7.03674219439482    4.71823978857318   -0.04434939806820
H         7.64589204632917    4.69126987305156    1.61563415229293
H         6.45209030479438    3.48141456595395    1.06145296561271
N         7.97622145664079    1.52677553960175    2.12003843538023
H         8.38984689561308    0.67258837318906    2.50022301160982
H         7.34681199458519    1.25855092396280    1.35599983343219

