33
CSD_code = BADYEM | q = 0 | S = 0 | Stoichiometry = C8H16N2O6Pt | MND = 4
Pt        2.98631512542404   -0.00010374748694    0.00023556771685
N         4.08025635771209   -1.68560376242876    0.36872126907370
H         4.61302606932333   -1.55486924756409    1.23233626601147
H         3.50394263170245   -2.53000781062871    0.47569671968099
O         4.55497208908790    0.44421980882602   -1.20133342672269
C         5.34290874594531   -0.52689384551534   -1.46490492682176
C         4.98492324788901   -1.88960598697760   -0.78245736581894
H         5.91938818317979   -2.37260340041429   -0.46639033195727
O         6.30580784004023   -0.47743608009674   -2.19601284245799
C         4.27818561324247   -2.81270323295006   -1.80011047414792
H         4.98015603815517   -3.00480846640116   -2.62175154057524
C         3.00703060210848   -2.18894828952789   -2.36630067438227
H         2.54091460079085   -2.89387716542980   -3.04916438189558
H         3.25214368252356   -1.27999248304262   -2.90901123601977
H         2.29199305221896   -1.97116826717038   -1.56956957127446
O         3.91568213822511   -4.02112191482206   -1.15188266386344
H         4.68860063610866   -4.58672271905660   -1.06033982522021
N         1.89296461489244    1.68560730845989   -0.36878097544933
H         1.36028476458544    1.55490080433824   -1.23246378746038
H         2.46929537972253    2.53001507141099   -0.47560793484004
O         1.41766904992448   -0.44429571227769    1.20165115367500
C         0.62990865224615    0.52701148038931    1.46500406220892
C         0.98821155019594    1.88951981442894    0.78235631700255
H         0.05381549102798    2.37255115494879    0.46617196606577
O        -0.33313627691667    0.47772240332888    2.19593819278249
C         1.69483078340228    2.81267670053203    1.80004654940534
H         0.99278690848511    3.00476856442047    2.62162372774750
C         2.96595513947042    2.18893664088798    2.36631073118966
H         3.43203943083756    2.89388580079574    3.04918158655900
H         2.72086235767132    1.27998466344630    2.90903502403951
H         3.68102682403153    1.97116485988027    1.56960869059588
O         2.05735667682536    4.02114356397626    1.15192901878681
H         1.28438199992161    4.58665349172204    1.06023511636531

