31
CSD_code = BAFBAN | q = -1 | S = 0 | Stoichiometry = C14H6CoN2O8(1-) | MND = 6
Co        7.13190003525802   -3.33662502970923   -3.24550692386482
O         8.44861868449811   -1.96053757587209   -3.18337791917166
O         9.78700847193187   -0.90283531444128   -1.74601525324584
O         5.74305658535425   -2.03856394809470   -3.11620684350177
O         5.88218624533222   -4.73815692269715   -2.92317448411437
N         6.83380109745893   -3.21503343824582   -4.98777139012903
N         7.43575222440368   -3.45459925228941   -1.50400058468424
O         8.45419230992944   -4.60872213124938   -3.75930378977684
C         5.80616396047523   -5.13021377016883   -1.70441353629268
O         5.08372475338053   -6.00603368114230   -1.27048041911461
C         8.33522297924149   -2.64270686006617   -0.95547957347418
O         9.32043709247721   -5.57541927739832   -5.57349438763519
C         8.55283561961908   -4.81135427231306   -5.02186663343695
C         7.36699891022625   -3.87800083589735   -7.18441597380389
C         6.97410378228445   -4.47581098155552    0.56791966852368
H         6.41645302029609   -5.21091672729349    1.12676870882599
C         6.75851091178062   -4.35382398645306   -0.79565976816060
O         4.35136841753728   -0.85237221708113   -4.39390637669113
C         7.56391198420282   -3.95787489266647   -5.81492364952834
C         5.64818318023681   -2.24340250780261   -6.77639929769015
H         4.88627841855033   -1.55591278100971   -7.10886741386352
C         7.90821861448040   -3.64018934023490    1.16845159916654
H         8.09613085866610   -3.71405600083136    2.23023176497810
C         5.24072249640292   -1.66559069990058   -4.23576950976493
C         5.89794303132379   -2.37430697061617   -5.41950767028434
C         8.60080102940338   -2.70964405924040    0.40304793581720
H         9.33332560151638   -2.04330796839322    0.83093419287446
C         6.39549944737484   -3.00784152685585   -7.66445777247114
H         6.22209296789662   -2.92472095100617   -8.72801775596116
C         8.94104599187407   -1.73086825630551   -2.02166016440250
H         7.96851127658697   -4.48745782316901   -7.84047677912078

