40
CSD_code = BAFCIW | q = 0 | S = 0 | Stoichiometry = C18H12Cl3N6Rh | MND = 6
Rh        1.25157578995681    3.73611220584285    7.55840660517523
Cl        3.55330810909626    3.71588973734109    7.16802745354172
Cl        0.87810556372404    2.78170928383439    5.53287937469575
Cl       -1.04250340821026    3.77769544516793    7.98804024712819
N         1.13241144218774    5.52423109345788    6.67485428649601
N         0.97668701128640   10.10636643347938    3.93014107767175
N         1.59607723552936    4.61114720876879    9.41003534296140
N         2.50589347953135    6.89690952870937   14.14966208055701
N         1.35211848871739    1.90018193119263    8.34021989795456
N         1.30544334785053   -3.14944450720519   10.08732082236208
C         0.14771273372477    5.76628938778062    5.80324197600636
H        -0.60566148326570    4.99946425201787    5.68351823019002
C         0.06601826398108    6.93592681165571    5.07257943502538
H        -0.74467515138448    7.08529577126633    4.37723345943056
C         1.04974269415668    7.90876271567596    5.24384440216749
C         2.07295263567294    7.65708127029089    6.15942077074135
H         2.85754918236695    8.37880329122108    6.32355308927708
C         2.07137879951345    6.46100734645248    6.84729465552318
H         2.87082307649451    6.23874731929503    7.54218645180732
C         1.01108566990563    9.12202629901742    4.51394480020774
C         0.77999110160008    5.55959484061244    9.87843553371242
H        -0.07723376701240    5.80837649028363    9.26654446156495
C         0.97332781671218    6.17754846435450   11.09780711754274
H         0.28841195058329    6.93707781952777   11.44019912507796
C         2.06858805365628    5.79987686432700   11.87693372180743
C         2.91917042762555    4.80802551437299   11.38494537534311
H         3.77825404181278    4.48680040284185   11.95238991055017
C         2.64312843773114    4.24520804119264   10.15481536664197
H         3.30137962707827    3.49677236725559    9.73345878367312
C         2.31037609723787    6.40665759582241   13.13356515195010
C         0.64162380178490    1.55231095351213    9.41870179232146
H         0.06111990047976    2.32833324481264    9.90055086818958
C         0.59830396845334    0.26139118147293    9.90391107696613
H         0.00167774658741    0.02497415181295   10.77084002586560
C         1.32985313574834   -0.72982720207564    9.24740922984143
C         2.07947874363715   -0.36357732221469    8.13059086395228
H         2.66181346714059   -1.09368737794200    7.59126348240360
C         2.05980290497610    0.95368717883397    7.71465271914085
H         2.63427134520460    1.25689808640635    6.84979001120067
C         1.31391771812600   -2.06904412048493    9.70839092333257

