38
CSD_code = BAFFOD | q = 0 | S = 0 | Stoichiometry = C10H20ClCuN4S2 | MND = 3
Cu       -2.90184508308346    2.24816270246605    2.42284499491611
Cl       -2.89362813323787    0.11169351523745    2.39945747374391
S        -1.25781270038410    3.84545357097088    3.10691344565797
N        -1.25244829780111    6.10185653348050    1.69343064547596
N        -1.14509605143724    4.28874718344501    0.44566556953493
C        -1.22328931212648    4.74944534136386    1.70396273913353
C        -1.02311177631411    6.92923708044972    2.83951031232443
C        -1.22319280855058    2.92847810095053    0.00124789816954
C        -1.22354860467361    5.36951032762739   -0.51725489887087
C        -1.06881119269459    6.62097466934222    0.35376095408741
H        -1.70620534500475    7.77973222813004    2.82491258528508
H        -1.19805847968404    6.32717319396330    3.72879757332570
H         0.00602827850068    7.30226576231226    2.85892828318534
H        -0.29325668548073    2.63606030901079   -0.49154114782991
H        -2.05546511646092    2.80721250751025   -0.69592333103250
H        -1.39209733021104    2.26433887464805    0.85810130782835
H        -0.43218770977506    5.26972097371061   -1.26475335200018
H        -2.19327604791753    5.34180483760263   -1.02914931139709
H        -1.82104263783616    7.38326385881350    0.13386319972489
H        -0.07392128993596    7.07463634873628    0.25211998093171
S        -4.52796508453581    3.86766547186488    1.76404376818180
C        -4.55342466544254    4.76771879271369    3.16986513912525
N        -4.52994073937993    6.12031533705668    3.18325516554592
N        -4.61842252577942    4.30408480475184    4.42790143314367
C        -4.77354747267783    6.94922338191770    2.04111533781048
C        -4.70688975961186    6.63539426212957    4.52545440220707
C        -4.53249162470124    2.94351001570533    4.86950568800683
C        -4.53632343823413    5.38321903473066    5.39234099646026
H        -4.09733514431821    7.80525736582802    2.05391003817534
H        -4.59964956846933    6.35149605769582    1.14875443390799
H        -5.80571931649763    7.31407832448800    2.02948065298340
H        -3.95870552041979    7.40277724106629    4.74126002701390
H        -5.70431741598605    7.08143402255937    4.63583576376840
H        -5.45605361337702    2.64866590285523    5.37270468159357
H        -3.69158317788645    2.82271802989853    5.55632294396498
H        -4.37249017002537    2.28096823461214    4.00933441006991
H        -5.31953217401763    5.27741281813649    6.14751311451804
H        -3.56134226454013    5.35989298220916    5.89440708134727

