59
CSD_code = BAFGIZ | q = 0 | S = 0 | Stoichiometry = C28H22BrN7Os | MND = 6
Os       -0.03888928212024    4.14505485150864   10.00706254621707
Br       -0.89279329161522    6.34543078127718   10.75452531988577
N        -0.88101446573900    4.53534479973953    8.09686032071781
N         1.33305814693589    5.25235169395852    7.83523673835740
N         1.40900795294334    4.94375161819749    9.09962579511567
N         1.29287706430450    4.18439558278838   11.54935819789244
N        -1.58821693445125    3.07033938396563   10.95155510143668
N        -0.66900288322952    1.42850734291974    9.60782487115644
N         0.22003223692547    2.35558180226869    9.38951131444257
C        -2.08902260309265    4.34932671303183    7.57644292676204
H        -2.84821787417223    3.98503300324831    8.25880171285649
C        -2.38046148156780    4.59492763133554    6.25244644429369
H        -3.37498952928746    4.42141657616084    5.87634695291154
C        -1.36341226168681    5.06969469551699    5.42060914700263
H        -1.56451467986588    5.26790652398935    4.37862772875550
C        -0.11405489794012    5.28608940830060    5.94213482808853
H         0.70541635007132    5.66141364417697    5.35299658504879
C         0.12187768922592    5.01724861526282    7.30289744033268
C         2.53522809596775    5.19380372649370    9.81639150951427
C         3.70242580394567    5.78786648896771    9.31936353844160
H         3.72687324950735    6.07085605601532    8.27881861996935
C         4.76553872588729    5.98953303430119   10.16137787908713
H         5.67030852535661    6.44870052470104    9.79459111242651
C         4.68554277442947    5.59601254408893   11.50488499390914
H         5.53819136727854    5.75253552005796   12.14934675680608
C         3.55584687368391    5.01293080933993   12.01817430403000
H         3.51614198967352    4.69730539721668   13.04991215228481
C         2.43553587056085    4.79542819138082   11.18911955881440
C         0.96266638383710    3.94812441468282   12.88345702674759
C         0.98154817706031    4.96981681526477   13.83509845852670
H         1.28818448750523    5.96177045554487   13.53804899877447
C         0.56653608989453    4.71694982925410   15.12787594330171
H         0.57350932791503    5.51604120209813   15.85415825693072
C         0.13272062263285    3.45250620796320   15.49195987224447
H        -0.19366279479123    3.26164118974259   16.50322623836663
C         0.11276516435842    2.43401487351011   14.55232777534783
H        -0.22408387094176    1.44588555889172   14.83065082168490
C         0.52330303339303    2.67558822683564   13.25664703284329
H         0.51651432757984    1.88257221112394   12.51971138939372
C        -2.47659723137358    3.43115145928364   11.87664314154904
H        -2.42323551184459    4.45561773331295   12.21955554061146
C        -3.42847479744942    2.56755033524161   12.37638233988306
H        -4.12325041511459    2.91228806609398   13.12412409108585
C        -3.47918383249638    1.25755698183219   11.89672813570649
H        -4.22173393104939    0.56814888693909   12.26887546918663
C        -2.56839544913449    0.85914557060899   10.94923433556788
H        -2.54627377886235   -0.13811452381628   10.54265159492672
C        -1.61472339092547    1.78477700005325   10.49786942173863
C         1.17879096128679    2.04035423049138    8.41702256571039
C         0.77282519651770    1.59278108482620    7.16019676609289
H        -0.27985079901116    1.43649717637285    6.97554786865870
C         1.71182399277223    1.38884863320845    6.16828753496719
H         1.39172149137391    1.06309853267209    5.18987158271051
C         3.05609566866423    1.60597366141698    6.42400285364447
H         3.78582735475188    1.45227199046314    5.64368662413229
C         3.46439015908051    2.01244040911827    7.68423336598904
H         4.51255362258522    2.16485146174210    7.89272678706781
C         2.53462943728496    2.22835213673545    8.68237689026698
H         2.84824777256711    2.52511122828274    9.67227687978376

