71
CSD_code = BAFGEV | q = 0 | S = 0 | Stoichiometry = C34H27BrN8Os | MND = 6
Os        4.47427518431316    7.25129955574855   10.50485059423649
Br        6.50975850584604    7.20809397093165   11.92355651094535
N         5.48077019047370    8.15344102592383    8.88363078243669
N         3.27904249773521    8.44853795901314    8.24789737855678
N         3.05621201622955    7.70354051932623    9.29628656579370
N         1.81246979292122    5.22581735712784    9.34062461910269
H         2.63454167288546    5.43373181202832    8.78861413717874
N         3.80287955691315    8.91681684195342   11.63723295273654
N         2.77631226060216    7.11630040189151   12.72414360478812
N         3.46891521645817    6.41934175438799   11.86764821836925
N         4.84279501125343    5.29815698997193   10.00531256029883
C         6.77953157009536    8.27514283551526    8.61061296842212
H         7.46388940670153    7.87651972576661    9.34714200139330
C         7.24891465613442    8.88037510866925    7.46426308581584
H         8.31023615834975    8.94970016574529    7.29266638407895
C         6.33614255794959    9.40250080007799    6.54575129258329
H         6.68382942175743    9.88927924744145    5.64724104647549
C         4.99236077042894    9.28467120152895    6.80149629566981
H         4.23465157939622    9.65908280918770    6.13377114232728
C         4.58382138847892    8.63673696734913    7.97806963876328
C         1.69935171426625    7.59227823451075    9.64954968829032
C         0.97228645536849    8.74618367385813    9.92471961142350
H         1.46023195636979    9.70320055510780    9.81014109466694
C        -0.33321919044542    8.66086288940032   10.36427766166161
H        -0.88126332998885    9.55816242294410   10.60469851476304
C        -0.93364087615087    7.41632786352373   10.47662234040346
H        -1.96291137016409    7.34230153120353   10.79376288578467
C        -0.24119307176448    6.26514800674585   10.15818366313491
H        -0.74735440682646    5.31429337312595   10.18124775337195
C         1.09365292505210    6.32240135400781    9.75470482318965
C         1.61456752857659    3.87727795825981    9.59373513000442
C         0.90259553553595    3.39914147454133   10.69157731272962
H         0.49578966284717    4.08680210610807   11.41489834548682
C         0.76223731874471    2.03804541256739   10.88529707822538
H         0.20841202330206    1.68209616552122   11.74126675007468
C         1.33385315904180    1.13426232763039   10.00700197065749
H         1.21697131431297    0.07310135213486   10.16461354604115
C         2.07236119935622    1.60361910803205    8.93322073841606
H         2.54073703817546    0.90905154119570    8.25167423472118
C         2.21501546390455    2.96028059113652    8.72830264633173
H         2.80022758120203    3.32444236978084    7.89513486178338
C         4.01279553919807   10.22511992688383   11.54657475372884
H         4.72955761622725   10.53924793128167   10.79672112593268
C         3.36580726474086   11.14446358521746   12.34332329147933
H         3.56507305592678   12.19672602881949   12.22623519101902
C         2.45382599182072   10.68070410939150   13.29451749414316
H         1.92939268992760   11.38032251466992   13.92769791542083
C         2.23875767404773    9.33241997094196   13.41894100257831
H         1.55830456685198    8.91618810289070   14.14216818263226
C         2.93314993464323    8.44291268488263   12.57889214619963
C         3.56783140086111    5.06855786004284   11.97834040899048
C         2.99898943191352    4.29561291872722   12.99838779018628
H         2.41625130041098    4.79914668961974   13.75387017424572
C         3.20875047699879    2.94099537504496   13.01340440356299
H         2.78692166581074    2.33430941271530   13.79921778879531
C         3.96560227292265    2.33554452910516   12.00230241500192
H         4.10489200374711    1.26494895060399   12.01911424866146
C         4.53207844523273    3.06819921116336   10.99135316279699
H         5.09783336374223    2.58282305273787   10.21077121266043
C         4.36706283131046    4.46686166453199   10.95476305453624
C         5.80593959010085    4.89770044333485    9.08077241317753
C         6.98457971412080    4.25863301925290    9.47295667539029
H         7.14487225211225    4.04628698205002   10.51942492623919
C         7.95031080800897    3.94985629215777    8.53570800684202
H         8.86268462053127    3.46679563859733    8.85248027011187
C         7.76163319732973    4.26680978447757    7.20004841213279
H         8.52099766265692    4.02511020418535    6.47178903071430
C         6.59843381296670    4.90647656021544    6.80345533318367
H         6.44604528052523    5.16209157107015    5.76475064338295
C         5.62744262074905    5.22181312546157    7.73277645165479
H         4.72162486892325    5.72805449900351    7.42089964346421

