51
CSD_code = BAFKID | q = 0 | S = 0 | Stoichiometry = C26H20MoN2O2 | MND = 8
Mo       12.62890976739193   10.12274634716205    7.43466069111768
N        10.58116967264800   10.09220133775387    7.08480337285722
N        12.48691505378255    9.03338982918653    5.64374533503999
C        14.54415227300578    9.95059946035038    7.71058151309373
O        15.68124855171897    9.87652079708676    7.86933907696938
C        12.57593541264469   10.69918996400276    9.29036415548326
O        12.55627450278729   11.03744179079225   10.38965998231003
C        12.27382048165310   12.38474615706248    7.77179346837363
H        13.10753992662569   12.88982682604586    8.25659576442801
H        11.31090626409718   12.77867231814970    8.08955806011299
C        12.42486187416874   12.11109370420376    6.38898607998753
H        11.59182584965554   12.21351416517001    5.69203641041482
C        13.68121486674339   11.68894124547552    5.95755363167373
H        14.54505868496009   12.09989558878106    6.47940403611325
C        13.94600849181267   11.43749079232201    4.49933855015288
H        13.04981424957761   11.10220994287885    3.97517766527202
H        14.73047820824990   10.69420290616368    4.36110041684404
H        14.28822617839483   12.36102296200267    4.02534357367762
C        12.38853421961167    8.18131505942122    8.13385563089958
C        12.17386064794899    7.00788115028126    8.36114480136547
C        11.95139090691035    5.63491803915149    8.63349847167208
C        11.01104441422884    5.23543902631516    9.58544162352064
H        10.45514069236134    5.98932138656090   10.12469625185173
C        10.80066178887010    3.89344419747378    9.83517169373074
H        10.07186385078136    3.59279570364188   10.57501950677359
C        11.51952699468196    2.93111746554284    9.14373718580119
H        11.35328214388618    1.88230426733032    9.34324929859829
C        12.45362172644410    3.31917227453851    8.19615496744697
H        13.01707253105485    2.57055505815444    7.65640007405374
C        12.66968978873768    4.65848069330599    7.93882534202314
H        13.39887011916171    4.96720763383170    7.20235111899856
C         9.60358213732712   10.52547258303248    7.87748645307996
H         9.90691415052296   10.91174117624736    8.84220808920060
C         8.26088023017639   10.49901943603414    7.52901610004755
H         7.52766287488819   10.88606247238105    8.21927976672541
C         7.87186079853619    9.97783099434564    6.30748635894962
H         6.83470796674240    9.95195377344454    6.01065887637410
C         8.86022614113419    9.44811089002724    5.47169844733306
C         8.58660460703092    8.80861873536922    4.22662019667634
H         7.56118118345748    8.78056869155485    3.88810045876875
C         9.57072373099682    8.22208562165987    3.50370813599227
H         9.34834786268902    7.71294259996264    2.57742986463135
C        10.92354128360782    8.23493636666016    3.95256553227129
C        11.96887860950217    7.57096497905669    3.30370165123075
H        11.78130170570124    7.02627094206251    2.39066770855411
C        13.22741260480557    7.60690857544675    3.87371304939957
H        14.05183432512449    7.07847346800691    3.42175319434762
C        13.43987347612487    8.34616695844933    5.03203731368806
H        14.42267012400653    8.38951875253079    5.48409461220141
C        10.20233539722237    9.52854850758137    5.90859705667360
C        11.23354065577401    8.93914638609221    5.14038938317651

