38
CSD_code = BAFKOJ | q = 0 | S = 0 | Stoichiometry = C19H14MoN2O2 | MND = 8
Mo        1.47290662227824    2.81854844043573    6.17496846911132
C         2.04309277267627    3.01292057250688    4.32630542799791
O         2.41233046867840    3.12730348334767    3.24292516984943
C         2.26274506533407    1.04743632419812    6.03551434004457
O         2.76065499272600    0.01407201926237    5.94982622651156
C         3.15799369994261    4.41656932595184    5.97993492265547
H         4.02191822886897    4.05108486121263    5.43109860341083
H         2.92025845023708    5.45394239661322    5.75570156524676
C         3.01244760486425    3.97988263164033    7.30870334232636
H         2.64156637343743    4.63359359185233    8.09950019912214
C         3.35136700955634    2.63570665368896    7.54280619317893
H         4.21754963703999    2.24453665491918    7.01578959288906
H         3.26619284257155    2.25808667362902    8.55921568829300
C        -0.30373711188356    1.99835368119466    5.45749799432965
C        -1.40168110241803    1.60583476091452    5.14936732822429
H        -2.34491602457760    1.23871339416872    4.84737641365261
N         0.30121841226461    4.55039678717024    6.31955690053531
C         0.11700730260360    5.48565177434980    5.39472115762431
H         0.66057267038788    5.35452038506559    4.46752535376819
C        -0.71449075224753    6.58446892641057    5.56867776410223
H        -0.80517386671973    7.31090597273881    4.77644640985798
C        -1.41258600377176    6.74121905421656    6.75233058273591
H        -2.05688971910880    7.59151929454316    6.91673622782746
C        -1.28457391453172    5.75361269800420    7.73348272062060
C        -0.41631459435339    4.67008273505350    7.46354242746000
C        -1.99173740842383    5.76724448908755    8.97170569341799
H        -2.63505624771094    6.61025099386889    9.17755329295848
C        -1.88191554182601    4.74696564503316    9.85573890635092
H        -2.43563216411531    4.75701136428803   10.78319878334365
N         0.51477088280930    2.58478124984196    8.02507289330709
C        -0.30103548156474    3.60502485209283    8.38707439182062
C        -1.05422337147668    3.61795708688843    9.58433108028619
C        -0.95545617493315    2.50444456492222   10.42380204431066
H        -1.50533186552192    2.47227415673900   11.35213072482910
C        -0.15903992245968    1.44774339061390   10.02134483620851
H        -0.07533154980199    0.55994540753053   10.62827075902265
C         0.54656587174363    1.52720721669929    8.82760576417555
H         1.16716390942524    0.70078648930219    8.50471980859093

