32
CSD_code = BAFROR | q = 0 | S = 0 | Stoichiometry = C12H12ClCuN4S2 | MND = 4
Cu        2.78634909434811    1.19508808522606    2.68763575384842
Cl        4.04083589430055   -0.47833493236527    2.22316768404043
S         5.84791473304885    3.38575019770723    1.47975775537736
S         0.49732431360769    1.34051773558107    3.57031858475610
C         4.47393089898742    2.67082803765739    0.50580849984794
H         4.76530581110254    2.82282249420145   -0.53318699653011
H         4.40958707718438    1.60297754544287    0.72882688109195
C         3.20016205015392    3.37311981164089    0.81793903880362
C         3.04188859982989    4.74422255264783    0.60847101609132
H         3.84323445546926    5.33831930427810    0.19325340679056
C         0.94040994201323    4.66533286909354    1.43781234590214
H         0.03201439815067    5.20215165970940    1.67136201750766
C         1.06516370082282    3.30393216454087    1.67143592126110
C        -0.04575923548223    2.49224801772909    2.25561229033928
H        -0.46519104887974    1.83192357996965    1.49336410344007
H        -0.83436827096468    3.12900733798282    2.65543192628859
C         0.96881714130305    2.52515304831398    4.88336488918999
H         0.11115590901452    3.16049006252929    5.10245464839835
H         1.17455753895514    1.88528204713463    5.74430947014409
C         2.23281027206564    4.70579667331270    4.78180237797490
H         1.39891542120392    5.24526894697650    5.20783235589934
C         2.17825490826192    3.33896625463152    4.55277579884529
C         4.34615751573263    4.78377653370689    3.98321280010752
H         5.21445501654025    5.37935810968021    3.74065044143327
C         4.33257697475174    3.40756863087499    3.74933356598501
C         5.49078356320910    2.70141016637817    3.13861651033428
H         5.30135436378204    1.62984757807320    3.03836860580487
H         6.40371035401541    2.87192767969593    3.70869504191770
N         3.31006295814297    5.42226078669085    4.49121000073341
N         3.23198338138104    2.69950981390929    4.02631946534968
N         2.20467033037343    2.66763321140233    1.36626961516153
N         1.92783193757412    5.37974399564629    0.91537418386371

