37
CSD_code = BAFSOS | q = 0 | S = 0 | Stoichiometry = C12H18Cl2N2O2Zn | MND = 4
Zn        5.19924099702009   10.20932530722100   16.31623104885890
Cl        4.02656475952694   10.20331628823415   14.35108436381421
Cl        6.40751667455487    8.26539623499656   16.14925298872910
N         3.93635241984156    9.68960731394374   17.76173973764397
N         3.91478896570320    7.33288742219475   14.91323684461929
H         4.81110056761416    7.47024555160255   15.48184701209113
H         3.77779066733153    8.31898936991491   14.51887529150519
O         5.75441559990430   11.83445227485375   16.94933935908492
O         5.56755369597573   15.71881164641568   19.63910949247606
C         4.24951407925418   11.84488329666824   18.83722403697936
C         5.22869064380366   12.42411578801473   17.97050400172144
C         5.67474450733691   13.73491840451922   18.25364957858248
H         6.41389736001094   14.13412613680000   17.57750619396435
C         5.19249768843603   14.45865952322924   19.31930773275242
C         4.23007081861958   13.88013842485414   20.17464128426800
H         3.86730281910881   14.46034404350509   21.00695738184525
C         3.78977917681000   12.61543270583410   19.93045441457569
H         3.05335358304537   12.17421073141894   20.58780015706271
C         3.71806045424082   10.53900645782727   18.70801270947388
H         3.05092651192661   10.23086705754729   19.52278205128076
C         3.33971808034880    8.37537968858149   17.84896501316059
H         2.82125392704406    8.26760980559276   18.81054329983402
H         4.15577746543538    7.64745991157138   17.81832061570248
C         2.35950261054640    8.11098525427175   16.68814813378541
H         1.37715895038643    7.87301544960139   17.09653704664872
H         2.25766253269930    9.02182953608382   16.09667596730952
C         2.76945257639845    6.97169653165486   15.75859238597754
H         3.01917222951187    6.07652915597084   16.33540713752108
H         1.92649429944228    6.73606884127050   15.10239719170631
C         4.18664555375350    6.38172254719366   13.83664260627526
H         4.38599073333700    5.39296369894331   14.24746698828762
H         5.06125012136560    6.71614970270317   13.28591454108413
H         3.33752766429568    6.32419155887452   13.15718134987294
C         6.52056409069215   16.36634555459266   18.82837596358568
H         7.47423495368674   15.83023804704615   18.82779847466024
H         6.65954404857857   17.35323510809538   19.26690868530623
H         6.16308817240079   16.47164562836079   17.79976891794835

