35
CSD_code = BAFSUZ | q = 0 | S = 0 | Stoichiometry = C18H12Cl2N2Pd | MND = 4
Cl        3.91864380572826    7.19445530819957   10.92592937951370
N         3.39773895419311   10.16482894877316   10.03644981458453
C         3.05759687125044   10.28281098523948   11.33572596977981
H         3.28946620812974    9.42422204008021   11.95555842162043
Pd        3.74152984811267    8.41295324515779    9.08679759224080
Cl        3.89563180658277    6.55533776567172    7.89727116336749
N         3.76785886882765    9.66771679417452    7.50053503248910
C         2.48086933165932   11.41320377032271   11.83959996996864
H         2.26608741815420   11.49627510713981   12.89303644547934
C         2.09908146734432   12.45256666662633   10.96201295877649
C         1.36727275629611   13.57461445247733   11.39582078904771
H         1.14536414523858   13.67149163542706   12.44801006069244
C         0.92371219066832   14.50399430125333   10.49559609774886
H         0.35881955924197   15.36117181817623   10.82896429181773
C         1.17016074570994   14.32934024170298    9.12597880209897
H         0.76731566792860   15.03951913002534    8.41990934649970
C         1.90460335346496   13.26566374793906    8.67683344718279
H         2.06260202992178   13.12951959927809    7.61871353077985
C         2.42968867262872   12.32207223966045    9.58544467051858
C         3.19808932490488   11.18656143531052    9.19446145493526
C         3.73973633414014   10.95835588124291    7.85601706942032
C         4.29370917628846   11.96511606768075    7.01227124797417
C         4.60259134348012   13.27155895004669    7.44757982702339
H         4.43798799542221   13.54015547385542    8.47905568425751
C         5.13936289078658   14.18426725198873    6.58079798046642
H         5.37952995554640   15.17757511196074    6.92844943687960
C         4.63892291874717   11.59554667216451    5.68363382348028
C         5.39233560700053   13.84202565337352    5.24435390801105
H         5.79691975598622   14.58436913996848    4.57334512020091
C         5.16006672955968   12.56684702009891    4.80743353392436
H         5.39321838005115   12.27690477208324    3.79391231801880
C         4.48968537242927   10.24127204410952    5.30956693529519
H         4.71843937681130    9.93604389314680    4.30094840621533
C         4.12297188856179    9.31921692671454    6.24752611863137
H         4.08098924920270    8.25772590892959    6.03175935105905

