85
CSD_code = BAFWUC | q = 0 | S = 0 | Stoichiometry = C25H47B10IrN2 | MND = 7
Ir        4.52853358214231    4.10802610842787    5.89307775442300
N         3.74915609663900    5.82986679648150    5.47125022856563
N         2.24827377553613    7.22620707569561    4.45787616992614
B         1.37621250527252    3.74761427565431    5.42906372182477
H         1.32518731043577    4.20784463453659    6.51067438736232
B         1.94586111520681    2.13522616105488    5.04541186077649
H         2.22428079898818    1.41475533671704    5.93294840496726
B         2.95747879160779    2.21524277039224    3.60997765636723
H         3.92207131344583    1.54936696811793    3.52639860054797
B         3.03674145795401    3.88066385013152    3.06553863255753
H         4.01006260007942    4.42423984560934    2.68904745845397
B         1.41216436335052    4.41197724047621    2.64278625845555
H         1.30525962463729    5.29339571575424    1.87242334679409
B         0.39774677763669    4.33106817842188    4.08685796370056
H        -0.40782045050728    5.15716586932486    4.31303902278651
B         0.29461614335276    2.63349864019144    4.61075599583210
H        -0.65672232347079    2.20731503072308    5.15706383134794
B         1.27341374972586    1.66673696699817    3.47090600291606
H         1.00775490865529    0.54734766149013    3.22151245387172
B         1.95996210172655    2.76616356123820    2.24247822128264
H         2.17043261122833    2.43330267863330    1.13339324535757
B         0.30995831872512    3.04215836843019    2.87153745374161
H        -0.64270854071425    2.90200835575385    2.19389808340007
C         2.94511309750144    3.49621959794979    4.74785326888005
C         2.05985758378613    4.73262224487676    4.19573192437553
C         2.63311208158515    6.02981005455860    4.67564096572632
C         4.41462681469939    7.00202952647477    6.03086159482018
H         5.25103237229759    6.62383560254324    6.62856109533431
C         3.51910146823332    7.80925150255781    6.97769197450765
H         2.69243539617585    8.22525477018005    6.40551060773394
H         3.10895431112102    7.14204305377171    7.73980287700675
C         4.32586631793859    8.92746376135701    7.62799911109159
H         3.68234164791605    9.50714294379717    8.29332425168293
H         5.12979830894005    8.49966170206748    8.23417466218880
C         4.92735585514571    9.83878434971503    6.56234036249649
H         5.51023785841256   10.63287516022207    7.03509764661186
H         4.12080574744477   10.30505218944092    5.99365447291562
C         5.81161248896218    9.03790989165018    5.61131061724087
H         6.65145990177863    8.61332800246488    6.16912136036163
H         6.22333786593316    9.69560332353749    4.84257823329960
C         5.00914680741440    7.91969571681022    4.95597028036927
H         4.19485666431563    8.33574971966453    4.36603300807455
H         5.64685858120702    7.32969994351368    4.29269948348874
C         1.14175478884075    7.66872851691241    3.66879838140293
H         0.52615410639568    6.85975882829006    3.26168125971272
C         1.68511100282948    8.49829368110920    2.49773249000700
H         2.31427760996544    7.86224441429321    1.87098355930860
H         2.30782827602416    9.30290202406141    2.89454873369614
C         0.53939908641969    9.08111866471733    1.67881132949696
H         0.94083371074688    9.67280681991428    0.85289861503361
H        -0.05013648500590    8.26623980741469    1.25217532314750
C        -0.35776569049732    9.95021796134984    2.55499122693019
H         0.21753171389583   10.79908118581484    2.93226773603239
H        -1.18752110677851   10.34394643908339    1.96386364634203
C        -0.89492407192783    9.14045219877676    3.73137834341632
H        -1.52043296370876    8.32750797064387    3.35529089524757
H        -1.51580727984059    9.77457807319715    4.36835821653692
C         0.25171431694447    8.55656105372468    4.54833873315516
H        -0.13833594927484    7.96110834413467    5.37690758418116
H         0.85997727854235    9.36080763949025    4.96745039999100
C         5.89727142445752    4.09874618477759    7.78316449539131
C         5.12632230841165    2.87437504818206    7.60943314840811
C         5.58492577391779    2.22248891313443    6.43186145495219
C         6.48914940351854    3.11489691950828    5.78971705208974
C         6.72923885369372    4.24147250630600    6.67885792255279
C         5.81556047141044    4.96131541032167    8.99990679464657
H         6.37324157835409    5.88612914136414    8.87127393584616
H         6.22681958607704    4.43137134353382    9.86074498644427
H         4.78141881268651    5.21568846687622    9.22880882312127
C         4.25726579278759    2.26509171363810    8.66022242332429
H         3.53757776363258    1.58182482809573    8.21650805993032
H         3.71640138563160    3.02797805068889    9.21544425183962
H         4.87023106471622    1.70255356365492    9.36737683464472
C         5.33752444410455    0.79130820837931    6.07107248069117
H         5.64807679052586    0.58661131955045    5.05126178343782
H         4.28758968401054    0.52943090293548    6.16638664898139
H         5.91194126521690    0.14762760517039    6.73951247066432
C         7.29574704329581    2.82151606625173    4.56699629940744
H         8.19123629663123    2.25893592426668    4.83847926301718
H         7.60975467503832    3.74000665469363    4.07671912578805
H         6.72362440465357    2.22903299228821    3.85673127564902
C         7.76534329727411    5.28894505899141    6.42872081216054
H         7.61915097481639    5.76465686849343    5.45941783920461
H         8.75871265927452    4.83769331926255    6.43209257292396
H         7.74108809983686    6.06072421929458    7.19443821777705

