87
CSD_code = BAFWIQ | q = 0 | S = 0 | Stoichiometry = C25H48B10ClN2Rh | MND = 8
Rh       -0.69541383433044    6.50037537658235    3.95296017504424
Cl       -1.54685689792267    6.84405505024945    6.10076616504363
N         1.14953105008496    6.63477413224463    4.87592728740074
N         2.84571948667409    7.90097856710504    5.81145516710212
H         3.04285474538049    7.09079310431177    6.37757717671359
B        -0.20368938201750    9.63220190295818    4.80543849710852
H        -0.56694483488328    9.31030267308779    5.86722630036127
B        -1.20092528167639    9.80273556560327    3.37734168237009
H        -2.36151653455765    9.63333882283928    3.45807941686681
B        -0.31322633123914    9.21017652700975    1.97943530845683
H        -0.87595915134019    8.66150277438456    1.11201374447424
B         1.22845715239810    8.60121420123978    2.51611327427869
H         1.74938013443578    7.60795878892946    2.16177868498131
B         2.14940908758589    9.94264725735580    3.20259003104919
H         3.32350878291999    9.84575475621143    3.21440210502644
B         1.26330406317440   10.57662800671674    4.59155865293538
H         1.81564646934286   10.93628473991997    5.56474510335110
B        -0.30010861945308   11.20425405948922    4.03425217515225
H        -0.83472767514460   12.10091996628077    4.57539273227304
B        -0.37210944839229   10.94976926260744    2.27797987365308
H        -0.97904426668427   11.66830729086224    1.57085835167758
B         1.15789532205188   10.18338907114269    1.75421180663622
H         1.63429321721847   10.35281698928638    0.69144440966690
B         1.17116312064696   11.41459524826258    3.04021687977167
H         1.66991162693521   12.46948305472703    2.88492642402280
C        -0.16935819558712    8.45590152716426    3.52889250885105
C         1.22759128846682    8.89354294933037    4.20994049110229
C         1.77251521409345    7.77463775770689    5.00826451589946
C         1.54667743528793    5.40182432917764    5.55522007335512
H         0.82236869523907    4.65496257236627    5.20787556543443
C         2.92967967700256    4.88004656076874    5.13321588002667
H         2.99178595965570    4.86877001860030    4.04266822768296
H         3.74052246844227    5.51410372793283    5.49635749424445
C         3.12782542920233    3.47183954232384    5.69007968413378
H         2.38889647885709    2.79748955379312    5.25261298095372
H         4.11817072198942    3.10309178749855    5.41364166901050
C         2.97409997326979    3.46687101135540    7.20919483760790
H         3.10498302064182    2.45158419808686    7.58862728922698
H         3.75432743150555    4.08914858609505    7.65572148319438
C         1.60219860803659    4.00095273888485    7.61535133578533
H         1.51018849497397    4.00091336020126    8.70292863199336
H         0.82469707526023    3.34624515159049    7.21697356865574
C         1.39678741479932    5.41708201654469    7.08431027006635
H         0.39526169374113    5.77669681468969    7.32577668677248
H         2.11386909199922    6.07816683276536    7.57629043719925
C         3.80463359133278    8.96267131839973    6.02363074296260
H         3.58710370821346    9.78926698975310    5.35268357216999
C         3.72852905337089    9.45803511888653    7.47031832988930
H         2.71993355299007    9.81896566237891    7.67882535588184
H         3.93744560201003    8.62895249534958    8.15192181833873
C         4.74644120757915   10.57248257690397    7.69349319629806
H         4.69512272751125   10.91610573152111    8.72789634701315
H         4.50181987229134   11.41739572660868    7.04671454800391
C         6.15625743970889   10.08166050950147    7.37683349512208
H         6.87122795584246   10.89417140620130    7.51496341792104
H         6.42555062778932    9.27954040691614    8.06815101120219
C         6.23404335662881    9.56322891933775    5.94377317753031
H         7.23892759534972    9.19141230240229    5.73532812538340
H         6.02797529049612   10.38083221255312    5.25020063531936
C         5.21596661318501    8.44826092321817    5.72229530620910
H         5.26393083608569    8.09472315823392    4.68994388665385
H         5.44951827493730    7.60677775312390    6.38107136253971
C        -1.62443994433404    4.38131545849883    3.80947842499638
C        -2.54495286245627    5.44411277415618    3.46246768101658
C        -2.09615989527794    6.05173816749856    2.25773523965160
C        -0.83793347761918    5.45619953625445    1.92438633740725
C        -0.60447125911789    4.37204594148421    2.84583276651691
C        -1.87874832976927    3.39182888247690    4.90490233341892
H        -2.76251428854710    2.79689629748390    4.66785628927111
H        -2.06281570181997    3.90648419592810    5.84751345416236
H        -1.03716228653517    2.71473549597989    5.03693369968538
C        -3.89671283018177    5.62721686028411    4.07571210609405
H        -4.30436086332036    6.60428520215714    3.82842657155957
H        -3.84940914210519    5.53706844150612    5.15855820845308
H        -4.57317264038629    4.85842797169343    3.69507812207869
C        -2.95450490542026    6.91882557499427    1.38638166783867
H        -3.89069466789354    6.39529618206895    1.18553185492467
H        -2.46680220338533    7.11901609627492    0.43708350773224
H        -3.19381054547532    7.86897444271747    1.86000651636479
C        -0.09712956886675    5.62441144718154    0.63448940237046
H        -0.52794183021829    4.96528076354931   -0.12267212355639
H         0.95237052116874    5.36288320520464    0.74886807838830
H        -0.15487614015999    6.64760392257053    0.27357482269414
C         0.47879911579834    3.35416435652059    2.67555390865323
H         0.56514109426560    2.71243404605791    3.54914239001142
H         1.44431240588211    3.82185791189815    2.49063985534934
H         0.24572296231566    2.72378538804252    1.81523949979437

