73
CSD_code = BAFWAI | q = 0 | S = 0 | Stoichiometry = C19H40B10ClIrN2 | MND = 8
Ir        2.07311393689047   11.54752726281381    6.70308960871595
Cl        3.65880267038320    9.91825634216822    6.05012182327855
N         3.18831214813697   11.67072210007401    8.45514358122607
N         3.70591812095779   10.99487469147968   10.60463543173345
H         4.56101595899498   11.51114785629609   10.47422110079905
B         1.55916592476403    8.82379852821416    8.49008543857286
H         2.56640776323643    8.44305406736429    8.03918438620722
B         0.04093780969025    8.99196597484528    7.63257395494676
H        -0.03070485906368    8.65364884571713    6.51075283998201
B        -0.75761920514344   10.46441418857114    8.16255252328056
H        -1.37848481590087   11.10230416814493    7.40359336798869
B         0.26277835883162   11.26984197354112    9.32074582344286
H         0.48326387932043   12.42257080154324    9.37193835601070
B         0.45049742077498   10.22281129188736   10.73095544531210
H         0.72562982936589   10.72949881845918   11.75781891543573
B         1.22801176557483    8.72413049482482   10.21417843271435
H         2.02058194113968    8.17995433798688   10.88893116669428
B         0.17282674352598    7.90473513450889    9.04677417473539
H         0.15284385061653    6.73351568634020    8.94974120511678
B        -1.27378362534172    8.91807591521566    8.84489165469572
H        -2.32374353345004    8.45516917085523    8.58620158042606
B        -1.11317638619778   10.35103777950203    9.90378717254808
H        -2.03393873046407   10.89869226523500   10.39001042498114
B        -0.52161713948328    8.76417308516005   10.45336511633855
H        -1.02964334736948    8.18691655346983   11.34402743067707
C         0.95698662982566   10.37776176617830    8.00637194303439
C         1.62529134487904   10.23031608596865    9.47588501022252
C         2.90706982403207   10.96687803685330    9.52302011728109
C         4.40778727872193   12.47208936828626    8.31723043471212
H         4.30141838958554   12.94273983131973    7.33804656592316
C         4.51278536449408   13.60842500679063    9.35101555051218
H         3.52333556321198   13.89419360846224    9.70114175201163
H         4.97362814344552   14.47768250543264    8.88785693333894
H         5.12255527442305   13.34714467365830   10.21438314679581
C         5.68237602023031   11.62514356754017    8.23042410260736
H         5.95670918320900   11.14859857539118    9.16888040480778
H         6.50907386552119   12.25902093343228    7.91801803290203
H         5.53355554160799   10.84857899070094    7.48344497268509
C         3.70459642118140   10.25837798087895   11.85226274698298
H         2.71823900829019    9.83191642366873   12.01771941128695
C         4.01723760771460   11.23730946698474   12.98320771277964
H         3.98949324126563   10.72245542869826   13.93898749434774
H         3.28412617952000   12.03997536649258   13.00191900297736
H         5.00760111435327   11.67162939075975   12.85680579376960
C         4.74283203607030    9.13686577485797   11.78919022081434
H         4.53240998344004    8.47466077408354   10.95309125058665
H         4.72139215782589    8.55552649202233   12.70649167385601
H         5.74356558653669    9.54653925088534   11.66386013593649
C         0.51856117601092   12.27338979018903    5.21799818104252
C         0.73938909801114   13.34617493739992    6.14027844054902
C         2.07395175892621   13.84217001458861    5.92902456222884
C         2.70809940345353   13.01840754171285    4.99011941308236
C         1.75297888852921   12.02599455388169    4.55775720571673
C        -0.79922253941303   11.70447889984030    4.78591154815352
H        -0.94838640256149   11.91657514794612    3.72596044573972
H        -1.61709978632940   12.15527521328525    5.33991059315607
H        -0.84242660686901   10.62571874640947    4.92394639010641
C        -0.31744552205180   14.08349695439926    6.89945447149911
H        -0.79036163979780   14.82577851251157    6.25249817785943
H         0.10830027353485   14.60709573592545    7.75262572645919
H        -1.08582550851331   13.40755024529812    7.26540213601245
C         2.61269550229608   15.08486560920569    6.56058048505299
H         3.68827640928367   15.17020402992423    6.42150535395265
H         2.39870501517417   15.11275659612761    7.62791518305717
H         2.14394120083376   15.95941991135941    6.10524117979118
C         4.06727655066270   13.17297314413384    4.38558673968139
H         4.60583572791248   12.22607224963884    4.41882790072304
H         4.65683208032426   13.92404331742205    4.90789615920335
H         3.98181244323108   13.47289454183994    3.33967387938584
C         1.95385342473066   11.11280988238134    3.39244754144217
H         1.18227600780352   10.34774445013612    3.36336165067120
H         2.92332216648843   10.62180901235098    3.44763174892789
H         1.91429863916313   11.68623432856216    2.46366952047416

