34
CSD_code = BAGFOF | q = 0 | S = 0 | Stoichiometry = C16H10MoN2O5 | MND = 6
Mo        7.26268506735083    2.83068453761657    0.72139964844104
O         3.44460674370409    8.25156593942049   -1.01105174653839
O        10.13691935358658    1.68611194140602    0.73599096654158
O         7.03208135684661    1.97824116929691   -2.25665654341991
O         8.28932978078908    5.53795210134826   -0.36447013936452
O         7.82856753331177    3.86247525893823    3.59602301993926
N         5.24716918295134    3.32546108038342    0.75212594675275
N         6.30451625394366    1.07417933157548    1.42183717143107
C         4.76277718943862    4.55287448405706    0.30621583106676
C         5.27014233666818    5.73510584879937    0.84835029357836
H         6.00990974639422    5.68015983642456    1.63520883836807
C         4.81278393245356    6.95653386806277    0.40989818922866
H         5.19059081216717    7.87529612908703    0.82786714762025
C         3.85302688705035    7.02700963391038   -0.60051708281880
C         3.34925148414349    5.85249288207556   -1.14803177825526
H         2.61288431180492    5.89803222876091   -1.93933197014587
C         3.78715006762870    4.62611359862861   -0.68660212798698
H         3.40931927170639    3.71736388313251   -1.13467273174543
C         4.40888240772001    2.39585777929395    1.07139798439770
C         4.95458152142592    1.13633894296189    1.47574208658395
C         4.17160584565791    0.05614882717218    1.90081907087652
H         3.09722801116254    0.15693432682562    1.92613488186328
C         4.79206273816137   -1.11465682605056    2.27922899313459
H         4.21683114138161   -1.96511694727722    2.61095017309042
C         6.18255407370809   -1.17190401868080    2.22306076841021
H         6.71035523103690   -2.06712553315708    2.50985315817028
C         6.88654457773973   -0.06268732909415    1.79182461261608
H         7.96800869164355   -0.08375108268460    1.73817657078849
C         9.07896801094376    2.12740139378937    0.72547563808777
C         7.08310249084898    2.26116807403039   -1.15135846019623
C         7.92244068058507    4.53471409497822    0.04842980067665
C         7.57300836637701    3.45887392710063    2.55845446997330
H         2.80052920238979    8.16849777872471   -1.72507910508388
H         3.32958569727992    2.55135283914624    1.05930642391105

