35
CSD_code = BAGFAR | q = 0 | S = 0 | Stoichiometry = C18H14Br2Mo | MND = 12
Mo        7.42507829080548   18.74026278007080    8.09597263087882
Br        5.70839198114256   18.90828834465031    6.15325476774088
Br        5.24691934180471   19.16215946176563    9.53683680821161
C         8.08200956712093   20.59819492772837    9.26816967790278
H         7.75114795022108   20.87294119865080   10.26013154577286
C         9.27816224599252   19.94533668746343    8.94574644230343
H        10.03508199511588   19.66166306279466    9.66329796935726
C         9.49016221020272   20.04100792958168    7.52852176702095
C        10.57047870208376   19.68399157660100    6.70860867101751
H        11.45708738059673   19.23842949567451    7.13905421367492
C        10.48945613406076   19.95325346817355    5.36415896934367
H        11.31188149599628   19.68977590266722    4.71625391033886
C         9.36553404958117   20.58785599533676    4.81073626187179
H         9.35013437875310   20.79067304133154    3.75119002014454
C         8.30303179243393   20.96970261046729    5.59099925884954
H         7.44798668871481   21.47669440683335    5.16760371041630
C         8.34822280059223   20.69136387467221    6.96736283605850
C         7.42542625802800   20.96381469015757    8.04499759117525
H         6.61208152794640   21.68377258236638    7.98173186039093
C         7.72292573620924   16.99576085776751    9.45719667354891
H         7.58460596313583   16.95985500823561   10.52843812618438
C         8.78151942521432   16.77791890906063    7.40448529264567
C         9.68002283597876   16.66140974586519    6.33136560487524
H        10.72252969619155   16.91481181606936    6.45880088735401
C         8.94822836356414   17.19375509105392    8.77326137390517
H         9.91313520384498   17.29120871658137    9.25304404000971
C         9.21188573041782   16.18306729711529    5.13259395555292
H         9.88705860343170   16.08937236439084    4.29556792112712
C         7.87291282960350   15.78767686152933    4.97315680184671
H         7.55306678970450   15.40330047102330    4.01708598476927
C         6.97657367174560   15.86687668077598    6.00838735382841
H         5.94969939283167   15.55251322618371    5.89042989267885
C         7.42139959181197   16.37512670018345    7.24003797414010
C         6.74301248177055   16.61446342778309    8.48319191242570
H         5.76324889334054   16.21190078939160    8.72492729263747

