51
CSD_code = BAGGOG | q = 0 | S = 0 | Stoichiometry = C22H21MoN3O4 | MND = 6
Mo       10.09591905731156   10.99626215667320    2.67675357688936
O         3.31461914786629   10.86742018212249    2.03453554752936
O        12.52451602478683   12.90328432641343    2.90555591153404
O        10.71276213079854   10.78762284071714   -0.35506691017673
O         8.18667863735919   13.33973545076593    2.03379361747484
N         8.65038332408390    9.53453271669082    2.67311707115984
N        11.14108558959855    9.22686831509529    3.16092692574156
N         9.10981211289648   11.63422929475381    5.62884667207850
C         7.30336808861156    9.83324686924503    2.49077922511318
C         6.88553264412098   10.48556464350421    1.33264911803995
C         5.55928904708972   10.82291318174320    1.16283793818426
C         4.62577068182713   10.53334617429955    2.15455994880211
C         5.03677560100103    9.87949829013221    3.31207612859763
C         6.35879974594190    9.51836431638258    3.46900458638347
C         8.99105356987891    8.33419432228906    3.02766082942581
C        10.37720859129979    8.11209945391092    3.27510086596651
C        10.92068604273307    6.86108934018976    3.59816336620965
C        12.27678583417395    6.75086301041063    3.80647100796336
C        13.05826645978767    7.89958182620387    3.68365663434631
C        12.45023283391639    9.09786620386579    3.36395361465602
C        11.61022306535050   12.21038125860550    2.82324253454493
C        10.50432841453830   10.81424512347315    0.77204582386729
C         8.92050755595426   12.48089453975623    2.25498024798991
C         9.55962328900972   11.35172099949157    4.58949312737662
C         8.39976373651391   12.15859709897249    6.71892165309430
C         6.92983755630704   11.73041980828599    6.63121466401415
H         6.86382701272704   10.64039204952960    6.65463254040772
H         6.52173980737585   12.07111055901916    5.67649285786825
C         6.13620725420368   12.33252055200781    7.78635503512229
H         5.08938192765330   12.03639549664009    7.70038048593965
H         6.51829090229441   11.94187621825391    8.73290936794636
C         6.25118236695182   13.85378522979697    7.78175026630362
H         5.81730177376656   14.24657512603133    6.85995638797964
H         5.69141739728719   14.27028469857334    8.62107135158979
C         7.71430001807739   14.27673094333759    7.87211201809421
H         8.13572767545397   13.93177031619888    8.81963501855030
H         7.79121562456457   15.36482128753217    7.84870727355574
C         8.51368931900392   13.68730825262927    6.71470422007017
H         8.12958752214359   14.06269975622481    5.76345013141022
H         9.56428109186998   13.97495059267944    6.78874447570611
H         3.16952456796493   11.33086552803824    1.20059979612458
H         7.60959905865776   10.71073490073742    0.56183327935224
H         5.24328910442172   11.32379386135266    0.25778261713962
H         4.30573746371826    9.66320092588520    4.07474704161795
H         6.67964139769313    9.02729608875598    4.37757701848189
H         8.26854970627058    7.52255070067736    3.11554486107800
H        10.26725690768425    6.00518626521322    3.67624848821570
H        12.72547714042349    5.80174516936405    4.05646982466409
H        14.12489033030745    7.85956554858164    3.83637505794863
H        13.03735945866628   10.00269279602605    3.26528312143963
H         8.84609638809341   11.75790539301028    7.63966373654164

