75
CSD_code = BAGHUN | q = 0 | S = 0 | Stoichiometry = C30H34Cl2N2O4P2Pt | MND = 4
Pt       -1.66253243140615    4.83224385574398    3.90566807514939
Cl       -2.50840694755582    6.91274639422821    3.34176873116030
Cl       -3.77675808081448    3.93420504371106    4.19351893482726
N         0.99144094441735    3.18237636036697    4.62216209739249
C         1.54850817198073    3.34641007466769    5.95299202087701
H         1.26116531951756    2.48361450052114    6.55138679556231
H         1.21294649364908    4.26388369045562    6.44720306155062
H         2.63481866837118    3.37389640540202    5.85924162744162
N         1.47165486211070    4.17491350499794    3.74182843053861
C         1.97526727802505    3.58786634406062    2.51288690474978
H         2.46252086363896    4.37161000623507    1.93545170750718
H         1.19079958041390    3.12066690318859    1.90875971417281
H         2.71087816048536    2.82911271774811    2.78252598941324
P        -0.69326562060669    2.86066241279937    4.46696013396981
C        -0.75319745813672    1.53468927283432    3.22832845465387
C         0.20191524650584    0.50855226796189    3.17446760539984
O         1.12484041634339    0.51459938920289    4.17003285115141
C         0.12781210068136   -0.43214614770976    2.15481131428081
H         0.85493172108427   -1.22625268218148    2.08175521292913
C        -0.89756558826355   -0.36684798724729    1.22317820458649
H        -0.94132586710331   -1.10903535878439    0.43967242115251
C        -1.86204632465201    0.62181668170712    1.29674149470381
H        -2.66795267873925    0.65057851601840    0.57968180541896
C        -1.78196776879281    1.57279910333505    2.29981639504607
H        -2.52721318804328    2.35233902442256    2.39988390430875
C         2.13413556138981   -0.46341647401050    4.16933459740846
H         2.75769690440199   -0.24356234537304    5.03434075726376
H         2.74449785258797   -0.41396635568671    3.26169244044100
H         1.71958316352970   -1.47193640036957    4.27181643450835
C        -1.22639509655472    2.05504456823729    5.99182034400058
C        -1.61977021680738    2.93351820002966    7.01487188521248
O        -1.36217696940679    4.24161534762113    6.77681200465504
C        -2.21285975836744    2.42816365339118    8.16437420492411
H        -2.53752316835259    3.08498596030177    8.95571299241353
C        -2.40367912290626    1.06208024758804    8.29262379278696
H        -2.86555858864649    0.67705649329094    9.18961187220155
C        -2.02558981975428    0.19468563499018    7.28307028285802
H        -2.19412638643263   -0.86628443786003    7.38807645001860
C        -1.45499248546966    0.69416116557438    6.12524592263728
H        -1.19307871982203    0.02744104604751    5.31906731513418
C        -1.97202581744968    5.20432572016827    7.61428335649205
H        -1.75293243477702    6.17087503743454    7.16671490224797
H        -1.55348954573400    5.16723552552378    8.62571841937228
H        -3.05448479398434    5.05923542901820    7.65009141981080
P         0.46627226731341    5.56963306922314    3.63786848834104
C         1.12777241866540    6.65645762386619    4.93308612660273
C         2.49973543028663    6.75221223075487    5.21001958149286
O         3.31549690798538    6.05639294899520    4.37730603203860
C         2.92278592244539    7.54759423408589    6.26763191586804
H         3.97067593236440    7.63062718403200    6.51182292528345
C         1.99615103420618    8.25792940266851    7.01620899013553
H         2.34381775892461    8.87374747313991    7.83263902991434
C         0.64652285917511    8.19585381621895    6.72007237660928
H        -0.06387051793027    8.77002956554975    7.29472608362709
C         0.21783176596757    7.38914189973549    5.67969549536784
H        -0.82876590770743    7.32655069231405    5.40797307458244
C         4.70199549583937    6.07917925939336    4.60613197869577
H         5.13790014133918    5.44430699631144    3.83650612085635
H         4.95571933150129    5.67757485242877    5.59269450379054
H         5.11051361254469    7.09099832557176    4.51169136866156
C         0.88748748158083    6.41415102473155    2.09897936983028
C         0.17465769101733    5.97426091118943    0.97138250161343
O        -0.58158113541722    4.86781048844503    1.16679219619918
C         0.29251502927710    6.66406557369863   -0.22816103870935
H        -0.25660764563179    6.35337940381527   -1.10278098729414
C         1.11650191085743    7.77519765592075   -0.30122459613264
H         1.20303740072512    8.30560612523451   -1.23788949711017
C         1.81156925865382    8.21762388775702    0.81030157748609
H         2.43810928124138    9.09414827606194    0.74472506500114
C         1.68140391819801    7.54752187482397    2.01432808905590
H         2.19124930984256    7.90855123715188    2.89335512318559
C        -1.53782425980770    4.53133559780357    0.18071889586372
H        -2.12650444307570    3.71871712049203    0.60034670696050
H        -1.05051759188487    4.19174239474876   -0.73945703703806
H        -2.19274908903546    5.37990054425557   -0.03219374311005

