55
CSD_code = BAGJEA | q = 1 | S = 0 | Stoichiometry = C24H21Cl2N6ORu(1+) | MND = 6
N         3.13530075864228    2.09265060636316    3.90450194669208
N         0.94830947596668    3.58849514218250    3.51393861566376
N         0.48720487686869    1.32029545003069    4.88232289180911
N        -0.41169672127783    1.56969458675224    2.28773645827915
N        -0.38760264026403   -0.72065095242524    1.76294293929507
H        -0.90265011817387   -1.43905452222206    1.26832307756553
N         2.22691067791264   -4.94652347922985    0.98922274294610
C         4.09478922930151    1.27678490774405    4.32869933150993
H         3.87204117930920    0.21780328450197    4.26938121498072
C         5.30955154591732    1.74058374656397    4.80435298330719
H         6.06542977503729    1.04404157135725    5.12779600028639
C         5.53069422187039    3.10807001787784    4.84671505889586
H         6.46462460418309    3.50690560998074    5.20911046724228
C         4.52811843840356    3.95953687334011    4.40356673875761
H         4.66963336855359    5.02886117717063    4.40992841074705
C         3.34340995408939    3.42030669532929    3.93017371156799
C         2.24061009942213    4.27132790717757    3.34016639355092
H         2.23734059713827    5.28354786234128    3.76176464524600
H         2.44535698705513    4.32954865101656    2.26272579782530
C         0.44550909774067    3.73731652704279    4.89229134721809
H         1.25969419969420    4.10158219373468    5.53123378025532
H        -0.36381458002092    4.47595884901499    4.93759165135341
C        -0.01328930536660    2.42049555425401    5.46768726469782
C        -0.83829420298201    2.35182791360631    6.57815814242076
H        -1.22510014955920    3.25835252354228    7.01624568242518
C        -1.14908867269023    1.11287678797997    7.11863506664552
H        -1.79028005675564    1.03478216912655    7.98130005494181
C        -0.60363908605655   -0.01892011944462    6.52831422349415
H        -0.79986479122324   -1.00184505644845    6.92386281151786
C         0.20240971691953    0.12963350484676    5.41690734624559
H         0.65388943339703   -0.72747249617015    4.93291114791161
C        -0.07075901099009    3.94621988004510    2.51535307342318
H         0.45153823831445    4.14780059169176    1.57042490084147
H        -0.63917542054734    4.83879734665677    2.80258417896822
C        -0.98768509376143    2.78256956310467    2.21359566725937
C        -2.28128614265127    2.94071407474863    1.75582577000789
H        -2.72958112834413    3.91942938656501    1.71315897611451
C        -2.98190788172368    1.81776285384508    1.32184211856461
H        -3.99275974290326    1.91353024621762    0.96047040094737
C        -2.35456735691099    0.58936146257814    1.32071047208224
H        -2.85251555253723   -0.28871173591990    0.94200175970819
C        -1.04631764809704    0.50057829751201    1.80860531318722
C         0.90397218229148   -1.05689796508518    2.09189892582609
C         0.95130404384914   -4.73306373403061    1.23203282803587
C         0.42643530563811   -3.49493641596217    1.59564233217093
H        -0.62681007292995   -3.41315697240818    1.81235481378997
C         1.31537243661770   -2.42866359130128    1.70862512632869
C         2.67281518157588   -2.65906270229880    1.46493573993920
H         3.37761632412744   -1.84712811589436    1.54238582625769
C         3.06924016933082   -3.93539716186181    1.10319995655811
H         4.10343749488578   -4.16850976248436    0.89429522843823
Ru        1.35920798025862    1.64142227330015    3.11977298349956
Cl        2.20899318488427    2.13851367200846    0.98518806059677
Cl       -0.09596273203608   -6.08187984172266    1.08395570520349
O         1.70558732860110   -0.33240513624470    2.68403189696002

