58
CSD_code = BAGKAX | q = 0 | S = 0 | Stoichiometry = C19H32MoN4O2 | MND = 9
Mo        6.59900153136156    0.99129831452596    2.67895635572036
N         6.35700392111872   -0.03041570207642    0.97890344216499
C         6.21516015339213   -0.70282457318796    0.02106610219979
O         6.04261168666778   -1.34098991841497   -0.94890879863918
N         7.31843451658211   -0.41278276034414    3.40652432071915
O         7.66873217347284   -1.36625777402190    4.03171715017479
N         8.24448613621726    1.93953988635186    1.65616653285051
N         8.09330740062522    2.09940646572297    3.79239062468649
C         8.85612879922698    2.35156621532038    2.74482336295622
C        10.20108461243875    3.03203231205815    2.74236257082367
H        10.51343149910880    3.30066484337903    3.74266458169775
H        10.15165106438731    3.94203765732226    2.14426891506739
H        10.94752776323600    2.37424012095269    2.29950381347757
C         8.79081729399707    2.09866999053856    0.32788257356439
H         9.54613262377137    2.89901314516729    0.32808796358784
C         7.68162605282695    2.49982687708698   -0.64463670712840
H         6.89815195991009    1.74632689649252   -0.64175344553254
H         8.08071870559692    2.58781846876490   -1.65212921524584
H         7.25728726037618    3.45932705664508   -0.35412493513835
C         9.46521109418956    0.79268133346325   -0.10628238653467
H        10.25582728433968    0.52706871817304    0.59333326956659
H         9.89288901493509    0.89716047930756   -1.10020985813270
H         8.73324600260852   -0.01184823698667   -0.11410887458028
C         8.55394942690418    2.02789036783295    5.16703721162940
H         7.68567080602590    1.65618254680838    5.72505353355250
C         9.67460466342352    0.99732684393433    5.35337309079752
H         9.35421934142571    0.02549691922895    4.98629863421001
H         9.91013077845562    0.90609982505868    6.41126709260522
H        10.57586484384024    1.28693964008962    4.81993105933481
C         8.95534673563330    3.38880834484745    5.77187434431812
H        10.03017903596366    3.54638684765108    5.72678888940918
H         8.66604227320986    3.42883484926391    6.81913579302547
H         8.46404479759270    4.20503591606584    5.24912982952481
C         4.35510363194274    0.61926350034789    3.02052135083210
C         4.87550415722320    1.22007348661274    4.20573953853835
C         5.27631020671415    2.54656627252618    3.87367007797737
C         4.99925619131914    2.76858304846400    2.48805315012839
C         4.38895434860623    1.60626441065262    1.97649573625418
C         3.59610771838622   -0.67496445453642    2.95914635868338
H         3.95255642438226   -1.36578145180921    3.72074195129540
H         3.71761848263357   -1.14908155206122    1.98606531320228
H         2.53058672660448   -0.49633332000925    3.12418763099322
C         4.76768391123305    0.62609193026569    5.58086456161188
H         5.31696500578916    1.21647105304297    6.31078358151446
H         5.16094277159452   -0.38960421138594    5.59893295523753
H         3.72078672370987    0.59208183661620    5.88996882322954
C         5.56942288891762    3.65522138743882    4.83899280271753
H         4.63922473380439    4.18545525236664    5.06014820966888
H         6.27033438432061    4.37292767500623    4.41673736852327
H         5.97552380026360    3.28391935406734    5.77582054472373
C         5.08369430221683    4.10984746586596    1.81757711128730
H         5.00582080332527    4.01403848021785    0.73685415849927
H         6.02329657353415    4.61113095736375    2.05089172058532
H         4.26666746317978    4.75013377756151    2.16024505855749
C         3.71100817716527    1.46267853576505    0.64954432238245
H         2.64068075477392    1.64706588226137    0.76871338529959
H         3.83800429088781    0.45852324861655    0.24824656337142
H         4.10132427461183    2.17146551773339   -0.07792911185500

