47
CSD_code = BAGPEF | q = 0 | S = 0 | Stoichiometry = C20H12ClN6O7Re | MND = 6
Re        9.02830554710029    2.39289462831542   13.64663079135413
Cl        9.91532725382129    4.48964792770821   14.22091519719289
C        10.77447810592274    1.70794869461400   13.11903170102466
C         9.28420747299572    1.69865593148729   15.44821648795467
C         8.06969106177267    0.81685507968257   13.04390876328352
O        11.82531411591000    1.38040789006183   12.80712082022999
O         9.44336477118443    1.37141887219523   16.53289793875316
O         7.46011660724285   -0.09241998368964   12.68532284405974
N         7.14271563234538    3.39823136641931   14.16102542072493
C         6.97201969569810    3.98661709274276   15.34175995586313
H         7.79029110880984    3.90361662918185   16.04464248295347
C         5.82389760513235    4.68157285641111   15.67995870085225
H         5.73866163024581    5.13378887793187   16.65446072993738
C         4.80269298661013    4.78203166075277   14.74968338099104
H         3.89227904346572    5.31506869347598   14.97430519185005
C         4.97776613972861    4.18128204809181   13.51559098957350
H         4.22041131469092    4.25792552777933   12.74962466946890
C         6.16149734579817    3.49347357106095   13.25781196161918
C         6.36562595657666    2.90632769330726   11.90611218317874
N         8.71373348284705    3.41102318299768   11.69623032697355
C         9.72906649124833    3.96387232555416   11.03944882222517
H        10.68918473940483    3.95221805409707   11.53820987405738
C         9.59266829873471    4.53772383568713    9.78741090227202
H        10.44967086237769    4.97604494945440    9.30242275966624
C         8.34891845201231    4.52392095942109    9.17582557842302
H         8.20886302094759    4.94413133499889    8.19174924692587
C         7.28434059926145    3.96709066365449    9.86184155822340
H         6.29103876765185    3.94149245038974    9.44369771586920
C         7.50391836471571    3.43409335150945   11.12756503921743
N         5.57651578543511    2.09069491383050   11.31344609497528
N         4.52981598091913    1.57215422895606   11.95619687154108
H         4.32772324220145    1.80978151507991   12.93450228283201
C         3.74095290321465    0.63987525353254   11.37292391157151
C         2.63463118933634    0.06615836994497   12.05038969642861
C         1.83611805936174   -0.87407242145361   11.40532075753590
H         0.99316222240585   -1.30641132202186   11.92680080564145
C         2.11580607083421   -1.24682171474053   10.10686132037888
C         3.21138675553381   -0.69906983113343    9.42684869439512
H         3.40918728070391   -1.01946614797185    8.41546479742536
C         4.00408384427888    0.22387955595509   10.05179786623749
H         4.85770220865119    0.65726212203274    9.55748192297431
N         2.27761418677074    0.41115149956821   13.39119863956490
O         1.35714008261810   -0.17683074269130   13.90731902374052
O         2.91500916775330    1.29604777384346   13.95544812985825
N         1.27048220482442   -2.20471582785555    9.44035152011864
O         0.32467661138891   -2.64227450274550   10.05673805791724
O         1.56082572951018   -2.50389888741848    8.30218757215454

