39
CSD_code = BAGROT | q = 0 | S = 0 | Stoichiometry = C14H16BrMnN4O3 | MND = 6
Mn        6.31285724825455   10.93980868255380    4.66106081884592
Br        6.80113382791542   10.93974018549367    7.08971209334172
O         8.54016694647994   12.81418567337066    4.39877818041582
O         6.03597417260780   10.93968960691967    1.75453522025932
N         4.71969126241828    9.49778040490123    4.95710274529921
N         3.61672374882101    9.75239112325517    5.68983333192638
C         4.54211128764591    8.30170986219087    4.40451999598988
C         3.30037923440112    7.78424292577534    4.79860964567635
H         2.88322906552705    6.83976055060468    4.51698316896195
C         2.73219267686679    8.73137948823642    5.61950735996834
C         3.51282354140411   10.93979455465947    6.49541704590388
H         2.54836008156562   10.93978545845831    7.00264613827431
H         4.32743026620364   10.93977550866733    7.24105547026728
C         1.43051828878035    8.72149657958946    6.33245852623397
H         0.90284361163445    7.80230639457931    6.09490513521189
H         0.80650911431321    9.56253839667638    6.02898257804965
H         1.57483593510899    8.76527726926589    7.41197779066908
C         5.53062311390288    7.62855906976561    3.52432984270201
H         5.89539065833229    8.30549120733879    2.75267894891975
H         5.06994902998612    6.76505254583316    3.05165505665482
H         6.38586107771426    7.28868928708740    4.10809015297823
C         7.61941437408313   12.13283624224654    4.50212149436515
C         6.08482368978912   10.93981024310698    2.90889225755093
N         4.71971425531220   12.38181973419174    4.95713906512875
N         3.61674469607434   12.12722636250248    5.68988003303051
C         4.54212182032599   13.57787203673795    4.40452357617529
C         3.30038504607156   14.09534451723073    4.79860276550350
H         2.88323881202224   15.03981948163869    4.51694271412289
C         2.73220733823878   13.14823227341684    5.61952888124950
C         1.43054542007069   13.15813363555659    6.33250451136417
H         0.90295622790616   14.07741243290162    6.09510876445433
H         0.80644384069366   12.31720528566407    6.02890374507665
H         1.57487755082242   13.11416379146765    7.41201303620730
C         5.53060416500580   14.25103732536420    3.52431042090346
H         5.89550743803997   13.57406522122946    2.75275640650229
H         5.06984088314013   15.11443025156818    3.05151097048721
H         6.38576400100906   14.59108471844453    4.10808207621876
O         8.54018559809679    9.06548636896877    4.39859061792334
C         7.61942065341560    9.74676530253958    4.50224941718563

