47
CSD_code = BAGXUF | q = 0 | S = 0 | Stoichiometry = C20H20BrMnN2O3 | MND = 6
Mn        6.88510283800300    1.78065703127202   10.42526462757102
Br        8.97858332739214    0.82686917485290    9.45929201178441
N         7.38526901104567    3.45317507375871    9.41392530047080
N         8.03454574201914    2.72948710132856   11.79633664916081
O         4.19524383962830    2.80630691604225   10.92609560832941
O         6.59999873493501   -0.60615397368282   12.11443332302695
O         5.68679080834994    0.30568123174486    8.18881748278359
C         5.27720803480155    2.42838910673988   10.80589981695238
C         6.69455306874572    0.33574637140387   11.46692390798353
C         6.13678471994494    0.90544134886471    9.05709230453937
C         6.99066599392321    3.81105883057336    8.19309049206331
H         6.21804789062345    3.20640161110702    7.73401325577167
C         7.52522108253258    4.88698322604114    7.50984631928799
H         7.17003424578647    5.12290003256311    6.52001860723118
C         8.52586661578869    5.63772048056855    8.11367602526633
H         8.97478750547853    6.47456533630918    7.60178944100875
C         8.93613117082878    5.28665881522752    9.38344220570407
H         9.71389109820131    5.84187205290437    9.88122564809215
C         8.34507236823355    4.19155611861943   10.01588873596843
C         8.70904227420781    3.73522081358372   11.34990050171083
C         8.39797910455812    2.13839795191818   13.03826916334955
C         9.53814000191488    1.32933597254836   12.97882411217442
H        10.07528407398249    1.25451771095762   12.04443524774856
C         9.95841270400966    0.59642643085509   14.06645863866723
H        10.83229147767008   -0.03080495206868   13.98657530340783
C         9.23706960782456    0.67460589064995   15.24282672683822
H         9.52934716418217    0.09579177079045   16.10569492534134
C         8.13669263902109    1.50516787079765   15.31432063741040
H         7.60120166592000    1.54754949240772   16.24772987315560
C         7.69138909322314    2.27794760882460   14.24145069362211
C         6.46115411504748    3.15539052316132   14.46193397054198
C         5.22541454863711    2.26075709899767   14.29601999705840
H         4.31607345370973    2.84256307163684   14.42789266491913
H         5.23545849168172    1.45672509994634   15.02816486984117
H         5.21023579025555    1.81214648241119   13.30323206332209
C         6.46571545416534    3.75226768524952   15.88071390124375
H         7.42611948609819    4.21343912062788   16.10230006556336
H         6.25287136237869    3.00693845096210   16.64084900719777
H         5.69447730531940    4.51543261887815   15.95608025801224
C         6.36720458694669    4.34129138257594   13.49635498145875
H         5.52566428014453    4.97050699868398   13.78005005978269
H         6.19382873698513    4.01825184869874   12.47331226273477
H         7.27022265415907    4.94775842695493   13.53787240400755
C         9.79371290973825    4.43155584679785   12.10920407316178
H         9.86817514596016    4.03924738712744   13.12084694251832
H         9.59804144224393    5.50208445344498   12.15549321159216
H        10.74928233374487    4.27857105634496   11.60762168061861

