72
CSD_code = BAGYUG | q = 1 | S = 0 | Stoichiometry = C29H30N5O7Zn(1+) | MND = 6
Zn        2.33617616218887    9.14704128541793    5.50919535754524
O         3.75835917517646    9.61572094328145    0.69856106112823
O         4.65526505397491    7.57958710066227    0.44755889053914
O         6.43468809562539    5.85664619596081    6.03208118726284
O         5.58539700475296    4.67564005906816    4.33007385868085
O         6.31625783913805    7.26983364417467    2.73596298529169
H         6.45533179382069    7.13554735771844    1.79103841957142
O         0.63728925316273    9.52034664753831    6.34810476574365
O        -0.45075650075107   11.17651039238105    7.37614594293496
N         1.58783076964009    9.89817399141332    3.62846246094429
N         2.88237689361419    7.68340899809609    6.93685773978280
N         2.37410966757668    7.41742395049953    4.32118753626237
N         2.85200230819001   10.88121667689547    6.24665916618094
N         4.53000198081354    9.36356794285169    4.84788989572752
C         4.06660272409920    8.24449949660013    2.65859239983513
C         2.59924193610300    7.83423813916656    2.93761821342776
H         2.36346215093440    7.00265783250769    2.25014529452221
C         3.37200274946027    6.51257443354482    4.89151294534787
H         3.22212594696578    5.49267261564613    4.49911651105056
C         4.82856469660642    6.90942704045642    4.56141016955507
C         5.32417323760696    8.19597568045238    5.22456424214723
H         5.30256882860706    8.07520111862654    6.30786865106789
H         6.37146580482507    8.31923479856478    4.91405206373708
C         4.55874658837290    9.49927605629609    3.39380943687928
H         5.59308167167580    9.67028311135686    3.05387364633360
H         3.95444232360103   10.35706885272117    3.09641949118204
C         4.96642368445346    7.05281998894772    3.03954362829363
H         4.60451027109601    6.13850665095451    2.54940059285196
C         4.14196489109798    8.57637889466557    1.16066692321941
C         4.75427050454278    7.78559711554389   -0.96479478361739
H         4.94105652395819    6.80848142946928   -1.40196845717094
H         5.57683887470830    8.46714869685732   -1.18469893881261
H         3.82813883323322    8.21440504152975   -1.34825438649386
C         5.72900282843771    5.76866838316930    5.06721074809380
C         6.39828861081779    3.55624001956512    4.69017556262712
H         6.01333542564954    2.70836562041392    4.13020693104489
H         6.33856056071725    3.37626701242209    5.76442108518285
H         7.43701277697757    3.75140567594828    4.42215136755919
C         1.67524337959527    8.99491451463655    2.65437603145582
C         0.98242410500405    9.12271289616466    1.46074626128016
H         1.06162077594473    8.36348155301721    0.69859724077491
C         0.18355489505244   10.23921799228562    1.27039378583262
H        -0.36754173080437   10.36618238230946    0.35177349351137
C         0.10421803957317   11.18198029259590    2.28274181771144
H        -0.50584366785889   12.06389996084981    2.17758165840950
C         0.81920617084536   10.96462480504021    3.44808581025427
H         0.77252947457865   11.66447874408918    4.27007451482277
C         3.19223196729829    6.50828916484490    6.39226645001010
C         3.37376384502614    5.36612080124863    7.15640134040360
H         3.61160964474640    4.42579720151737    6.68428920277691
C         3.23083898207116    5.45519033969497    8.53272955881759
H         3.36532666791705    4.58277568018473    9.15292504625994
C         2.90448860095448    6.68059663035787    9.09221413304391
H         2.77800169093007    6.79063273387927   10.15665290385437
C         2.73370933261113    7.76844015999227    8.25248260343518
H         2.46373199163634    8.74110091914798    8.63729068866139
C         1.05848973641181    6.77341760039183    4.40968858560261
H         0.84333346525128    6.51718098201510    5.44411193073887
H         1.02247806708627    5.86431755407267    3.79804101806729
H         0.28632865640651    7.46141406403014    4.07446330917992
C         5.09115960644676   10.57342151359074    5.47512318478357
H         5.69810976828717   11.14440323987895    4.76368276513411
H         5.75208076608583   10.27457927354797    6.29510244837088
C         4.02693123686409   11.45992524282620    6.06856403009060
C         4.23163653136823   12.77493589819613    6.46565234988880
H         5.18907762079525   13.24969956360156    6.31935393739529
C         3.17800165502140   13.46124776299810    7.05649077197176
H         3.31484972271898   14.48312246422785    7.37606414153641
C         1.95261272679034   12.83201872297249    7.23008010198955
H         1.10617923251794   13.32433688068456    7.68132330294029
C         1.82698677112199   11.52175657839096    6.79542535545091
C         0.52871833023076   10.68102699533195    6.86618762008211

