37
CSD_code = BAHGEX | q = 0 | S = 0 | Stoichiometry = C10H18I3LaN2S3 | MND = 8
La       11.11192708118783    4.10634135273206    5.77184503099435
I         8.80427712181089    5.73134897509154    6.86894667328912
I        11.27014984536807    4.99528487078396    2.85971861602405
I        11.99938623572051    2.88692855638897    8.40915898108509
S         8.30812205289183    3.17148351270773    4.06138636283781
S        10.93334100226034    1.06592987738006    4.39686212306089
S         8.88830140128547    1.80300073570851    6.96352637947849
N        12.46211658434204    6.17403437702498    6.57143495122694
N        13.49892401486822    3.32360351839739    5.06059630594849
C         8.50777351995032    1.67150236574980    3.02619082165720
H         7.90294427716852    0.88537181908792    3.47461284628554
H         8.10391776696367    1.90126129151969    2.03879466569284
C         9.95721487336415    1.24978888194532    2.86127434884902
H        10.50746329761790    2.00917770926943    2.30431895867210
H        10.01401193228379    0.30285456446925    2.32116239952896
C        10.00033049426664   -0.21796352242106    5.31784283217173
H         9.09748278708354   -0.42344778724096    4.74577096883758
H        10.61879024687288   -1.11703088744606    5.32490983123859
C         9.68899141480794    0.18055457654780    6.75076968966244
H        10.60777994004107    0.27175271169934    7.33078383660374
H         9.05369964270781   -0.57464774869584    7.21654973138216
C         7.27761111375777    1.54455891758725    6.12465173202343
H         7.32355379420694    0.58444872184518    5.61321709194768
H         6.51012262260684    1.49110174754755    6.89783570393039
C         6.94975569192354    2.68309677860019    5.17363519812064
H         6.74743428293386    3.59632416247445    5.73390179032184
H         6.07817175083011    2.43972391610214    4.56420738257413
C        12.31524587073088    6.97820360742298    7.37650366650870
C        12.08603556789375    7.95525124010964    8.38310517249664
H        11.00801588080712    8.05417375285558    8.52504215173714
H        12.50356922687599    8.91366883587555    8.07825479089668
H        12.54356067904740    7.62985691912770    9.31707842333625
C        14.43197207295880    3.28282583887577    4.39744093167785
C        15.57312347412193    3.24106230839811    3.54700412782426
H        15.33112694653405    3.74637907043356    2.61109621758079
H        15.84308510297675    2.20533438639258    3.34365260622784
H        16.40797038892025    3.74846004565658    4.02931665840514

