55
CSD_code = BAHGID | q = 0 | S = 0 | Stoichiometry = C24H27BrN2Ni | MND = 4
Br        3.76001121141939    5.46590300640714   -0.41108029223223
Ni        4.50998621855058    4.31545983503403    1.31420453992143
N         5.13184957432488    3.05322693573478    2.73316679996146
N         2.89633215216812    4.47309449596437    2.50099818191830
C         2.90460174408517    3.53846102794066    3.37703246665527
H         2.05063597290230    3.33324439156740    4.02300326523041
C         1.75774056979351    5.25850048523313    2.30786010338398
C         7.08555990672903    6.02079505998810    1.14420300511323
H         6.30650416057581    5.96712118832756    1.91661172245772
H         8.03617732771205    6.25530159444799    1.61900991802485
H         6.82814816731101    6.83003182193043    0.45947165239621
C        -0.43482661154672    6.92838586157696    1.90032191866700
C         7.15303867009952    4.72324802112754    0.38646816270508
C         0.52512555017975    4.70199468776822    1.94652709014353
C         6.04886075511614    2.75109347242702   -0.47887040897372
C         8.33022458316414    4.31199693279439   -0.22228996087754
H         9.21335377301780    4.92934369209368   -0.12723279740836
C         7.24384297936865    2.36545096163929   -1.07609882025455
H         7.26700842085225    1.45018579228263   -1.65205339219129
C         4.11042550248533    2.76684854049153    3.56607335508723
C         0.80172420684350    7.45828438989463    2.24331016733628
H         0.91201461639675    8.52751785194014    2.35084777092484
C         8.39109057278083    3.13281908175579   -0.95300024521021
C         4.80989849058431    1.91389240521850   -0.65035068371552
H         4.99233375033525    0.87871477230423   -0.36204602525529
H         3.99209380196755    2.31483585032046   -0.03593828773903
H         4.48760683928270    1.93118402970459   -1.69087367531366
C         0.36022508658548    3.23042772810261    1.69541117882344
H        -0.40892122381298    3.06946730170393    0.94370002276287
H         1.28599147011113    2.78419695529676    1.33484805101606
H         0.05575856706205    2.70516353793722    2.60223240620975
C        -0.54830511704231    5.55491963438337    1.74513800048601
H        -1.49802034117091    5.13215896782272    1.44909596708810
C         3.23285011295009    7.21769792563608    2.82130422218361
H         3.26755199746444    8.28483092566654    2.62166033552296
H         3.43669960291685    7.05163366493005    3.88089162347032
H         4.02537509005548    6.72756528448895    2.24493479523443
C         6.27890878834151    2.40735262679484    2.90107249102371
H         7.08189907651554    2.66321613071698    2.22256900023942
C         5.41332045627952    1.13053170552353    4.72881266418502
H         5.52609042899928    0.37908000233849    5.49558695789550
C         4.21865834402230    1.80289821493041    4.56981103233356
H         3.37014618503076    1.59895329196137    5.20504959514503
C         1.90394441619866    6.64783772758000    2.43764591108900
C        -1.60919428896566    7.82488246780861    1.65846173881404
H        -1.55742555308808    8.71134470247418    2.28657463233161
H        -1.61305642620088    8.14957995680739    0.61766125478109
H        -2.54426075220473    7.30468632920182    1.85360309652327
C         6.46729239749166    1.44721123546964    3.88074116862743
H         7.42190248740813    0.95476945800349    3.97214117596577
C         6.02002469607881    3.92084023470214    0.27211294957264
C         9.67025243758041    2.72045540663669   -1.61992175688439
H         9.66019501734949    1.65971899278528   -1.85952894747499
H         9.80193951164893    3.27731112773462   -2.54797037805934
H        10.52589462592734    2.92993227664268   -0.98051471969017

