49
CSD_code = BAHJUS | q = 0 | S = 0 | Stoichiometry = C22H14Cl6N6Ru | MND = 6
Ru       19.29415293187512    6.89168365054689    6.52033641822794
Cl       20.58120897683697    7.52391772719203    4.64290545028329
Cl       18.09235176449106    5.30952523702008    5.29664543597445
Cl       17.34496750065455   10.65787682463618    8.10921681239953
Cl       21.10925824349548   10.33875416302490    6.07031290529400
Cl       17.73381053690621    7.94578758723500    3.50012390268476
Cl       19.53117443982561    7.56674392091215   10.38905189255307
N        17.86603664132650    8.18260762372589    6.48082914464817
N        20.50970543045864    7.87492418495836    7.61890146404583
N        18.10702626298065    6.21951943617010    8.01271984951446
N        16.87446912130881    8.02981161549966    7.29132224672026
N        20.86497197569566    5.57569876768929    6.72158782853995
N        21.68993538754116    7.41585789946598    7.83732741299544
C        16.96521208067292    6.94295237045429    8.08153375167031
C        20.28019573017604    9.09085782953867    8.30461064185398
C        17.83680428539353    9.38518710614995    5.76475747317635
C        17.93494821704125    9.40451354124160    4.36489354957789
C        18.23043442790019    5.12991573420866    8.76191545068141
H        19.15569506845230    4.57644829203464    8.65914276332728
C        21.91971410681487    6.19861533081237    7.29751624130673
C        17.70627912919889   10.61526826405494    6.42562287674651
C        21.03306726514262    4.35725680628504    6.22434138674546
H        20.16373576342347    3.90894269916775    5.75816122669549
C        17.24271753552970    4.71687673339212    9.63011691749494
H        17.38483874664224    3.82729331058791   10.22143519550555
C        19.70594442697001   10.26020463440855   10.34640128704590
H        19.37180333779630   10.22349363473199   11.37056060965733
C        20.57053043811051   10.31906387089303    7.70423250936041
C        17.86171059136139   11.80935438710719    5.74534359673332
H        17.79126077125831   12.73781720871637    6.28807019063785
C        20.42949817994821   11.50001830496244    8.41813042289754
H        20.66365961792921   12.43330995046125    7.93365020338681
C        19.85713244555067    9.08407585453103    9.63397055569235
C        22.24720705940837    3.69764025719990    6.27717803328502
H        22.33816453861378    2.71222229554587    5.85045039998489
C        15.92163282756763    6.58706555029014    8.95011072127604
H        15.03772239762602    7.20198546537360    8.96651523452094
C        23.17906439860504    5.59153122379928    7.39140903018423
H        23.98202233911688    6.14049590784715    7.85362522076243
C        16.06685933634208    5.46445257019354    9.72748507863304
H        15.28269319629480    5.15725773641255   10.40206764701930
C        18.08869530504397   11.79616610794531    4.37925239498539
H        18.22561393962924   12.72649346170603    3.85121213581397
C        23.33933188836661    4.32827097768485    6.86960839267338
H        24.29818597307061    3.83466735312616    6.91251301330554
C        18.08811170574393   10.60203848004201    3.68297994416155
H        18.19072628018693   10.58337040125498    2.61034738028024
C        20.00138439260752   11.46564238330077    9.73254297169724
H        19.89463304306790   12.38472532646189   10.28641478734149

