82
CSD_code = BAHKOL | q = 0 | S = 0 | Stoichiometry = C40H30AgF7O2P2 | MND = 4
Ag        0.24064109758882    2.57302370398021    2.43601295965459
P        -1.95047268110352    2.89229520013572    3.84328101200398
P         0.90605612487145    0.21384186838670    2.74203507242590
F         1.16177484421672    7.03612885635364    0.43280536896879
F        -0.92170646150254    6.58117339131716    0.05526519925668
F         0.74637264748483    7.65675126906897    2.93690972123977
F        -1.15905788140389    6.63660981536515    3.03581150373047
F        -1.17737987936217    9.44830305642567    2.90280851320473
F        -2.31726779190426    8.40550528055410    1.41589029139527
F        -0.44239612838662    9.32317651398650    0.88952257472423
O         0.95010109955964    4.83674833714548    2.44561120389966
O        -0.17706183831159    4.12461856915843    0.67194753403050
C        -3.02783599077742    4.21392254559261    3.20287669493285
C        -3.13491430294689    4.33795446942899    1.82028002555023
H        -2.59537866906359    3.65266291102156    1.17856851125030
C        -3.89871166235677    5.35063771516837    1.27087244939240
H        -3.96051935956580    5.45605037399708    0.19862148956751
C        -4.56043811899709    6.24314322181385    2.09832900345640
H        -5.14148688239608    7.04527283296700    1.66951354063841
C        -4.46271435168189    6.11666931717737    3.47440133608337
H        -4.97595859081975    6.81543129668143    4.11875073576042
C        -3.69836025101426    5.10738604624858    4.03092083406833
H        -3.61163728470226    5.02212598274601    5.10460213433106
C        -1.55902734880123    3.50431686054049    5.51612257924596
C        -0.42929815737960    4.31158054306230    5.63129325849706
H         0.16204014751990    4.53276128629636    4.75007435341343
C        -0.07041513288971    4.83302192351348    6.86052969427254
H         0.80322471656246    5.46195701047350    6.94277944038212
C        -0.83061099607217    4.54538545642717    7.98313227322174
H        -0.54937748943052    4.94873142118811    8.94483271230030
C        -1.95286575970885    3.74034113799758    7.87273103268168
H        -2.54752970206347    3.51868953146141    8.74724376247458
C        -2.32194162295184    3.22067156501220    6.64443532179360
H        -3.19994342217637    2.59545167416640    6.56251842264946
C        -3.13629934984736    1.54990630774458    4.19181360470258
C        -4.42383790623210    1.53244301661208    3.66999825569184
H        -4.77377703735089    2.36332275545564    3.07406532829000
C        -5.25732470971361    0.45633125578111    3.92049118009519
H        -6.25980977063083    0.45102018109134    3.51810500691338
C        -4.81289434049900   -0.60784109423192    4.68589940540206
H        -5.46768431503785   -1.44358761188703    4.88306396728411
C        -3.52429564630497   -0.60095712068589    5.19722314306213
H        -3.17245761139624   -1.43146639906080    5.79153032298132
C        -2.68648973428268    0.46666554059313    4.94447061575405
H        -1.67654941538254    0.47263508319750    5.33440095886791
C         1.34279766480949   -0.17576287385468    4.46784973500615
C         1.04532543448480    0.78675533255426    5.42764079650651
H         0.61892001211479    1.73440448807757    5.10976064486100
C         1.30286665213618    0.54828908195919    6.76463393671614
H         1.06236670311105    1.30147800853004    7.50041810139455
C         1.87552958826978   -0.65309520862932    7.15069843021148
H         2.08221876329994   -0.84303438169147    8.19328250315611
C         2.19724912432604   -1.60624891053396    6.19739049246870
H         2.65756764322871   -2.53603802459191    6.49816144983416
C         1.93421501387281   -1.37356456830245    4.85911645248342
H         2.20283064819972   -2.11318914977640    4.11728823253185
C         2.09220388490619   -0.81203837538470    1.81726741972850
C         3.44752156544830   -0.56163756654272    2.02744617498704
H         3.74087194948137    0.18859924115025    2.75118189569809
C         4.40101064359297   -1.26789962103591    1.32119911058818
H         5.45018227165125   -1.07675503980084    1.49134301182468
C         4.00954493321606   -2.21665322549802    0.38833900901001
H         4.75476242966953   -2.76675941432882   -0.16647619732843
C         2.66397923651810   -2.45236903556023    0.16193140668606
H         2.35961012116429   -3.18503267895203   -0.57103752442725
C         1.70266571862107   -1.75074153770090    0.86889655226333
H         0.65261952584160   -1.93217646310129    0.68690845606712
C        -0.66084767637508   -0.69440664346499    2.51293280667001
C        -0.93748464307095   -1.90913389907536    3.13002556142385
H        -0.21017786386484   -2.35853811276996    3.79044851979920
C        -2.14899955519207   -2.53653686790930    2.90346341786131
H        -2.36149889265096   -3.48037844336277    3.38371801266113
C        -3.08944692290704   -1.95932029233513    2.06598906906822
H        -4.03518830803448   -2.45164195574720    1.89679398855199
C        -2.81819675420522   -0.75015027838564    1.44726195532648
H        -3.55009121558052   -0.29884200635814    0.79468552396545
C        -1.60845538921026   -0.11980984866614    1.67066331946629
H        -1.38161508543693    0.82910233396634    1.18637808813973
C         0.30969444905099    4.97898903673567    1.40401722396757
C         0.05688591718314    6.48152244661813    0.98753190948722
C        -0.34063045847315    7.33415542537393    2.21503416442060
C        -1.07829021105546    8.64674612734929    1.83982399515210

