39
CSD_code = BAHYEO | q = 0 | S = 0 | Stoichiometry = C13H16CrO3S6 | MND = 6
Cr        1.21528769304320    5.71569818089973    3.34755546546676
S        -0.87200049973265    4.53472526496181    3.45257402612755
S         0.17592273853622    6.99206974904661    5.09096883073235
S         0.06123381089660    7.15784061875350    1.86719758599908
S        -3.65080629780475    5.67740554740083    3.55427341520714
S        -2.68514909854368    7.78728025744757    5.50915966509597
S        -2.80115201809400    8.09727167026344    1.87757978995374
C         2.82580980507503    6.58690580861291    3.30855309638207
O         3.90208445036860    6.99280055081593    3.28139701574324
C         1.97383482867727    4.79568109614118    1.94161031262431
O         2.56546109737673    4.29296851021926    1.09282045561466
C         2.12269670504355    4.70896703304997    4.60213837753094
O         2.82196012042744    4.17861703147533    5.34224524997998
C        -1.44791205835215    6.88848745054275    4.70063980478822
C        -1.88003272067650    6.11155024726042    3.50933908806879
C        -3.78274138495585    4.83768389692295    1.93670215310951
H        -3.55034848321766    5.56377986602780    1.15759198891083
H        -4.83637788086534    4.57155730404721    1.87205201404097
C        -2.90432962787221    3.60181262226434    1.83240136315497
H        -3.15212311056334    3.07928826899403    0.90482228456348
H        -3.11352206681603    2.93272955723859    2.66975514301223
C        -1.42263243516276    3.94511108229726    1.81721573659050
H        -0.81428398555617    3.06165417287411    1.62474931817700
H        -1.19321826798031    4.71146459220354    1.07353922319836
C        -1.51657588379792    7.04725621640459    2.40903489583355
C        -1.70221498914709    8.70720945326269    6.74908883826546
H        -1.17433614804411    7.96690776765416    7.34970194601575
H        -0.97556920508570    9.30750888803874    6.20138842143467
C        -2.62352799604829    9.56427180145518    7.59183687294847
H        -3.15730092869891   10.27983965645485    6.97069769355161
H        -3.35205669674709    8.94585573591562    8.11070755548226
H        -2.03888679184358   10.10908907115324    8.32951583920686
C        -1.87791946668034    9.48586613827157    1.14013878031259
H        -2.63114512680947   10.03853256429865    0.57995288761578
H        -1.14369639996997    9.06345740159161    0.45526030139538
C        -1.23108912424052   10.34700014345063    2.20583281676668
H        -1.97895769749050   10.72138711119285    2.90192183204063
H        -0.48780322392210    9.77762572480224    2.76168910825371
H        -0.73078163471905   11.19204194628934    1.73825080680343

