69
CSD_code = BAJBAR | q = 0 | S = 0 | Stoichiometry = C36H25BrF4P2Pd | MND = 4
Pd        2.47884345873781    4.76233728432571   14.88984640951216
Br        4.09826837954149    4.99480837213107   16.64571389086623
P         3.83244795340747    3.76827735112785   13.31082412870587
P         0.84404769232725    5.70189583599814   16.09866590930485
F        -0.90282091857162    5.08948273733955   13.54333945585827
F        -1.61510473881311    4.07953506717467   11.13445236796104
F         0.20640456667626    2.83304849393783    9.54664191186730
F         2.81180359427919    2.58672526966237   10.39535519020858
C         2.24824872300388    3.68302469451251   12.42092604415730
C         1.33282100382112    4.33994680471090   13.26067062643400
C         0.03323210003137    4.45843657988832   12.79688654323198
C        -0.34856605261934    3.95075828628611   11.55800103845391
C         0.58231324913538    3.31230528250062   10.74335132885369
C         1.89653471338104    3.18763238877981   11.17814287551086
C         4.74888695662897    2.25539982346438   12.93938813198563
C         6.13993247299375    2.28247612393239   12.89998080711548
C         6.84018931653264    1.11331148407779   12.66890389537264
C         6.16060120945481   -0.08192199912279   12.49488358956225
C         4.77703709940544   -0.11385771823183   12.56609629406472
C         4.06871832367787    1.04966568757993   12.79896726819483
C         4.63253242890543    5.12552437099405   12.40362650353993
C         4.50941810357579    6.39848583870723   12.95814159804128
C         5.01873313141855    7.49539865617856   12.28697373990119
C         5.64980614672505    7.32300329547245   11.06571983768447
C         5.76864666036731    6.05729488322918   10.51204688055318
C         5.25955059007071    4.95499153798888   11.17400692792801
C         1.14143057856878    6.24217863189982   17.80657628994522
C         1.90476659923029    7.39343659190705   17.98563625885478
C         2.19908076496635    7.83626987709648   19.25914380124447
C         1.73766854531793    7.13083210987147   20.35996289524863
C         0.98705221895323    5.98123112948811   20.18433713136834
C         0.69076953961023    5.52926217375789   18.91013341243385
C        -0.39641252684065    4.38428532275154   16.28016180431100
C         0.11969851940408    3.08761698967243   16.27537941740133
C        -0.72857584435497    2.00383629188853   16.40384607492690
C        -2.09444001158133    2.20944812427132   16.52466787629689
C        -2.60843022802612    3.49575224654308   16.52086065217875
C        -1.76416364579831    4.58612520140018   16.40249593558740
C         0.10940407690768    7.19466341207620   15.37877252271871
C         0.60261757566402    7.64013604226890   14.15732220741118
C         0.09187014855296    8.78796799169046   13.58006429504369
C        -0.90857101948453    9.49659661176078   14.22496709853832
C        -1.38211228763721    9.07078139908241   15.45622355820684
C        -0.86954796812052    7.92781446412057   16.04115230649509
H         6.66298530360632    3.21744115996682   13.04919327675589
H         7.91918249261469    1.13348905066110   12.62756187444980
H         6.71078409085600   -0.99268858193378   12.31131164428976
H         4.24965429491483   -1.04811151920898   12.44236107101713
H         2.98858947426678    1.02846210124086   12.86809233684616
H         4.02567138311976    6.52904223259435   13.93652943312088
H         4.92839573237643    8.48148953639317   12.71771386019650
H         6.05114274644478    8.17799463383745   10.54226734458507
H         6.25792741912634    5.92955404853440    9.55788526481549
H         5.34403873434562    3.96768988291368   10.74257700638308
H         2.27536478293898    7.92480534627897   17.11748573225515
H         2.79636505122949    8.72490676491760   19.39613790779322
H         1.97249679907024    7.47373662450341   21.35647653482767
H         0.63585263403259    5.42727927936149   21.04242993574942
H         0.11414614898046    4.62461620921673   18.77432591096287
H         1.20463378450024    2.93078066812716   16.17556412870788
H        -0.32988279897534    0.99986063112866   16.40269906314109
H        -2.75982658774165    1.36360458307713   16.61377688148986
H        -3.67387997685305    3.65099657840926   16.60440092525621
H        -2.16796158855074    5.58673691589116   16.37654537016125
H         1.39331238623720    7.07423879564269   13.66271549835162
H         0.47253777809321    9.13075653259385   12.62916472573429
H        -1.31387616238764   10.38934795617246   13.77253904733577
H        -2.15043290204429    9.63555947895767   15.96345737191126
H        -1.21375221965209    7.61069004655718   17.01613112075142

