48
CSD_code = BAJCIA | q = 0 | S = 0 | Stoichiometry = C23H17F4O2PPd | MND = 4
Pd        7.31641509553399    9.64799734548827   15.40092704692267
P         5.98743091468517    9.14419278539885   13.61209607730144
F         2.63786570040768    9.03418943177777   13.68759414972020
F         1.24162250995972    9.65245284681279   15.97782822412294
F         2.58119216168834   10.33744757119451   18.23308678935958
F         5.29419534504218   10.43161513407605   18.26924748855674
O         9.23265207522124    9.41157195010121   14.61651002326695
O         8.07748551122411   10.35268560094861   17.13879933125773
C         4.67433896618877    9.39532645693339   14.85008908521174
C         3.29312511307558    9.36548125867851   14.81609007224247
C         2.58418713451875    9.67984649916453   15.97077816014334
C         3.27569514600477   10.03266674828495   17.12714342293782
C         4.67034968727907   10.07591474930737   17.13360068493598
C         5.40004813606178    9.76171007806430   15.99737294706650
C         5.48000530643125    7.77018484554246   12.54209770604691
C         5.91322475526742    7.72539776749315   11.21982075045761
H         6.52282240908938    8.52930257840127   10.82996982768122
C         5.55576113344597    6.65940947198133   10.41516251603486
H         5.88233745338985    6.62905054075357    9.38618211934202
C         4.78121264126504    5.63089452913493   10.92816577503784
H         4.50010570530769    4.80171700508095   10.29637103857186
C         4.37366305722646    5.66039105701726   12.25229302254419
H         3.77830651098008    4.85367146517034   12.65287083438459
C         4.72856044980226    6.72217060981222   13.06378682229625
H         4.42294384819696    6.74660927037666   14.10079015788231
C         5.79000186638431   10.67035683117881   12.63809570533730
C         6.55423307738983   11.76179817838760   13.04861268752532
H         7.26935759727238   11.63751411047626   13.87588331974266
C         6.40571947653077   12.98348552529896   12.41745278095494
H         6.99597740905087   13.83126439498846   12.73157336766053
C         5.49587462498183   13.11822837034215   11.37976865468063
H         5.38046464969402   14.07159114032688   10.88627599791002
C         4.72985918754005   12.03582310873137   10.97743611659716
H         4.01537959702256   12.14816020723348   10.17568214039677
C         4.87056562177633   10.81034085334344   11.60459281857105
H         4.26640935709904    9.96773652740297   11.30100120708730
C        11.59513038086552    9.36700118648752   14.54264546910562
H        12.14997431376453    8.58848615487165   15.06156949579827
H        12.20747618400137   10.26542438127996   14.52178034950914
H        11.38801179574687    9.04378468421661   13.52577283245842
C        10.29152383506789    9.63858012634108   15.26523003335092
C        10.38370127958285   10.11652974406366   16.57546496699970
H        11.37480645739890   10.25233634930386   16.98051760522526
C         9.30716120135819   10.43386308450362   17.40857611099867
C         9.63665874268437   10.94380120445294   18.79592469544229
H         8.71292826804333   11.13767532743618   19.33455245438380
H        10.21849389640150   11.86024846751610   18.72865150268257
H        10.22364441303198   10.20367244481490   19.33466561427667

