96
CSD_code = BAJFUP | q = 0 | S = 0 | Stoichiometry = C46H46MoOP2 | MND = 9
C         8.54664456047731    2.58519329291978   17.02215936455531
C         9.28855976842408    2.88494552055030   17.93906888291255
C        10.14369801151537    3.29128565665305   18.99103905104869
C        11.14901243710533    2.45264051032423   19.47594469335740
H        11.27488052722839    1.46614946344953   19.05063320823282
C        11.97967185046518    2.87135275056102   20.49605576601440
H        12.75035657044698    2.20578926231925   20.86087310286866
C        11.84089560319948    4.13247199985554   21.06164239732946
C        12.75244721186133    4.59529790539826   22.15813341384547
H        13.26728268175168    3.75448553560673   22.61729531102265
H        12.19264041727648    5.12664561702766   22.92587002417281
H        13.50385417378240    5.27897709760512   21.76029387344047
C        10.84172220908287    4.96907867764502   20.57407615891695
H        10.71963414727331    5.95488933153666   21.00216548811724
C        10.00365241650350    4.56214966672308   19.55775990924075
H         9.22971898171000    5.22150187782302   19.19123321063987
C         9.33177166891504    0.48316234470849   15.29005662034479
C         8.70408319969845    0.44373290665211   14.02039741801460
C         7.45581647995115   -0.23310112429192   14.17293008071619
C         7.33484102554690   -0.64603545746958   15.53234786252389
C         8.48508933166490   -0.19612526541178   16.22965710785060
C        10.76018043200530    0.86222384592162   15.53406894288680
H        11.39642658694657   -0.02061061654821   15.43009739259566
H        10.89120540375229    1.26653989587801   16.53628577247399
H        11.09786303063280    1.61387820975178   14.82190962521769
C         9.42115292974794    0.71473567522706   12.73028441052435
H         9.97486551027145    1.65217629969711   12.76799560031173
H         8.74164166623567    0.74317472039342   11.88126266772440
H        10.14201749549652   -0.08807891037466   12.55181501871016
C         6.61379893256267   -0.77558544984005   13.05392475686663
H         6.84677155490157   -0.29562006563670   12.10639267122944
H         5.54633308938375   -0.64313136937821   13.23406278926876
H         6.80886865225931   -1.84592225979708   12.94770077311026
C         6.33794613353354   -1.62649198930436   16.08056922643285
H         6.85470831631473   -2.54341131513365   16.37345539410253
H         5.59053320443743   -1.88861430944507   15.33418396280157
H         5.82633921945277   -1.23355558685214   16.95945094150731
C         8.87752381708203   -0.61658586343606   17.61213311093324
H         7.99863542126984   -0.87945192146506   18.19778391179144
H         9.39913314089153    0.18798836775354   18.12781423204296
H         9.53813477702078   -1.48635136105247   17.56626968002448
C         6.07953537237420    1.80948814930150   16.96182430707115
C         7.64695565235634    5.23104982696810   16.57735437853819
C         6.81258617538603    5.01205557367464   17.66586268860162
H         6.36846474712443    4.03608388492911   17.80359690048957
C         6.57234005672312    6.02512407687229   18.57768459387719
H         5.92631863853293    5.84262559888708   19.42403103871735
C         7.16551114557404    7.26593646901916   18.41081712760318
H         6.98704576444768    8.05328082531109   19.12863897999825
C         7.98990671544404    7.49493230839624   17.32092298988479
H         8.45276359315996    8.46213518823991   17.18585275999990
C         8.22105646653697    6.48769230447241   16.40206582278586
H         8.85994558226041    6.67143201956900   15.54760683682608
C         9.55630227309972    4.28990813073740   14.70538949712333
C        10.59118585444866    4.56879951700611   15.59617963139206
H        10.36889938201273    4.68872132361875   16.64557225400316
C        11.89051859467975    4.69591021663850   15.14202302255650
H        12.68322489541195    4.90996864340247   15.84421770558757
C        12.17822376129270    4.55014381757967   13.79441979672107
H        13.19414730891544    4.64890910687233   13.44092591094050
C        11.15569154606742    4.27936900312814   12.90028284287874
H        11.37299826376859    4.16948156347580   11.84673391909497
C         9.85567320666220    4.14351234808051   13.35347028900800
H         9.06720636575458    3.92980521196573   12.64526914522141
C         6.81029854227004    4.79847580261728   14.03646821093995
H         6.90144023006818    5.88823946182059   14.10003975815938
H         7.05275935979652    4.48465622091117   13.01954770685760
C         5.41689488306413    4.32700258156293   14.40567275972495
H         4.64903828870640    4.67656504125071   13.70483288105307
H         5.17966827398168    4.66563132034997   15.42415743069787
C         5.16013076961507    2.17936819763785   12.68144240956425
C         6.27098281840139    2.24343408080223   11.84881796122340
H         7.24455495735161    2.38144399290872   12.30203993614777
C         6.13634179713126    2.10823913189121   10.47996993504860
H         7.00502572503853    2.16527754311684    9.83845889726856
C         4.88221946893762    1.89063646165983    9.93269892208345
H         4.77105149081711    1.77583279258210    8.86447998300512
C         3.77163614814773    1.81566999391168   10.75728014656591
H         2.79459782382710    1.64169950168816   10.32998458421061
C         3.90354032085848    1.96648054197134   12.12677321042213
H         3.03208037111878    1.91393046922454   12.76454136562563
C         3.81969402741296    2.07968078646594   15.14184923138698
C         3.57100698721632    0.72001314046828   15.31226983828422
H         4.33553800421543    0.01589477988383   15.01184867369567
C         2.38543031988638    0.27799871177367   15.86291486596063
H         2.20605856304019   -0.77998522827364   15.98957691286299
C         1.43006028846032    1.19913032676295   16.26332838868249
H         0.50330929911048    0.86166258721983   16.70348973130293
C         1.67027149963662    2.55274188217397   16.10548748136203
H         0.92882931902100    3.27207587800119   16.42271480463487
C         2.85738892267169    2.99715589391416   15.54709983802096
H         3.02209293911316    4.05829095873609   15.43333588277733
Mo        7.37996837936457    1.66783187343188   15.55940332593319
O         5.32251391780260    1.71764362035746   17.82805105987524
P         7.88249439997286    3.94213515362564   15.30503062597807
P         5.45772791383025    2.48338782487135   14.45925697601151

