67
CSD_code = BAJGIE | q = 0 | S = 0 | Stoichiometry = C25H38MoOP2 | MND = 9
C        11.28659994858496   -0.07486941889047    4.01347283614073
C        12.47992665167533   -0.14454260302824    4.24200361926905
C        13.86086952299492   -0.21060288972001    4.54018733225899
C        14.81471571498681   -0.06173877345598    3.52901308191769
H        14.48405197290139    0.09905609991688    2.51188916717939
C        16.16149746160094   -0.12142209939954    3.82465964015339
H        16.89025360728190   -0.00421734942609    3.03454096058865
C        16.58345595855524   -0.33006949780802    5.12841693138005
H        17.63840621007845   -0.37552923877480    5.35656868474807
C        15.64591303002964   -0.48146707516031    6.13801230126387
H        15.97150318442101   -0.64634255133750    7.15580670778381
C        14.29702307307003   -0.42377791628097    5.85149214928324
H        13.56528778838383   -0.54443281873414    6.63924008924879
C         9.16012410429583   -1.84157254464874    1.78193348949975
C         7.89948969909186   -1.17522138681365    1.90720519556569
C         8.05812714431180    0.15294143222234    1.41894560162999
C         9.41460018304586    0.30569381769166    0.98972790542922
C        10.08677078839534   -0.92235907860628    1.22363635739037
C         9.36636946200552   -3.32546219818982    1.84578240981627
H         9.05881895368078   -3.76960742644758    0.89465241096105
H         8.77297599201804   -3.78601919429956    2.63483445902950
H        10.41452606946706   -3.57255224418883    2.00573095337924
C         6.57021963448230   -1.82170372656924    2.16091870764994
H         5.94356648936788   -1.19786280285049    2.79728557318340
H         6.68331461596116   -2.79310093940996    2.63791843956620
H         6.04554063338022   -1.97113202985360    1.21331802517517
C         6.91625221911377    1.07307159040158    1.10503243000651
H         6.36850104195674    0.69957455833958    0.23551581812533
H         7.26450164653660    2.07802763313285    0.87533136415350
H         6.21965598720522    1.13444523172234    1.94033861656897
C         9.91715952153449    1.40389590741404    0.10067099929430
H        11.00401530150277    1.46290745695070    0.11726699236149
H         9.51006147692240    2.37469784725746    0.38102202256776
H         9.60902914680913    1.19763955812358   -0.92837251795090
C        11.48584237818919   -1.25120838395158    0.79956281081981
H        11.94741890051583   -1.95923791916916    1.48670902800134
H        12.10729586557707   -0.35751562892451    0.77786327527098
H        11.48319845694360   -1.69270998193975   -0.20068954635430
C         8.05535015448728    0.55028055867602    4.53904289386736
C        11.51562915586128    2.82779460930682    2.96871285455849
H        11.33497883658783    2.90614966412959    1.89945614956874
H        12.37212317175844    2.18100572768672    3.14489498303482
H        11.71227247563559    3.82096642531780    3.37406054044811
C         8.82385834854006    3.41550762642172    3.43471540315759
H         7.92022558825234    3.20774712053350    4.00572581726061
H         8.57722922313340    3.40135170659541    2.37445371342624
H         9.21070135869353    4.39916988602965    3.70354276712285
C        10.75019784055832   -2.90039973090702    5.12520328150528
H        11.74707123337640   -2.50550284011622    4.94265881940555
H        10.48981555914481   -3.59962779061688    4.33435243294486
H        10.72521845498584   -3.41809639790535    6.08480116683691
C         9.94671572554061   -0.78543195106936    6.76218868177981
H         9.97011979118042   -1.56616122451230    7.52417901805948
H         9.18026670881882   -0.05210515033161    7.01219616109012
H        10.91631405738401   -0.29410259309061    6.70110260888314
C         8.03702603560096   -2.43390288536454    5.58641077600531
H         8.19810258217380   -3.04975604958287    6.47205406576475
H         7.74171441414965   -3.06958589840734    4.75333560786735
H         7.24064454709664   -1.71653104971032    5.77823796066623
C        10.43553638155819    2.52328656777353    5.52145094926206
H        10.65672235279719    3.58868093106572    5.60331708680949
H        11.29885260675504    1.94082344122235    5.84002163584957
H         9.57566934165489    2.27807831307344    6.14437365903178
Mo        9.33728267189351   -0.08456311689304    3.27471257093391
O         7.25116432519101    0.93096692975311    5.28730105736419
P        10.04942131967266    2.09997872562886    3.78766854078548
P         9.55519590067975   -1.51359496998857    5.13448447435052

